MODEL 1
REMARK VINA RESULT:      -6.0      0.000      0.000
REMARK  Name = *****
REMARK                            x       y       z     vdW  Elec       q    Type
REMARK                         _______ _______ _______ _____ _____    ______ ____
ROOT
ATOM      1  C   LIG    1       24.476 -22.112   7.614  0.00  0.00    +0.013 C 
ENDROOT
BRANCH   1   2
ATOM      2  C   LIG    1       24.022 -20.731   7.052  0.00  0.00    +0.008 C 
BRANCH   2   4
ATOM      3  C   LIG    1       22.550 -19.747   5.178  0.00  0.00    +0.007 C 
ATOM      4  C   LIG    1       23.736 -20.662   5.525  0.00  0.00    -0.017 C 
ATOM      5  C   LIG    1       24.955 -20.174   4.741  0.00  0.00    +0.007 C 
ENDBRANCH   2   4
ENDBRANCH   1   2
BRANCH   1   6
ATOM      6  C   LIG    1       25.800 -22.030   8.399  0.00  0.00    +0.081 C 
BRANCH   6   7
ATOM      7  N   LIG    1       25.828 -20.805   9.207  0.00  0.00    -0.330 NA
ATOM      8  H   LIG    1       25.969 -19.990   8.600  0.00  0.00    +0.118 HD
ATOM      9  H   LIG    1       26.618 -20.808   9.856  0.00  0.00    +0.118 HD
ENDBRANCH   6   7
ENDBRANCH   1   6
BRANCH   1  10
ATOM     10  C   LIG    1       24.523 -23.194   6.501  0.00  0.00    +0.125 C 
BRANCH  10  11
ATOM     11  C   LIG    1       23.462 -24.263   6.574  0.00  0.00    +0.305 C 
ATOM     12  O   LIG    1       23.695 -25.475   6.495  0.00  0.00    -0.251 OA
BRANCH  11  13
ATOM     13  O   LIG    1       22.212 -23.778   6.713  0.00  0.00    -0.481 OA
ATOM     14  H   LIG    1       22.082 -22.944   6.202  0.00  0.00    +0.295 HD
ENDBRANCH  11  13
ENDBRANCH  10  11
ENDBRANCH   1  10
TORSDOF 7
ENDMDL
MODEL 2
REMARK VINA RESULT:      -5.8      5.481      6.567
REMARK  Name = *****
REMARK                            x       y       z     vdW  Elec       q    Type
REMARK                         _______ _______ _______ _____ _____    ______ ____
ROOT
ATOM      1  C   LIG    1       29.486 -20.010   7.734  0.00  0.00    +0.013 C 
ENDROOT
BRANCH   1   2
ATOM      2  C   LIG    1       28.030 -20.247   7.230  0.00  0.00    +0.008 C 
BRANCH   2   4
ATOM      3  C   LIG    1       25.960 -20.596   8.726  0.00  0.00    +0.007 C 
ATOM      4  C   LIG    1       27.169 -21.255   8.041  0.00  0.00    -0.017 C 
ATOM      5  C   LIG    1       26.650 -22.395   7.162  0.00  0.00    +0.007 C 
ENDBRANCH   2   4
ENDBRANCH   1   2
BRANCH   1   6
ATOM      6  C   LIG    1       30.293 -19.077   6.809  0.00  0.00    +0.081 C 
BRANCH   6   7
ATOM      7  N   LIG    1       31.228 -18.273   7.603  0.00  0.00    -0.330 NA
ATOM      8  H   LIG    1       31.494 -17.430   7.083  0.00  0.00    +0.118 HD
ATOM      9  H   LIG    1       32.100 -18.780   7.774  0.00  0.00    +0.118 HD
ENDBRANCH   6   7
ENDBRANCH   1   6
BRANCH   1  10
ATOM     10  C   LIG    1       30.223 -21.352   7.997  0.00  0.00    +0.125 C 
BRANCH  10  11
ATOM     11  C   LIG    1       31.142 -21.376   9.192  0.00  0.00    +0.305 C 
ATOM     12  O   LIG    1       32.188 -20.720   9.274  0.00  0.00    -0.251 OA
BRANCH  11  13
ATOM     13  O   LIG    1       30.734 -22.205  10.174  0.00  0.00    -0.481 OA
ATOM     14  H   LIG    1       30.211 -22.964   9.821  0.00  0.00    +0.295 HD
ENDBRANCH  11  13
ENDBRANCH  10  11
ENDBRANCH   1  10
TORSDOF 7
ENDMDL
MODEL 3
REMARK VINA RESULT:      -5.8      6.331      7.311
REMARK  Name = *****
REMARK                            x       y       z     vdW  Elec       q    Type
REMARK                         _______ _______ _______ _____ _____    ______ ____
ROOT
ATOM      1  C   LIG    1       29.354 -19.174   7.404  0.00  0.00    +0.013 C 
ENDROOT
BRANCH   1   2
ATOM      2  C   LIG    1       28.883 -20.629   7.707  0.00  0.00    +0.008 C 
BRANCH   2   4
ATOM      3  C   LIG    1       26.428 -20.516   8.486  0.00  0.00    +0.007 C 
ATOM      4  C   LIG    1       27.400 -20.961   7.380  0.00  0.00    -0.017 C 
ATOM      5  C   LIG    1       26.950 -20.316   6.068  0.00  0.00    +0.007 C 
ENDBRANCH   2   4
ENDBRANCH   1   2
BRANCH   1   6
ATOM      6  C   LIG    1       30.243 -19.085   6.148  0.00  0.00    +0.081 C 
BRANCH   6   7
ATOM      7  N   LIG    1       29.713 -18.070   5.231  0.00  0.00    -0.330 NA
ATOM      8  H   LIG    1       30.467 -17.704   4.640  0.00  0.00    +0.118 HD
ATOM      9  H   LIG    1       29.346 -17.264   5.742  0.00  0.00    +0.118 HD
ENDBRANCH   6   7
ENDBRANCH   1   6
BRANCH   1  10
ATOM     10  C   LIG    1       30.026 -18.523   8.643  0.00  0.00    +0.125 C 
BRANCH  10  11
ATOM     11  C   LIG    1       31.526 -18.654   8.727  0.00  0.00    +0.305 C 
ATOM     12  O   LIG    1       32.110 -19.660   9.150  0.00  0.00    -0.251 OA
BRANCH  11  13
ATOM     13  O   LIG    1       32.191 -17.556   8.314  0.00  0.00    -0.481 OA
ATOM     14  H   LIG    1       31.575 -16.835   8.040  0.00  0.00    +0.295 HD
ENDBRANCH  11  13
ENDBRANCH  10  11
ENDBRANCH   1  10
TORSDOF 7
ENDMDL
MODEL 4
REMARK VINA RESULT:      -5.8      1.047      1.574
REMARK  Name = *****
REMARK                            x       y       z     vdW  Elec       q    Type
REMARK                         _______ _______ _______ _____ _____    ______ ____
ROOT
ATOM      1  C   LIG    1       24.341 -21.825   7.543  0.00  0.00    +0.013 C 
ENDROOT
BRANCH   1   2
ATOM      2  C   LIG    1       23.254 -21.393   6.514  0.00  0.00    +0.008 C 
BRANCH   2   4
ATOM      3  C   LIG    1       24.257 -20.862   4.199  0.00  0.00    +0.007 C 
ATOM      4  C   LIG    1       23.660 -20.290   5.496  0.00  0.00    -0.017 C 
ATOM      5  C   LIG    1       22.473 -19.402   5.118  0.00  0.00    +0.007 C 
ENDBRANCH   2   4
ENDBRANCH   1   2
BRANCH   1   6
ATOM      6  C   LIG    1       25.351 -20.702   7.850  0.00  0.00    +0.081 C 
BRANCH   6   7
ATOM      7  N   LIG    1       25.870 -20.855   9.214  0.00  0.00    -0.330 NA
ATOM      8  H   LIG    1       25.148 -20.596   9.894  0.00  0.00    +0.118 HD
ATOM      9  H   LIG    1       26.653 -20.220   9.386  0.00  0.00    +0.118 HD
ENDBRANCH   6   7
ENDBRANCH   1   6
BRANCH   1  10
ATOM     10  C   LIG    1       25.044 -23.141   7.112  0.00  0.00    +0.125 C 
BRANCH  10  11
ATOM     11  C   LIG    1       24.217 -24.091   6.284  0.00  0.00    +0.305 C 
ATOM     12  O   LIG    1       23.213 -24.681   6.702  0.00  0.00    -0.251 OA
BRANCH  11  13
ATOM     13  O   LIG    1       24.682 -24.265   5.030  0.00  0.00    -0.481 OA
ATOM     14  H   LIG    1       25.534 -23.787   4.885  0.00  0.00    +0.295 HD
ENDBRANCH  11  13
ENDBRANCH  10  11
ENDBRANCH   1  10
TORSDOF 7
ENDMDL
MODEL 5
REMARK VINA RESULT:      -5.8      2.618      3.290
REMARK  Name = *****
REMARK                            x       y       z     vdW  Elec       q    Type
REMARK                         _______ _______ _______ _____ _____    ______ ____
ROOT
ATOM      1  C   LIG    1       23.430 -22.012   6.337  0.00  0.00    +0.013 C 
ENDROOT
BRANCH   1   2
ATOM      2  C   LIG    1       22.585 -21.065   5.432  0.00  0.00    +0.008 C 
BRANCH   2   4
ATOM      3  C   LIG    1       24.282 -19.922   3.863  0.00  0.00    +0.007 C 
ATOM      4  C   LIG    1       23.261 -19.734   4.998  0.00  0.00    -0.017 C 
ATOM      5  C   LIG    1       22.233 -18.698   4.541  0.00  0.00    +0.007 C 
ENDBRANCH   2   4
ENDBRANCH   1   2
BRANCH   1   6
ATOM      6  C   LIG    1       22.630 -23.233   6.832  0.00  0.00    +0.081 C 
BRANCH   6   7
ATOM      7  N   LIG    1       23.326 -24.471   6.463  0.00  0.00    -0.330 NA
ATOM      8  H   LIG    1       22.777 -24.987   5.767  0.00  0.00    +0.118 HD
ATOM      9  H   LIG    1       23.418 -25.098   7.265  0.00  0.00    +0.118 HD
ENDBRANCH   6   7
ENDBRANCH   1   6
BRANCH   1  10
ATOM     10  C   LIG    1       24.099 -21.239   7.506  0.00  0.00    +0.125 C 
BRANCH  10  11
ATOM     11  C   LIG    1       25.330 -21.875   8.099  0.00  0.00    +0.305 C 
ATOM     12  O   LIG    1       25.885 -22.877   7.632  0.00  0.00    -0.251 OA
BRANCH  11  13
ATOM     13  O   LIG    1       25.772 -21.263   9.216  0.00  0.00    -0.481 OA
ATOM     14  H   LIG    1       26.746 -21.376   9.336  0.00  0.00    +0.295 HD
ENDBRANCH  11  13
ENDBRANCH  10  11
ENDBRANCH   1  10
TORSDOF 7
ENDMDL
MODEL 6
REMARK VINA RESULT:      -5.8      3.016      3.681
REMARK  Name = *****
REMARK                            x       y       z     vdW  Elec       q    Type
REMARK                         _______ _______ _______ _____ _____    ______ ____
ROOT
ATOM      1  C   LIG    1       24.720 -22.528   6.890  0.00  0.00    +0.013 C 
ENDROOT
BRANCH   1   2
ATOM      2  C   LIG    1       23.550 -21.509   7.045  0.00  0.00    +0.008 C 
BRANCH   2   4
ATOM      3  C   LIG    1       24.608 -20.380   4.983  0.00  0.00    +0.007 C 
ATOM      4  C   LIG    1       23.379 -20.468   5.904  0.00  0.00    -0.017 C 
ATOM      5  C   LIG    1       22.158 -20.773   5.035  0.00  0.00    +0.007 C 
ENDBRANCH   2   4
ENDBRANCH   1   2
BRANCH   1   6
ATOM      6  C   LIG    1       24.228 -23.970   6.659  0.00  0.00    +0.081 C 
BRANCH   6   7
ATOM      7  N   LIG    1       22.761 -24.000   6.630  0.00  0.00    -0.330 NA
ATOM      8  H   LIG    1       22.432 -24.045   5.659  0.00  0.00    +0.118 HD
ATOM      9  H   LIG    1       22.365 -23.141   7.018  0.00  0.00    +0.118 HD
ENDBRANCH   6   7
ENDBRANCH   1   6
BRANCH   1  10
ATOM     10  C   LIG    1       25.719 -22.434   8.075  0.00  0.00    +0.125 C 
BRANCH  10  11
ATOM     11  C   LIG    1       26.196 -21.048   8.429  0.00  0.00    +0.305 C 
ATOM     12  O   LIG    1       25.901 -20.462   9.478  0.00  0.00    -0.251 OA
BRANCH  11  13
ATOM     13  O   LIG    1       26.967 -20.480   7.480  0.00  0.00    -0.481 OA
ATOM     14  H   LIG    1       26.439 -20.207   6.692  0.00  0.00    +0.295 HD
ENDBRANCH  11  13
ENDBRANCH  10  11
ENDBRANCH   1  10
TORSDOF 7
ENDMDL
MODEL 7
REMARK VINA RESULT:      -5.8      5.561      6.541
REMARK  Name = *****
REMARK                            x       y       z     vdW  Elec       q    Type
REMARK                         _______ _______ _______ _____ _____    ______ ____
ROOT
ATOM      1  C   LIG    1       29.847 -19.979   8.132  0.00  0.00    +0.013 C 
ENDROOT
BRANCH   1   2
ATOM      2  C   LIG    1       28.744 -19.582   7.105  0.00  0.00    +0.008 C 
BRANCH   2   4
ATOM      3  C   LIG    1       26.568 -20.437   8.192  0.00  0.00    +0.007 C 
ATOM      4  C   LIG    1       27.524 -20.538   6.990  0.00  0.00    -0.017 C 
ATOM      5  C   LIG    1       26.715 -20.275   5.719  0.00  0.00    +0.007 C 
ENDBRANCH   2   4
ENDBRANCH   1   2
BRANCH   1   6
ATOM      6  C   LIG    1       31.169 -19.217   7.913  0.00  0.00    +0.081 C 
BRANCH   6   7
ATOM      7  N   LIG    1       31.960 -19.222   9.149  0.00  0.00    -0.330 NA
ATOM      8  H   LIG    1       31.949 -18.288   9.575  0.00  0.00    +0.118 HD
ATOM      9  H   LIG    1       32.943 -19.429   8.959  0.00  0.00    +0.118 HD
ENDBRANCH   6   7
ENDBRANCH   1   6
BRANCH   1  10
ATOM     10  C   LIG    1       30.060 -21.517   8.173  0.00  0.00    +0.125 C 
BRANCH  10  11
ATOM     11  C   LIG    1       31.060 -22.018   9.183  0.00  0.00    +0.305 C 
ATOM     12  O   LIG    1       30.885 -21.983  10.408  0.00  0.00    -0.251 OA
BRANCH  11  13
ATOM     13  O   LIG    1       32.194 -22.499   8.633  0.00  0.00    -0.481 OA
ATOM     14  H   LIG    1       32.972 -21.924   8.834  0.00  0.00    +0.295 HD
ENDBRANCH  11  13
ENDBRANCH  10  11
ENDBRANCH   1  10
TORSDOF 7
ENDMDL
MODEL 8
REMARK VINA RESULT:      -5.7      7.061      7.971
REMARK  Name = *****
REMARK                            x       y       z     vdW  Elec       q    Type
REMARK                         _______ _______ _______ _____ _____    ______ ____
ROOT
ATOM      1  C   LIG    1       30.682 -19.600   7.966  0.00  0.00    +0.013 C 
ENDROOT
BRANCH   1   2
ATOM      2  C   LIG    1       29.808 -18.555   8.723  0.00  0.00    +0.008 C 
BRANCH   2   4
ATOM      3  C   LIG    1       30.426 -17.504  10.995  0.00  0.00    +0.007 C 
ATOM      4  C   LIG    1       30.569 -17.421   9.466  0.00  0.00    -0.017 C 
ATOM      5  C   LIG    1       32.061 -17.424   9.130  0.00  0.00    +0.007 C 
ENDBRANCH   2   4
ENDBRANCH   1   2
BRANCH   1   6
ATOM      6  C   LIG    1       30.778 -19.314   6.455  0.00  0.00    +0.081 C 
BRANCH   6   7
ATOM      7  N   LIG    1       29.787 -18.302   6.073  0.00  0.00    -0.330 NA
ATOM      8  H   LIG    1       29.782 -18.184   5.054  0.00  0.00    +0.118 HD
ATOM      9  H   LIG    1       30.027 -17.385   6.457  0.00  0.00    +0.118 HD
ENDBRANCH   6   7
ENDBRANCH   1   6
BRANCH   1  10
ATOM     10  C   LIG    1       30.215 -21.053   8.257  0.00  0.00    +0.125 C 
BRANCH  10  11
ATOM     11  C   LIG    1       31.091 -21.855   9.184  0.00  0.00    +0.305 C 
ATOM     12  O   LIG    1       30.848 -22.035  10.384  0.00  0.00    -0.251 OA
BRANCH  11  13
ATOM     13  O   LIG    1       32.195 -22.353   8.592  0.00  0.00    -0.481 OA
ATOM     14  H   LIG    1       32.808 -22.766   9.246  0.00  0.00    +0.295 HD
ENDBRANCH  11  13
ENDBRANCH  10  11
ENDBRANCH   1  10
TORSDOF 7
ENDMDL
MODEL 9
REMARK VINA RESULT:      -5.7      6.072      7.066
REMARK  Name = *****
REMARK                            x       y       z     vdW  Elec       q    Type
REMARK                         _______ _______ _______ _____ _____    ______ ____
ROOT
ATOM      1  C   LIG    1       30.015 -20.887   7.985  0.00  0.00    +0.013 C 
ENDROOT
BRANCH   1   2
ATOM      2  C   LIG    1       28.622 -21.393   7.503  0.00  0.00    +0.008 C 
BRANCH   2   4
ATOM      3  C   LIG    1       26.876 -20.259   5.983  0.00  0.00    +0.007 C 
ATOM      4  C   LIG    1       27.497 -20.327   7.389  0.00  0.00    -0.017 C 
ATOM      5  C   LIG    1       26.370 -20.581   8.391  0.00  0.00    +0.007 C 
ENDBRANCH   2   4
ENDBRANCH   1   2
BRANCH   1   6
ATOM      6  C   LIG    1       30.628 -21.781   9.081  0.00  0.00    +0.081 C 
BRANCH   6   7
ATOM      7  N   LIG    1       31.998 -22.155   8.714  0.00  0.00    -0.330 NA
ATOM      8  H   LIG    1       32.347 -22.877   9.354  0.00  0.00    +0.118 HD
ATOM      9  H   LIG    1       32.638 -21.363   8.813  0.00  0.00    +0.118 HD
ENDBRANCH   6   7
ENDBRANCH   1   6
BRANCH   1  10
ATOM     10  C   LIG    1       29.964 -19.394   8.409  0.00  0.00    +0.125 C 
BRANCH  10  11
ATOM     11  C   LIG    1       31.082 -18.923   9.304  0.00  0.00    +0.305 C 
ATOM     12  O   LIG    1       32.270 -18.872   8.960  0.00  0.00    -0.251 OA
BRANCH  11  13
ATOM     13  O   LIG    1       30.677 -18.575  10.542  0.00  0.00    -0.481 OA
ATOM     14  H   LIG    1       30.976 -17.666  10.784  0.00  0.00    +0.295 HD
ENDBRANCH  11  13
ENDBRANCH  10  11
ENDBRANCH   1  10
TORSDOF 7
ENDMDL
