MODEL 1
REMARK VINA RESULT:      -1.4      0.000      0.000
REMARK  Name = *****
REMARK                            x       y       z     vdW  Elec       q    Type
REMARK                         _______ _______ _______ _____ _____    ______ ____
ROOT
ATOM      1  C   LIG    1       26.069 -17.043   3.900  0.00  0.00    +0.020 C 
ATOM      2  C   LIG    1       24.797 -17.691   3.989  0.00  0.00    +0.060 C 
ATOM      3  C   LIG    1       23.640 -16.883   4.104  0.00  0.00    +0.046 C 
ATOM      4  C   LIG    1       22.335 -17.514   4.381  0.00  0.00    +0.190 C 
ATOM      5  C   LIG    1       22.366 -18.866   4.949  0.00  0.00    +0.084 C 
ATOM      6  C   LIG    1       23.488 -19.581   4.785  0.00  0.00    +0.131 C 
ATOM      7  O   LIG    1       21.278 -16.923   4.209  0.00  0.00    -0.287 OA
ATOM      8  C   LIG    1       23.690 -15.493   4.052  0.00  0.00    +0.029 C 
ATOM      9  C   LIG    1       24.924 -14.866   3.978  0.00  0.00    +0.065 C 
ATOM     10  C   LIG    1       24.971 -13.398   4.008  0.00  0.00    +0.193 C 
ATOM     11  O   LIG    1       23.963 -12.708   4.085  0.00  0.00    -0.287 OA
ATOM     12  C   LIG    1       26.294 -12.782   3.948  0.00  0.00    +0.105 C 
ATOM     13  C   LIG    1       27.370 -13.579   3.915  0.00  0.00    +0.215 C 
ATOM     14  O   LIG    1       27.340 -14.973   3.938  0.00  0.00    -0.448 OA
ATOM     15  N   LIG    1       24.627 -19.128   4.064  0.00  0.00    -0.335 NA
ATOM     16  C   LIG    1       26.109 -15.613   3.929  0.00  0.00    +0.145 C 
ENDROOT
BRANCH   6  17
ATOM     17  C   LIG    1       23.415 -20.995   5.290  0.00  0.00    +0.354 C 
ATOM     18  O   LIG    1       24.313 -21.571   5.884  0.00  0.00    -0.243 OA
BRANCH  17  19
ATOM     19  O   LIG    1       22.217 -21.560   5.038  0.00  0.00    -0.476 OA
ATOM     20  H   LIG    1       22.328 -22.518   4.889  0.00  0.00    +0.295 HD
ENDBRANCH  17  19
ENDBRANCH   6  17
BRANCH  13  21
ATOM     21  C   LIG    1       28.686 -12.884   3.851  0.00  0.00    +0.373 C 
ATOM     22  O   LIG    1       29.058 -12.026   4.647  0.00  0.00    -0.242 OA
BRANCH  21  23
ATOM     23  O   LIG    1       29.438 -13.312   2.822  0.00  0.00    -0.475 OA
ATOM     24  H   LIG    1       29.240 -12.847   1.982  0.00  0.00    +0.295 HD
ENDBRANCH  21  23
ENDBRANCH  13  21
BRANCH  15  25
ATOM     25  C   LIG    1       24.854 -19.768   2.718  0.00  0.00    +0.119 C 
ATOM     26  C   LIG    1       24.240 -21.167   2.596  0.00  0.00    +0.027 C 
ENDBRANCH  15  25
BRANCH   1  27
ATOM     27  C   LIG    1       27.376 -17.817   3.816  0.00  0.00    +0.041 C 
BRANCH  27  29
ATOM     28  C   LIG    1       29.164 -18.479   5.550  0.00  0.00    +0.004 C 
ATOM     29  C   LIG    1       27.747 -18.668   5.037  0.00  0.00    +0.001 C 
ENDBRANCH  27  29
ENDBRANCH   1  27
TORSDOF 7
ENDMDL
