MODEL 1
REMARK VINA RESULT:       9.5      0.000      0.000
REMARK  Name = *****
REMARK                            x       y       z     vdW  Elec       q    Type
REMARK                         _______ _______ _______ _____ _____    ______ ____
ROOT
ATOM      1  C   LIG    1       22.315 -20.537   4.813  0.00  0.00    +0.185 C 
ATOM      2  O   LIG    1       23.301 -19.506   4.753  0.00  0.00    -0.334 OA
ATOM      3  C   LIG    1       24.342 -19.978   3.868  0.00  0.00    +0.219 C 
ATOM      4  O   LIG    1       23.912 -21.216   3.268  0.00  0.00    -0.341 OA
ATOM      5  C   LIG    1       22.516 -21.340   3.556  0.00  0.00    +0.198 C 
ENDROOT
BRANCH   3   6
ATOM      6  C   LIG    1       25.605 -20.276   4.714  0.00  0.00    +0.031 A 
ATOM      7  C   LIG    1       25.593 -20.574   6.095  0.00  0.00    +0.051 A 
ATOM      8 CL   LIG    1       24.136 -20.741   7.009  0.00  0.00    -0.083 Cl
ATOM      9  C   LIG    1       26.787 -20.764   6.818  0.00  0.00    +0.040 A 
ATOM     10  C   LIG    1       28.019 -20.677   6.179  0.00  0.00    +0.042 A 
ATOM     11 CL   LIG    1       29.475 -20.918   7.062  0.00  0.00    -0.084 Cl
ATOM     12  C   LIG    1       28.071 -20.404   4.821  0.00  0.00    +0.020 A 
ATOM     13  C   LIG    1       26.885 -20.204   4.105  0.00  0.00    +0.012 A 
ENDBRANCH   3   6
BRANCH   1  14
ATOM     14  C   LIG    1       20.918 -19.923   4.914  0.00  0.00    +0.263 C 
BRANCH  14  15
ATOM     15  O   LIG    1       20.687 -18.967   3.871  0.00  0.00    -0.489 OA
BRANCH  15  19
ATOM     16  C   LIG    1       22.674 -15.253   4.115  0.00  0.00    +0.030 A 
ATOM     17  C   LIG    1       22.526 -16.073   5.237  0.00  0.00    +0.027 A 
ATOM     18  C   LIG    1       21.881 -17.300   5.187  0.00  0.00    +0.047 A 
ATOM     19  C   LIG    1       21.337 -17.770   3.994  0.00  0.00    +0.121 A 
ATOM     20  C   LIG    1       21.444 -16.976   2.862  0.00  0.00    +0.047 A 
ATOM     21  C   LIG    1       22.104 -15.732   2.920  0.00  0.00    +0.027 A 
BRANCH  16  25
ATOM     22  N   LIG    1       25.633 -12.129   4.237  0.00  0.00    -0.297 NA
ATOM     23  C   LIG    1       24.678 -12.188   3.102  0.00  0.00    +0.103 C 
ATOM     24  C   LIG    1       23.940 -13.535   2.937  0.00  0.00    +0.120 C 
ATOM     25  N   LIG    1       23.321 -14.003   4.198  0.00  0.00    -0.327 N 
ATOM     26  C   LIG    1       24.107 -13.759   5.434  0.00  0.00    +0.120 C 
ATOM     27  C   LIG    1       24.813 -12.393   5.443  0.00  0.00    +0.103 C 
BRANCH  22  29
ATOM     28  C   LIG    1       27.810 -12.548   3.085  0.00  0.00    +0.024 C 
ATOM     29  C   LIG    1       26.770 -13.075   4.084  0.00  0.00    +0.051 C 
ATOM     30  C   LIG    1       27.484 -13.332   5.421  0.00  0.00    +0.024 C 
ENDBRANCH  22  29
ENDBRANCH  16  25
ENDBRANCH  15  19
ENDBRANCH  14  15
ENDBRANCH   1  14
BRANCH   3  31
ATOM     31  C   LIG    1       24.554 -18.879   2.798  0.00  0.00    +0.215 C 
BRANCH  31  32
ATOM     32  N   LIG    1       25.461 -17.809   3.228  0.00  0.00    -0.246 N 
ATOM     33  N   LIG    1       26.723 -18.073   3.604  0.00  0.00    -0.158 NA
ATOM     34  C   LIG    1       27.203 -16.841   3.799  0.00  0.00    +0.244 A 
ATOM     35  N   LIG    1       26.338 -15.828   3.571  0.00  0.00    -0.223 NA
ATOM     36  C   LIG    1       25.240 -16.470   3.187  0.00  0.00    +0.219 A 
ENDBRANCH  31  32
ENDBRANCH   3  31
TORSDOF 8
ENDMDL
