MODEL 1
REMARK VINA RESULT:      -5.3      0.000      0.000
REMARK  Name = *****
REMARK                            x       y       z     vdW  Elec       q    Type
REMARK                         _______ _______ _______ _____ _____    ______ ____
ROOT
ATOM      1  C   LIG    1       23.583 -26.771  13.243  0.00  0.00    +0.013 C 
ATOM      2  C   LIG    1       23.911 -28.060  13.055  0.00  0.00    -0.035 C 
ATOM      3  C   LIG    1       22.939 -29.224  12.861  0.00  0.00    +0.085 C 
ATOM      4  C   LIG    1       23.178 -29.855  11.506  0.00  0.00    +0.050 C 
ATOM      5  C   LIG    1       22.206 -30.464  10.799  0.00  0.00    +0.141 C 
ATOM      6  C   LIG    1       20.801 -30.611  11.311  0.00  0.00    +0.192 C 
ATOM      7  C   LIG    1       20.593 -30.197  12.776  0.00  0.00    +0.090 C 
ATOM      8  C   LIG    1       19.051 -30.154  13.062  0.00  0.00    +0.132 C 
ATOM      9  C   LIG    1       18.284 -31.310  12.356  0.00  0.00    +0.127 C 
ATOM     10  C   LIG    1       18.858 -32.227  11.538  0.00  0.00    +0.121 C 
ATOM     11  C   LIG    1       20.330 -32.077  11.359  0.00  0.00    +0.211 C 
ATOM     12  O   LIG    1       21.091 -33.035  11.456  0.00  0.00    -0.288 OA
ATOM     13  C   LIG    1       24.539 -29.721  10.898  0.00  0.00    +0.197 C 
ATOM     14  O   LIG    1       24.710 -29.947   9.703  0.00  0.00    -0.287 OA
ATOM     15  C   LIG    1       25.641 -29.295  11.796  0.00  0.00    +0.072 A 
ATOM     16  C   LIG    1       26.960 -29.712  11.556  0.00  0.00    +0.128 A 
ATOM     17  C   LIG    1       27.988 -29.325  12.409  0.00  0.00    +0.047 A 
ATOM     18  C   LIG    1       27.695 -28.539  13.521  0.00  0.00    +0.024 A 
ATOM     19  C   LIG    1       26.380 -28.120  13.773  0.00  0.00    +0.049 A 
ATOM     20 CL   LIG    1       26.125 -27.242  15.242  0.00  0.00    -0.083 Cl
ATOM     21  C   LIG    1       21.412 -28.927  13.100  0.00  0.00    +0.135 C 
ATOM     22  C   LIG    1       25.334 -28.466  12.896  0.00  0.00    +0.011 A 
ENDROOT
BRANCH  10  23
ATOM     23  C   LIG    1       18.143 -33.327  10.843  0.00  0.00    +0.248 C 
ATOM     24  O   LIG    1       17.096 -33.825  11.264  0.00  0.00    -0.270 OA
ATOM     25  N   LIG    1       18.718 -33.825   9.720  0.00  0.00    -0.325 N 
ATOM     26  H   LIG    1       19.598 -33.458   9.370  0.00  0.00    +0.145 HD
ATOM     27  H   LIG    1       18.274 -34.602   9.252  0.00  0.00    +0.145 HD
ENDBRANCH  10  23
BRANCH   8  28
ATOM     28  N   LIG    1       18.805 -30.023  14.524  0.00  0.00    -0.298 NA
ATOM     29  C   LIG    1       17.704 -29.117  14.863  0.00  0.00    +0.105 C 
ATOM     30  C   LIG    1       18.697 -31.283  15.261  0.00  0.00    +0.105 C 
ENDBRANCH   8  28
BRANCH   5  31
ATOM     31  O   LIG    1       22.364 -30.900   9.490  0.00  0.00    -0.507 OA
ATOM     32  H   LIG    1       23.143 -31.506   9.456  0.00  0.00    +0.292 HD
ENDBRANCH   5  31
BRANCH   6  33
ATOM     33  O   LIG    1       20.002 -29.810  10.438  0.00  0.00    -0.373 OA
ATOM     34  H   LIG    1       20.641 -29.339   9.864  0.00  0.00    +0.211 HD
ENDBRANCH   6  33
BRANCH   9  35
ATOM     35  O   LIG    1       16.907 -31.312  12.548  0.00  0.00    -0.509 OA
ATOM     36  H   LIG    1       16.579 -30.466  12.193  0.00  0.00    +0.292 HD
ENDBRANCH   9  35
BRANCH  16  37
ATOM     37  O   LIG    1       27.248 -30.543  10.512  0.00  0.00    -0.506 OA
ATOM     38  H   LIG    1       26.561 -31.222  10.416  0.00  0.00    +0.292 HD
ENDBRANCH  16  37
BRANCH  21  39
ATOM     39  O   LIG    1       21.247 -28.549  14.473  0.00  0.00    -0.390 OA
ATOM     40  H   LIG    1       22.081 -28.148  14.790  0.00  0.00    +0.210 HD
ENDBRANCH  21  39
TORSDOF 7
ENDMDL
MODEL 2
REMARK VINA RESULT:      -5.2      4.522      6.552
REMARK  Name = *****
REMARK                            x       y       z     vdW  Elec       q    Type
REMARK                         _______ _______ _______ _____ _____    ______ ____
ROOT
ATOM      1  C   LIG    1       27.450 -28.102  11.388  0.00  0.00    +0.013 C 
ATOM      2  C   LIG    1       26.258 -28.712  11.504  0.00  0.00    -0.035 C 
ATOM      3  C   LIG    1       25.496 -29.429  10.390  0.00  0.00    +0.085 C 
ATOM      4  C   LIG    1       25.315 -30.885  10.765  0.00  0.00    +0.050 C 
ATOM      5  C   LIG    1       25.229 -31.872   9.851  0.00  0.00    +0.141 C 
ATOM      6  C   LIG    1       25.262 -31.613   8.372  0.00  0.00    +0.192 C 
ATOM      7  C   LIG    1       25.200 -30.132   7.966  0.00  0.00    +0.090 C 
ATOM      8  C   LIG    1       25.515 -30.028   6.432  0.00  0.00    +0.132 C 
ATOM      9  C   LIG    1       24.881 -31.192   5.616  0.00  0.00    +0.127 C 
ATOM     10  C   LIG    1       24.180 -32.219   6.158  0.00  0.00    +0.121 C 
ATOM     11  C   LIG    1       24.023 -32.161   7.639  0.00  0.00    +0.211 C 
ATOM     12  O   LIG    1       22.933 -32.337   8.178  0.00  0.00    -0.288 OA
ATOM     13  C   LIG    1       25.313 -31.242  12.218  0.00  0.00    +0.197 C 
ATOM     14  O   LIG    1       25.464 -32.409  12.570  0.00  0.00    -0.287 OA
ATOM     15  C   LIG    1       25.136 -30.131  13.186  0.00  0.00    +0.072 A 
ATOM     16  C   LIG    1       24.519 -30.356  14.427  0.00  0.00    +0.128 A 
ATOM     17  C   LIG    1       24.341 -29.310  15.326  0.00  0.00    +0.047 A 
ATOM     18  C   LIG    1       24.758 -28.028  14.974  0.00  0.00    +0.024 A 
ATOM     19  C   LIG    1       25.371 -27.790  13.735  0.00  0.00    +0.049 A 
ATOM     20 CL   LIG    1       25.742 -26.141  13.368  0.00  0.00    -0.083 Cl
ATOM     21  C   LIG    1       26.053 -29.273   8.927  0.00  0.00    +0.135 C 
ATOM     22  C   LIG    1       25.599 -28.846  12.831  0.00  0.00    +0.011 A 
ENDROOT
BRANCH  10  23
ATOM     23  C   LIG    1       23.581 -33.346   5.399  0.00  0.00    +0.248 C 
ATOM     24  O   LIG    1       24.087 -33.819   4.379  0.00  0.00    -0.270 OA
ATOM     25  N   LIG    1       22.391 -33.825   5.842  0.00  0.00    -0.325 N 
ATOM     26  H   LIG    1       21.934 -33.430   6.658  0.00  0.00    +0.145 HD
ATOM     27  H   LIG    1       21.941 -34.562   5.320  0.00  0.00    +0.145 HD
ENDBRANCH  10  23
BRANCH   8  28
ATOM     28  N   LIG    1       25.206 -28.658   5.938  0.00  0.00    -0.298 NA
ATOM     29  C   LIG    1       26.217 -28.111   5.030  0.00  0.00    +0.105 C 
ATOM     30  C   LIG    1       23.858 -28.471   5.401  0.00  0.00    +0.105 C 
ENDBRANCH   8  28
BRANCH   5  31
ATOM     31  O   LIG    1       25.230 -33.223  10.174  0.00  0.00    -0.507 OA
ATOM     32  H   LIG    1       25.365 -33.309  11.148  0.00  0.00    +0.292 HD
ENDBRANCH   5  31
BRANCH   6  33
ATOM     33  O   LIG    1       26.475 -32.215   7.915  0.00  0.00    -0.373 OA
ATOM     34  H   LIG    1       27.003 -32.376   8.726  0.00  0.00    +0.211 HD
ENDBRANCH   6  33
BRANCH   9  35
ATOM     35  O   LIG    1       25.146 -31.172   4.251  0.00  0.00    -0.509 OA
ATOM     36  H   LIG    1       25.132 -30.236   3.982  0.00  0.00    +0.292 HD
ENDBRANCH   9  35
BRANCH  16  37
ATOM     37  O   LIG    1       24.040 -31.592  14.753  0.00  0.00    -0.506 OA
ATOM     38  H   LIG    1       24.504 -31.944  15.530  0.00  0.00    +0.292 HD
ENDBRANCH  16  37
BRANCH  21  39
ATOM     39  O   LIG    1       25.980 -27.886   8.574  0.00  0.00    -0.390 OA
ATOM     40  H   LIG    1       26.396 -27.359   9.285  0.00  0.00    +0.210 HD
ENDBRANCH  21  39
TORSDOF 7
ENDMDL
MODEL 3
REMARK VINA RESULT:      -5.1      4.033      7.246
REMARK  Name = *****
REMARK                            x       y       z     vdW  Elec       q    Type
REMARK                         _______ _______ _______ _____ _____    ______ ____
ROOT
ATOM      1  C   LIG    1       23.438 -33.371  11.081  0.00  0.00    +0.013 C 
ATOM      2  C   LIG    1       23.951 -32.407  10.299  0.00  0.00    -0.035 C 
ATOM      3  C   LIG    1       24.417 -31.024  10.754  0.00  0.00    +0.085 C 
ATOM      4  C   LIG    1       25.892 -30.868  10.448  0.00  0.00    +0.050 C 
ATOM      5  C   LIG    1       26.715 -30.091  11.180  0.00  0.00    +0.141 C 
ATOM      6  C   LIG    1       26.234 -29.273  12.345  0.00  0.00    +0.192 C 
ATOM      7  C   LIG    1       24.708 -29.225  12.525  0.00  0.00    +0.090 C 
ATOM      8  C   LIG    1       24.396 -28.569  13.916  0.00  0.00    +0.132 C 
ATOM      9  C   LIG    1       25.360 -27.392  14.247  0.00  0.00    +0.127 C 
ATOM     10  C   LIG    1       26.393 -26.998  13.460  0.00  0.00    +0.121 C 
ATOM     11  C   LIG    1       26.551 -27.773  12.196  0.00  0.00    +0.211 C 
ATOM     12  O   LIG    1       26.711 -27.213  11.115  0.00  0.00    -0.288 OA
ATOM     13  C   LIG    1       26.468 -31.678   9.330  0.00  0.00    +0.197 C 
ATOM     14  O   LIG    1       27.684 -31.816   9.226  0.00  0.00    -0.287 OA
ATOM     15  C   LIG    1       25.509 -32.302   8.385  0.00  0.00    +0.072 A 
ATOM     16  C   LIG    1       25.868 -32.525   7.046  0.00  0.00    +0.128 A 
ATOM     17  C   LIG    1       24.962 -33.097   6.159  0.00  0.00    +0.047 A 
ATOM     18  C   LIG    1       23.683 -33.422   6.604  0.00  0.00    +0.024 A 
ATOM     19  C   LIG    1       23.311 -33.200   7.937  0.00  0.00    +0.049 A 
ATOM     20 CL   LIG    1       21.664 -33.542   8.342  0.00  0.00    -0.083 Cl
ATOM     21  C   LIG    1       24.087 -30.610  12.236  0.00  0.00    +0.135 C 
ATOM     22  C   LIG    1       24.231 -32.664   8.860  0.00  0.00    +0.011 A 
ENDROOT
BRANCH  10  23
ATOM     23  C   LIG    1       27.331 -25.890  13.764  0.00  0.00    +0.248 C 
ATOM     24  O   LIG    1       27.234 -24.766  13.266  0.00  0.00    -0.270 OA
ATOM     25  N   LIG    1       28.368 -26.168  14.594  0.00  0.00    -0.325 N 
ATOM     26  H   LIG    1       28.492 -27.094  14.990  0.00  0.00    +0.145 HD
ATOM     27  H   LIG    1       29.045 -25.444  14.784  0.00  0.00    +0.145 HD
ENDBRANCH  10  23
BRANCH   8  28
ATOM     28  N   LIG    1       22.945 -28.256  14.020  0.00  0.00    -0.298 NA
ATOM     29  C   LIG    1       22.393 -28.436  15.365  0.00  0.00    +0.105 C 
ATOM     30  C   LIG    1       22.534 -26.973  13.448  0.00  0.00    +0.105 C 
ENDBRANCH   8  28
BRANCH   5  31
ATOM     31  O   LIG    1       28.094 -30.063  11.020  0.00  0.00    -0.507 OA
ATOM     32  H   LIG    1       28.509 -30.438  11.834  0.00  0.00    +0.292 HD
ENDBRANCH   5  31
BRANCH   6  33
ATOM     33  O   LIG    1       26.863 -29.851  13.491  0.00  0.00    -0.373 OA
ATOM     34  H   LIG    1       27.395 -30.597  13.143  0.00  0.00    +0.211 HD
ENDBRANCH   6  33
BRANCH   9  35
ATOM     35  O   LIG    1       25.153 -26.785  15.480  0.00  0.00    -0.509 OA
ATOM     36  H   LIG    1       26.030 -26.510  15.801  0.00  0.00    +0.292 HD
ENDBRANCH   9  35
BRANCH  16  37
ATOM     37  O   LIG    1       27.093 -32.142   6.580  0.00  0.00    -0.506 OA
ATOM     38  H   LIG    1       27.800 -32.585   7.076  0.00  0.00    +0.292 HD
ENDBRANCH  16  37
BRANCH  21  39
ATOM     39  O   LIG    1       22.661 -30.568  12.373  0.00  0.00    -0.390 OA
ATOM     40  H   LIG    1       22.430 -29.901  13.051  0.00  0.00    +0.210 HD
ENDBRANCH  21  39
TORSDOF 7
ENDMDL
MODEL 4
REMARK VINA RESULT:      -5.1      3.218      5.194
REMARK  Name = *****
REMARK                            x       y       z     vdW  Elec       q    Type
REMARK                         _______ _______ _______ _____ _____    ______ ____
ROOT
ATOM      1  C   LIG    1       23.436 -33.433   9.031  0.00  0.00    +0.013 C 
ATOM      2  C   LIG    1       23.241 -32.106   8.950  0.00  0.00    -0.035 C 
ATOM      3  C   LIG    1       22.374 -31.258   9.880  0.00  0.00    +0.085 C 
ATOM      4  C   LIG    1       23.240 -30.224  10.568  0.00  0.00    +0.050 C 
ATOM      5  C   LIG    1       22.967 -29.738  11.795  0.00  0.00    +0.141 C 
ATOM      6  C   LIG    1       21.750 -30.145  12.576  0.00  0.00    +0.192 C 
ATOM      7  C   LIG    1       20.734 -31.003  11.805  0.00  0.00    +0.090 C 
ATOM      8  C   LIG    1       19.681 -31.558  12.826  0.00  0.00    +0.132 C 
ATOM      9  C   LIG    1       19.304 -30.513  13.916  0.00  0.00    +0.127 C 
ATOM     10  C   LIG    1       19.853 -29.277  14.021  0.00  0.00    +0.121 C 
ATOM     11  C   LIG    1       20.866 -28.949  12.978  0.00  0.00    +0.211 C 
ATOM     12  O   LIG    1       20.839 -27.885  12.366  0.00  0.00    -0.288 OA
ATOM     13  C   LIG    1       24.497 -29.790   9.881  0.00  0.00    +0.197 C 
ATOM     14  O   LIG    1       25.370 -29.192  10.505  0.00  0.00    -0.287 OA
ATOM     15  C   LIG    1       24.631 -30.127   8.442  0.00  0.00    +0.072 A 
ATOM     16  C   LIG    1       25.377 -29.305   7.582  0.00  0.00    +0.128 A 
ATOM     17  C   LIG    1       25.488 -29.614   6.231  0.00  0.00    +0.047 A 
ATOM     18  C   LIG    1       24.830 -30.736   5.731  0.00  0.00    +0.024 A 
ATOM     19  C   LIG    1       24.078 -31.561   6.579  0.00  0.00    +0.049 A 
ATOM     20 CL   LIG    1       23.218 -32.858   5.821  0.00  0.00    -0.083 Cl
ATOM     21  C   LIG    1       21.464 -32.028  10.908  0.00  0.00    +0.135 C 
ATOM     22  C   LIG    1       23.991 -31.287   7.958  0.00  0.00    +0.011 A 
ENDROOT
BRANCH  10  23
ATOM     23  C   LIG    1       19.518 -28.272  15.061  0.00  0.00    +0.248 C 
ATOM     24  O   LIG    1       18.377 -28.108  15.500  0.00  0.00    -0.270 OA
ATOM     25  N   LIG    1       20.525 -27.473  15.494  0.00  0.00    -0.325 N 
ATOM     26  H   LIG    1       21.466 -27.563  15.124  0.00  0.00    +0.145 HD
ATOM     27  H   LIG    1       20.316 -26.753  16.170  0.00  0.00    +0.145 HD
ENDBRANCH  10  23
BRANCH   8  28
ATOM     28  N   LIG    1       18.534 -32.166  12.099  0.00  0.00    -0.298 NA
ATOM     29  C   LIG    1       18.071 -33.434  12.671  0.00  0.00    +0.105 C 
ATOM     30  C   LIG    1       17.410 -31.268  11.830  0.00  0.00    +0.105 C 
ENDBRANCH   8  28
BRANCH   5  31
ATOM     31  O   LIG    1       23.832 -28.919  12.509  0.00  0.00    -0.507 OA
ATOM     32  H   LIG    1       24.722 -28.963  12.085  0.00  0.00    +0.292 HD
ENDBRANCH   5  31
BRANCH   6  33
ATOM     33  O   LIG    1       22.256 -30.854  13.710  0.00  0.00    -0.373 OA
ATOM     34  H   LIG    1       21.481 -30.992  14.293  0.00  0.00    +0.211 HD
ENDBRANCH   6  33
BRANCH   9  35
ATOM     35  O   LIG    1       18.393 -30.953  14.870  0.00  0.00    -0.509 OA
ATOM     36  H   LIG    1       17.527 -30.995  14.424  0.00  0.00    +0.292 HD
ENDBRANCH   9  35
BRANCH  16  37
ATOM     37  O   LIG    1       25.964 -28.164   8.047  0.00  0.00    -0.506 OA
ATOM     38  H   LIG    1       26.575 -28.365   8.774  0.00  0.00    +0.292 HD
ENDBRANCH  16  37
BRANCH  21  39
ATOM     39  O   LIG    1       20.526 -32.813  10.162  0.00  0.00    -0.390 OA
ATOM     40  H   LIG    1       19.942 -32.211   9.658  0.00  0.00    +0.210 HD
ENDBRANCH  21  39
TORSDOF 7
ENDMDL
MODEL 5
REMARK VINA RESULT:      -5.1      2.196      4.122
REMARK  Name = *****
REMARK                            x       y       z     vdW  Elec       q    Type
REMARK                         _______ _______ _______ _____ _____    ______ ____
ROOT
ATOM      1  C   LIG    1       24.506 -31.749  10.819  0.00  0.00    +0.013 C 
ATOM      2  C   LIG    1       24.036 -30.561  11.236  0.00  0.00    -0.035 C 
ATOM      3  C   LIG    1       22.590 -30.240  11.611  0.00  0.00    +0.085 C 
ATOM      4  C   LIG    1       22.534 -29.805  13.061  0.00  0.00    +0.050 C 
ATOM      5  C   LIG    1       21.456 -30.002  13.845  0.00  0.00    +0.141 C 
ATOM      6  C   LIG    1       20.190 -30.634  13.339  0.00  0.00    +0.192 C 
ATOM      7  C   LIG    1       20.135 -30.862  11.820  0.00  0.00    +0.090 C 
ATOM      8  C   LIG    1       18.889 -31.761  11.502  0.00  0.00    +0.132 C 
ATOM      9  C   LIG    1       17.658 -31.403  12.384  0.00  0.00    +0.127 C 
ATOM     10  C   LIG    1       17.659 -30.462  13.361  0.00  0.00    +0.121 C 
ATOM     11  C   LIG    1       18.951 -29.741  13.539  0.00  0.00    +0.211 C 
ATOM     12  O   LIG    1       18.999 -28.517  13.625  0.00  0.00    -0.288 OA
ATOM     13  C   LIG    1       23.765 -29.202  13.661  0.00  0.00    +0.197 C 
ATOM     14  O   LIG    1       23.876 -29.104  14.881  0.00  0.00    -0.287 OA
ATOM     15  C   LIG    1       24.824 -28.754  12.724  0.00  0.00    +0.072 A 
ATOM     16  C   LIG    1       25.668 -27.682  13.059  0.00  0.00    +0.128 A 
ATOM     17  C   LIG    1       26.650 -27.254  12.171  0.00  0.00    +0.047 A 
ATOM     18  C   LIG    1       26.773 -27.882  10.934  0.00  0.00    +0.024 A 
ATOM     19  C   LIG    1       25.933 -28.950  10.587  0.00  0.00    +0.049 A 
ATOM     20 CL   LIG    1       26.109 -29.573   8.982  0.00  0.00    -0.083 Cl
ATOM     21  C   LIG    1       21.508 -31.338  11.295  0.00  0.00    +0.135 C 
ATOM     22  C   LIG    1       24.963 -29.425  11.491  0.00  0.00    +0.011 A 
ENDROOT
BRANCH  10  23
ATOM     23  C   LIG    1       16.501 -30.116  14.223  0.00  0.00    +0.248 C 
ATOM     24  O   LIG    1       15.911 -30.940  14.926  0.00  0.00    -0.270 OA
ATOM     25  N   LIG    1       16.057 -28.835  14.177  0.00  0.00    -0.325 N 
ATOM     26  H   LIG    1       16.501 -28.144  13.580  0.00  0.00    +0.145 HD
ATOM     27  H   LIG    1       15.245 -28.584  14.721  0.00  0.00    +0.145 HD
ENDBRANCH  10  23
BRANCH   8  28
ATOM     28  N   LIG    1       18.638 -31.788  10.035  0.00  0.00    -0.298 NA
ATOM     29  C   LIG    1       18.380 -33.127   9.500  0.00  0.00    +0.105 C 
ATOM     30  C   LIG    1       17.650 -30.825   9.547  0.00  0.00    +0.105 C 
ENDBRANCH   8  28
BRANCH   5  31
ATOM     31  O   LIG    1       21.444 -29.762  15.213  0.00  0.00    -0.507 OA
ATOM     32  H   LIG    1       21.972 -28.946  15.389  0.00  0.00    +0.292 HD
ENDBRANCH   5  31
BRANCH   6  33
ATOM     33  O   LIG    1       20.087 -31.874  14.043  0.00  0.00    -0.373 OA
ATOM     34  H   LIG    1       20.865 -31.896  14.640  0.00  0.00    +0.211 HD
ENDBRANCH   6  33
BRANCH   9  35
ATOM     35  O   LIG    1       16.527 -32.183  12.169  0.00  0.00    -0.509 OA
ATOM     36  H   LIG    1       16.149 -31.891  11.320  0.00  0.00    +0.292 HD
ENDBRANCH   9  35
BRANCH  16  37
ATOM     37  O   LIG    1       25.508 -27.012  14.237  0.00  0.00    -0.506 OA
ATOM     38  H   LIG    1       24.732 -26.430  14.196  0.00  0.00    +0.292 HD
ENDBRANCH  16  37
BRANCH  21  39
ATOM     39  O   LIG    1       21.475 -31.526   9.875  0.00  0.00    -0.390 OA
ATOM     40  H   LIG    1       21.629 -30.663   9.440  0.00  0.00    +0.210 HD
ENDBRANCH  21  39
TORSDOF 7
ENDMDL
MODEL 6
REMARK VINA RESULT:      -5.1      2.873      6.618
REMARK  Name = *****
REMARK                            x       y       z     vdW  Elec       q    Type
REMARK                         _______ _______ _______ _____ _____    ______ ____
ROOT
ATOM      1  C   LIG    1       22.936 -28.606  15.489  0.00  0.00    +0.013 C 
ATOM      2  C   LIG    1       22.186 -28.698  14.378  0.00  0.00    -0.035 C 
ATOM      3  C   LIG    1       22.637 -29.243  13.023  0.00  0.00    +0.085 C 
ATOM      4  C   LIG    1       21.791 -30.446  12.661  0.00  0.00    +0.050 C 
ATOM      5  C   LIG    1       22.245 -31.460  11.899  0.00  0.00    +0.141 C 
ATOM      6  C   LIG    1       23.624 -31.470  11.301  0.00  0.00    +0.192 C 
ATOM      7  C   LIG    1       24.411 -30.159  11.451  0.00  0.00    +0.090 C 
ATOM      8  C   LIG    1       25.897 -30.425  11.023  0.00  0.00    +0.132 C 
ATOM      9  C   LIG    1       26.001 -31.379   9.798  0.00  0.00    +0.127 C 
ATOM     10  C   LIG    1       24.941 -31.969   9.190  0.00  0.00    +0.121 C 
ATOM     11  C   LIG    1       23.612 -31.622   9.768  0.00  0.00    +0.211 C 
ATOM     12  O   LIG    1       22.668 -31.289   9.056  0.00  0.00    -0.288 OA
ATOM     13  C   LIG    1       20.417 -30.541  13.247  0.00  0.00    +0.197 C 
ATOM     14  O   LIG    1       19.808 -31.608  13.231  0.00  0.00    -0.287 OA
ATOM     15  C   LIG    1       19.851 -29.307  13.846  0.00  0.00    +0.072 A 
ATOM     16  C   LIG    1       18.465 -29.084  13.849  0.00  0.00    +0.128 A 
ATOM     17  C   LIG    1       17.939 -27.919  14.398  0.00  0.00    +0.047 A 
ATOM     18  C   LIG    1       18.803 -26.961  14.923  0.00  0.00    +0.024 A 
ATOM     19  C   LIG    1       20.189 -27.170  14.921  0.00  0.00    +0.049 A 
ATOM     20 CL   LIG    1       21.163 -25.861  15.498  0.00  0.00    -0.083 Cl
ATOM     21  C   LIG    1       24.172 -29.542  12.847  0.00  0.00    +0.135 C 
ATOM     22  C   LIG    1       20.736 -28.363  14.410  0.00  0.00    +0.011 A 
ENDROOT
BRANCH  10  23
ATOM     23  C   LIG    1       25.020 -32.893   8.031  0.00  0.00    +0.248 C 
ATOM     24  O   LIG    1       25.907 -32.832   7.177  0.00  0.00    -0.270 OA
ATOM     25  N   LIG    1       24.025 -33.806   7.901  0.00  0.00    -0.325 N 
ATOM     26  H   LIG    1       23.263 -33.855   8.570  0.00  0.00    +0.145 HD
ATOM     27  H   LIG    1       24.031 -34.418   7.099  0.00  0.00    +0.145 HD
ENDBRANCH  10  23
BRANCH   8  28
ATOM     28  N   LIG    1       26.631 -29.136  10.894  0.00  0.00    -0.298 NA
ATOM     29  C   LIG    1       27.975 -29.156  11.476  0.00  0.00    +0.105 C 
ATOM     30  C   LIG    1       26.645 -28.551   9.553  0.00  0.00    +0.105 C 
ENDBRANCH   8  28
BRANCH   5  31
ATOM     31  O   LIG    1       21.547 -32.643  11.694  0.00  0.00    -0.507 OA
ATOM     32  H   LIG    1       22.197 -33.351  11.467  0.00  0.00    +0.292 HD
ENDBRANCH   5  31
BRANCH   6  33
ATOM     33  O   LIG    1       24.303 -32.548  11.949  0.00  0.00    -0.373 OA
ATOM     34  H   LIG    1       25.241 -32.459  11.680  0.00  0.00    +0.211 HD
ENDBRANCH   6  33
BRANCH   9  35
ATOM     35  O   LIG    1       27.295 -31.677   9.386  0.00  0.00    -0.509 OA
ATOM     36  H   LIG    1       27.348 -31.426   8.446  0.00  0.00    +0.292 HD
ENDBRANCH   9  35
BRANCH  16  37
ATOM     37  O   LIG    1       17.615 -29.982  13.271  0.00  0.00    -0.506 OA
ATOM     38  H   LIG    1       17.159 -29.582  12.513  0.00  0.00    +0.292 HD
ENDBRANCH  16  37
BRANCH  21  39
ATOM     39  O   LIG    1       24.879 -28.304  12.987  0.00  0.00    -0.390 OA
ATOM     40  H   LIG    1       25.535 -28.234  12.264  0.00  0.00    +0.210 HD
ENDBRANCH  21  39
TORSDOF 7
ENDMDL
MODEL 7
REMARK VINA RESULT:      -4.8      2.321      3.206
REMARK  Name = *****
REMARK                            x       y       z     vdW  Elec       q    Type
REMARK                         _______ _______ _______ _____ _____    ______ ____
ROOT
ATOM      1  C   LIG    1       26.107 -25.736  12.900  0.00  0.00    +0.013 C 
ATOM      2  C   LIG    1       26.193 -26.861  13.631  0.00  0.00    -0.035 C 
ATOM      3  C   LIG    1       25.079 -27.883  13.855  0.00  0.00    +0.085 C 
ATOM      4  C   LIG    1       25.514 -29.226  13.306  0.00  0.00    +0.050 C 
ATOM      5  C   LIG    1       24.647 -30.137  12.825  0.00  0.00    +0.141 C 
ATOM      6  C   LIG    1       23.160 -29.922  12.828  0.00  0.00    +0.192 C 
ATOM      7  C   LIG    1       22.680 -28.680  13.595  0.00  0.00    +0.090 C 
ATOM      8  C   LIG    1       21.161 -28.458  13.274  0.00  0.00    +0.132 C 
ATOM      9  C   LIG    1       20.371 -29.796  13.183  0.00  0.00    +0.127 C 
ATOM     10  C   LIG    1       20.927 -31.028  13.310  0.00  0.00    +0.121 C 
ATOM     11  C   LIG    1       22.394 -31.031  13.573  0.00  0.00    +0.211 C 
ATOM     12  O   LIG    1       22.886 -31.722  14.461  0.00  0.00    -0.288 OA
ATOM     13  C   LIG    1       26.981 -29.510  13.227  0.00  0.00    +0.197 C 
ATOM     14  O   LIG    1       27.397 -30.437  12.535  0.00  0.00    -0.287 OA
ATOM     15  C   LIG    1       27.885 -28.623  14.000  0.00  0.00    +0.072 A 
ATOM     16  C   LIG    1       29.103 -29.106  14.503  0.00  0.00    +0.128 A 
ATOM     17  C   LIG    1       29.941 -28.277  15.241  0.00  0.00    +0.047 A 
ATOM     18  C   LIG    1       29.548 -26.966  15.500  0.00  0.00    +0.024 A 
ATOM     19  C   LIG    1       28.331 -26.473  15.007  0.00  0.00    +0.049 A 
ATOM     20 CL   LIG    1       27.903 -24.867  15.488  0.00  0.00    -0.083 Cl
ATOM     21  C   LIG    1       23.639 -27.493  13.354  0.00  0.00    +0.135 C 
ATOM     22  C   LIG    1       27.492 -27.286  14.221  0.00  0.00    +0.011 A 
ENDROOT
BRANCH  10  23
ATOM     23  C   LIG    1       20.195 -32.315  13.212  0.00  0.00    +0.248 C 
ATOM     24  O   LIG    1       19.074 -32.495  13.694  0.00  0.00    -0.270 OA
ATOM     25  N   LIG    1       20.836 -33.344  12.602  0.00  0.00    -0.325 N 
ATOM     26  H   LIG    1       21.772 -33.235  12.228  0.00  0.00    +0.145 HD
ATOM     27  H   LIG    1       20.377 -34.243  12.559  0.00  0.00    +0.145 HD
ENDBRANCH  10  23
BRANCH   8  28
ATOM     28  N   LIG    1       20.587 -27.438  14.193  0.00  0.00    -0.298 NA
ATOM     29  C   LIG    1       19.551 -26.602  13.582  0.00  0.00    +0.105 C 
ATOM     30  C   LIG    1       20.158 -27.938  15.500  0.00  0.00    +0.105 C 
ENDBRANCH   8  28
BRANCH   5  31
ATOM     31  O   LIG    1       25.034 -31.299  12.169  0.00  0.00    -0.507 OA
ATOM     32  H   LIG    1       26.019 -31.363  12.208  0.00  0.00    +0.292 HD
ENDBRANCH   5  31
BRANCH   6  33
ATOM     33  O   LIG    1       22.793 -29.840  11.449  0.00  0.00    -0.373 OA
ATOM     34  H   LIG    1       23.310 -29.088  11.089  0.00  0.00    +0.211 HD
ENDBRANCH   6  33
BRANCH   9  35
ATOM     35  O   LIG    1       19.022 -29.670  12.873  0.00  0.00    -0.509 OA
ATOM     36  H   LIG    1       18.546 -29.648  13.723  0.00  0.00    +0.292 HD
ENDBRANCH   9  35
BRANCH  16  37
ATOM     37  O   LIG    1       29.464 -30.410  14.319  0.00  0.00    -0.506 OA
ATOM     38  H   LIG    1       29.570 -30.605  13.373  0.00  0.00    +0.292 HD
ENDBRANCH  16  37
BRANCH  21  39
ATOM     39  O   LIG    1       23.216 -26.337  14.089  0.00  0.00    -0.390 OA
ATOM     40  H   LIG    1       22.239 -26.342  14.146  0.00  0.00    +0.210 HD
ENDBRANCH  21  39
TORSDOF 7
ENDMDL
MODEL 8
REMARK VINA RESULT:      -4.7      3.519      7.866
REMARK  Name = *****
REMARK                            x       y       z     vdW  Elec       q    Type
REMARK                         _______ _______ _______ _____ _____    ______ ____
ROOT
ATOM      1  C   LIG    1       19.511 -31.202  12.417  0.00  0.00    +0.013 C 
ATOM      2  C   LIG    1       19.805 -30.316  13.384  0.00  0.00    -0.035 C 
ATOM      3  C   LIG    1       21.204 -29.924  13.859  0.00  0.00    +0.085 C 
ATOM      4  C   LIG    1       21.414 -28.442  13.624  0.00  0.00    +0.050 C 
ATOM      5  C   LIG    1       22.625 -27.903  13.382  0.00  0.00    +0.141 C 
ATOM      6  C   LIG    1       23.887 -28.719  13.365  0.00  0.00    +0.192 C 
ATOM      7  C   LIG    1       23.733 -30.173  13.837  0.00  0.00    +0.090 C 
ATOM      8  C   LIG    1       25.058 -30.943  13.504  0.00  0.00    +0.132 C 
ATOM      9  C   LIG    1       26.326 -30.071  13.738  0.00  0.00    +0.127 C 
ATOM     10  C   LIG    1       26.306 -28.773  14.133  0.00  0.00    +0.121 C 
ATOM     11  C   LIG    1       24.946 -28.207  14.360  0.00  0.00    +0.211 C 
ATOM     12  O   LIG    1       24.677 -27.566  15.373  0.00  0.00    -0.288 OA
ATOM     13  C   LIG    1       20.207 -27.559  13.583  0.00  0.00    +0.197 C 
ATOM     14  O   LIG    1       20.284 -26.426  13.114  0.00  0.00    -0.287 OA
ATOM     15  C   LIG    1       18.940 -28.120  14.114  0.00  0.00    +0.072 A 
ATOM     16  C   LIG    1       17.973 -27.281  14.689  0.00  0.00    +0.128 A 
ATOM     17  C   LIG    1       16.793 -27.811  15.200  0.00  0.00    +0.047 A 
ATOM     18  C   LIG    1       16.590 -29.189  15.160  0.00  0.00    +0.024 A 
ATOM     19  C   LIG    1       17.551 -30.037  14.592  0.00  0.00    +0.049 A 
ATOM     20 CL   LIG    1       17.235 -31.735  14.700  0.00  0.00    -0.083 Cl
ATOM     21  C   LIG    1       22.409 -30.773  13.311  0.00  0.00    +0.135 C 
ATOM     22  C   LIG    1       18.731 -29.512  14.029  0.00  0.00    +0.011 A 
ENDROOT
BRANCH  10  23
ATOM     23  C   LIG    1       27.502 -27.921  14.347  0.00  0.00    +0.248 C 
ATOM     24  O   LIG    1       28.470 -28.273  15.024  0.00  0.00    -0.270 OA
ATOM     25  N   LIG    1       27.479 -26.678  13.803  0.00  0.00    -0.325 N 
ATOM     26  H   LIG    1       26.680 -26.349  13.272  0.00  0.00    +0.145 HD
ATOM     27  H   LIG    1       28.262 -26.062  13.970  0.00  0.00    +0.145 HD
ENDBRANCH  10  23
BRANCH   8  28
ATOM     28  N   LIG    1       25.062 -32.271  14.176  0.00  0.00    -0.298 NA
ATOM     29  C   LIG    1       25.479 -33.376  13.309  0.00  0.00    +0.105 C 
ATOM     30  C   LIG    1       25.752 -32.322  15.465  0.00  0.00    +0.105 C 
ENDBRANCH   8  28
BRANCH   5  31
ATOM     31  O   LIG    1       22.818 -26.581  13.002  0.00  0.00    -0.507 OA
ATOM     32  H   LIG    1       21.997 -26.264  12.555  0.00  0.00    +0.292 HD
ENDBRANCH   5  31
BRANCH   6  33
ATOM     33  O   LIG    1       24.344 -28.669  12.012  0.00  0.00    -0.373 OA
ATOM     34  H   LIG    1       25.077 -28.019  12.011  0.00  0.00    +0.211 HD
ENDBRANCH   6  33
BRANCH   9  35
ATOM     35  O   LIG    1       27.535 -30.688  13.435  0.00  0.00    -0.509 OA
ATOM     36  H   LIG    1       28.223 -30.193  13.913  0.00  0.00    +0.292 HD
ENDBRANCH   9  35
BRANCH  16  37
ATOM     37  O   LIG    1       18.194 -25.938  14.801  0.00  0.00    -0.506 OA
ATOM     38  H   LIG    1       18.824 -25.754  15.517  0.00  0.00    +0.292 HD
ENDBRANCH  16  37
BRANCH  21  39
ATOM     39  O   LIG    1       22.242 -32.121  13.769  0.00  0.00    -0.390 OA
ATOM     40  H   LIG    1       22.136 -32.110  14.742  0.00  0.00    +0.210 HD
ENDBRANCH  21  39
TORSDOF 7
ENDMDL
MODEL 9
REMARK VINA RESULT:      -4.5      2.894      7.063
REMARK  Name = *****
REMARK                            x       y       z     vdW  Elec       q    Type
REMARK                         _______ _______ _______ _____ _____    ______ ____
ROOT
ATOM      1  C   LIG    1       21.202 -30.586  15.411  0.00  0.00    +0.013 C 
ATOM      2  C   LIG    1       20.832 -30.460  14.126  0.00  0.00    -0.035 C 
ATOM      3  C   LIG    1       21.762 -30.424  12.914  0.00  0.00    +0.085 C 
ATOM      4  C   LIG    1       21.438 -31.588  12.001  0.00  0.00    +0.050 C 
ATOM      5  C   LIG    1       22.358 -32.179  11.212  0.00  0.00    +0.141 C 
ATOM      6  C   LIG    1       23.782 -31.707  11.133  0.00  0.00    +0.192 C 
ATOM      7  C   LIG    1       24.075 -30.386  11.861  0.00  0.00    +0.090 C 
ATOM      8  C   LIG    1       25.630 -30.184  11.911  0.00  0.00    +0.132 C 
ATOM      9  C   LIG    1       26.330 -30.640  10.597  0.00  0.00    +0.127 C 
ATOM     10  C   LIG    1       25.692 -31.201   9.540  0.00  0.00    +0.121 C 
ATOM     11  C   LIG    1       24.217 -31.346   9.700  0.00  0.00    +0.211 C 
ATOM     12  O   LIG    1       23.437 -30.999   8.817  0.00  0.00    -0.288 OA
ATOM     13  C   LIG    1       20.052 -32.151  12.043  0.00  0.00    +0.197 C 
ATOM     14  O   LIG    1       19.816 -33.254  11.558  0.00  0.00    -0.287 OA
ATOM     15  C   LIG    1       19.009 -31.327  12.702  0.00  0.00    +0.072 A 
ATOM     16  C   LIG    1       17.669 -31.408  12.290  0.00  0.00    +0.128 A 
ATOM     17  C   LIG    1       16.695 -30.624  12.898  0.00  0.00    +0.047 A 
ATOM     18  C   LIG    1       17.065 -29.735  13.905  0.00  0.00    +0.024 A 
ATOM     19  C   LIG    1       18.401 -29.641  14.322  0.00  0.00    +0.049 A 
ATOM     20 CL   LIG    1       18.753 -28.424  15.500  0.00  0.00    -0.083 Cl
ATOM     21  C   LIG    1       23.306 -30.326  13.200  0.00  0.00    +0.135 C 
ATOM     22  C   LIG    1       19.392 -30.460  13.747  0.00  0.00    +0.011 A 
ENDROOT
BRANCH  10  23
ATOM     23  C   LIG    1       26.342 -31.656   8.286  0.00  0.00    +0.248 C 
ATOM     24  O   LIG    1       27.176 -32.564   8.248  0.00  0.00    -0.270 OA
ATOM     25  N   LIG    1       26.025 -30.989   7.148  0.00  0.00    -0.325 N 
ATOM     26  H   LIG    1       25.369 -30.214   7.157  0.00  0.00    +0.145 HD
ATOM     27  H   LIG    1       26.485 -31.250   6.289  0.00  0.00    +0.145 HD
ENDBRANCH  10  23
BRANCH   8  28
ATOM     28  N   LIG    1       25.952 -28.802  12.362  0.00  0.00    -0.298 NA
ATOM     29  C   LIG    1       26.870 -28.748  13.503  0.00  0.00    +0.105 C 
ATOM     30  C   LIG    1       26.367 -27.877  11.307  0.00  0.00    +0.105 C 
ENDBRANCH   8  28
BRANCH   5  31
ATOM     31  O   LIG    1       22.123 -33.345  10.495  0.00  0.00    -0.507 OA
ATOM     32  H   LIG    1       22.661 -34.069  10.897  0.00  0.00    +0.292 HD
ENDBRANCH   5  31
BRANCH   6  33
ATOM     33  O   LIG    1       24.557 -32.774  11.685  0.00  0.00    -0.373 OA
ATOM     34  H   LIG    1       24.939 -33.240  10.912  0.00  0.00    +0.211 HD
ENDBRANCH   6  33
BRANCH   9  35
ATOM     35  O   LIG    1       27.714 -30.512  10.588  0.00  0.00    -0.509 OA
ATOM     36  H   LIG    1       28.041 -31.122   9.903  0.00  0.00    +0.292 HD
ENDBRANCH   9  35
BRANCH  16  37
ATOM     37  O   LIG    1       17.307 -32.221  11.255  0.00  0.00    -0.506 OA
ATOM     38  H   LIG    1       17.378 -33.155  11.512  0.00  0.00    +0.292 HD
ENDBRANCH  16  37
BRANCH  21  39
ATOM     39  O   LIG    1       23.550 -29.084  13.874  0.00  0.00    -0.390 OA
ATOM     40  H   LIG    1       24.296 -28.630  13.434  0.00  0.00    +0.210 HD
ENDBRANCH  21  39
TORSDOF 7
ENDMDL
