MODEL 1
REMARK VINA RESULT:      -6.0      0.000      0.000
REMARK  Name = *****
REMARK                            x       y       z     vdW  Elec       q    Type
REMARK                         _______ _______ _______ _____ _____    ______ ____
ROOT
ATOM      1  C   LIG    1       26.075 -19.099   3.803  0.00  0.00    +0.069 C 
ENDROOT
BRANCH   1   2
ATOM      2  C   LIG    1       24.745 -19.715   4.270  0.00  0.00    -0.038 A 
ATOM      3  C   LIG    1       23.558 -18.964   4.228  0.00  0.00    +0.004 A 
ATOM      4  C   LIG    1       22.347 -19.507   4.679  0.00  0.00    +0.000 A 
ATOM      5  C   LIG    1       22.300 -20.807   5.177  0.00  0.00    +0.000 A 
ATOM      6  C   LIG    1       23.460 -21.572   5.211  0.00  0.00    +0.000 A 
ATOM      7  C   LIG    1       24.665 -21.035   4.753  0.00  0.00    +0.004 A 
ENDBRANCH   1   2
BRANCH   1   8
ATOM      8  C   LIG    1       27.170 -19.178   4.867  0.00  0.00    +0.049 A 
ATOM      9  N   LIG    1       28.295 -18.435   4.683  0.00  0.00    -0.259 NA
ATOM     10  C   LIG    1       29.278 -18.537   5.609  0.00  0.00    +0.111 A 
ATOM     11  C   LIG    1       29.220 -19.374   6.710  0.00  0.00    +0.020 A 
ATOM     12  C   LIG    1       28.079 -20.143   6.882  0.00  0.00    +0.003 A 
ATOM     13  C   LIG    1       27.037 -20.041   5.958  0.00  0.00    +0.024 A 
ENDBRANCH   1   8
BRANCH   1  14
ATOM     14  C   LIG    1       25.883 -17.644   3.291  0.00  0.00    +0.029 C 
BRANCH  14  15
ATOM     15  C   LIG    1       27.014 -16.672   3.664  0.00  0.00    +0.085 C 
BRANCH  15  17
ATOM     16  C   LIG    1       25.402 -14.829   3.619  0.00  0.00    +0.104 C 
ATOM     17  N   LIG    1       26.749 -15.275   3.248  0.00  0.00    -0.308 NA
ATOM     18  C   LIG    1       27.747 -14.385   3.850  0.00  0.00    +0.104 C 
ENDBRANCH  15  17
ENDBRANCH  14  15
ENDBRANCH   1  14
TORSDOF 5
ENDMDL
MODEL 2
REMARK VINA RESULT:      -5.3      3.054      5.383
REMARK  Name = *****
REMARK                            x       y       z     vdW  Elec       q    Type
REMARK                         _______ _______ _______ _____ _____    ______ ____
ROOT
ATOM      1  C   LIG    1       25.302 -15.194   4.117  0.00  0.00    +0.069 C 
ENDROOT
BRANCH   1   2
ATOM      2  C   LIG    1       24.281 -16.345   4.084  0.00  0.00    -0.038 A 
ATOM      3  C   LIG    1       22.944 -16.124   4.456  0.00  0.00    +0.004 A 
ATOM      4  C   LIG    1       22.015 -17.173   4.456  0.00  0.00    +0.000 A 
ATOM      5  C   LIG    1       22.402 -18.459   4.086  0.00  0.00    +0.000 A 
ATOM      6  C   LIG    1       23.716 -18.694   3.699  0.00  0.00    +0.000 A 
ATOM      7  C   LIG    1       24.640 -17.648   3.688  0.00  0.00    +0.004 A 
ENDBRANCH   1   2
BRANCH   1   8
ATOM      8  C   LIG    1       24.726 -13.877   3.597  0.00  0.00    +0.049 A 
ATOM      9  N   LIG    1       24.805 -13.626   2.263  0.00  0.00    -0.259 NA
ATOM     10  C   LIG    1       24.328 -12.442   1.812  0.00  0.00    +0.111 A 
ATOM     11  C   LIG    1       23.796 -11.460   2.631  0.00  0.00    +0.020 A 
ATOM     12  C   LIG    1       23.735 -11.713   3.993  0.00  0.00    +0.003 A 
ATOM     13  C   LIG    1       24.196 -12.936   4.485  0.00  0.00    +0.024 A 
ENDBRANCH   1   8
BRANCH   1  14
ATOM     14  C   LIG    1       26.614 -15.573   3.376  0.00  0.00    +0.029 C 
BRANCH  14  15
ATOM     15  C   LIG    1       27.895 -14.977   3.983  0.00  0.00    +0.085 C 
BRANCH  15  17
ATOM     16  C   LIG    1       27.652 -13.123   5.564  0.00  0.00    +0.104 C 
ATOM     17  N   LIG    1       27.832 -13.507   4.161  0.00  0.00    -0.308 NA
ATOM     18  C   LIG    1       29.055 -12.895   3.634  0.00  0.00    +0.104 C 
ENDBRANCH  15  17
ENDBRANCH  14  15
ENDBRANCH   1  14
TORSDOF 5
ENDMDL
MODEL 3
REMARK VINA RESULT:      -5.2      1.520      5.318
REMARK  Name = *****
REMARK                            x       y       z     vdW  Elec       q    Type
REMARK                         _______ _______ _______ _____ _____    ______ ____
ROOT
ATOM      1  C   LIG    1       26.096 -17.944   3.469  0.00  0.00    +0.069 C 
ENDROOT
BRANCH   1   2
ATOM      2  C   LIG    1       27.119 -18.514   4.466  0.00  0.00    -0.038 A 
ATOM      3  C   LIG    1       28.346 -17.864   4.680  0.00  0.00    +0.004 A 
ATOM      4  C   LIG    1       29.296 -18.393   5.565  0.00  0.00    +0.000 A 
ATOM      5  C   LIG    1       29.037 -19.578   6.251  0.00  0.00    +0.000 A 
ATOM      6  C   LIG    1       27.822 -20.227   6.066  0.00  0.00    +0.000 A 
ATOM      7  C   LIG    1       26.872 -19.695   5.192  0.00  0.00    +0.004 A 
ENDBRANCH   1   2
BRANCH   1   8
ATOM      8  C   LIG    1       26.060 -16.415   3.467  0.00  0.00    +0.049 A 
ATOM      9  N   LIG    1       27.234 -15.748   3.301  0.00  0.00    -0.259 NA
ATOM     10  C   LIG    1       27.202 -14.394   3.338  0.00  0.00    +0.111 A 
ATOM     11  C   LIG    1       26.055 -13.653   3.567  0.00  0.00    +0.020 A 
ATOM     12  C   LIG    1       24.866 -14.339   3.754  0.00  0.00    +0.003 A 
ATOM     13  C   LIG    1       24.861 -15.734   3.696  0.00  0.00    +0.024 A 
ENDBRANCH   1   8
BRANCH   1  14
ATOM     14  C   LIG    1       24.681 -18.546   3.694  0.00  0.00    +0.029 C 
BRANCH  14  15
ATOM     15  C   LIG    1       24.540 -20.027   3.307  0.00  0.00    +0.085 C 
BRANCH  15  17
ATOM     16  C   LIG    1       24.186 -21.572   5.174  0.00  0.00    +0.104 C 
ATOM     17  N   LIG    1       23.550 -20.758   4.134  0.00  0.00    -0.308 NA
ATOM     18  C   LIG    1       22.624 -19.803   4.751  0.00  0.00    +0.104 C 
ENDBRANCH  15  17
ENDBRANCH  14  15
ENDBRANCH   1  14
TORSDOF 5
ENDMDL
MODEL 4
REMARK VINA RESULT:      -5.1      2.914      5.824
REMARK  Name = *****
REMARK                            x       y       z     vdW  Elec       q    Type
REMARK                         _______ _______ _______ _____ _____    ______ ____
ROOT
ATOM      1  C   LIG    1       25.557 -15.440   3.263  0.00  0.00    +0.069 C 
ENDROOT
BRANCH   1   2
ATOM      2  C   LIG    1       24.916 -14.042   3.287  0.00  0.00    -0.038 A 
ATOM      3  C   LIG    1       24.855 -13.265   2.119  0.00  0.00    +0.004 A 
ATOM      4  C   LIG    1       24.298 -11.979   2.138  0.00  0.00    +0.000 A 
ATOM      5  C   LIG    1       23.793 -11.447   3.323  0.00  0.00    +0.000 A 
ATOM      6  C   LIG    1       23.830 -12.206   4.486  0.00  0.00    +0.000 A 
ATOM      7  C   LIG    1       24.374 -13.492   4.465  0.00  0.00    +0.004 A 
ENDBRANCH   1   2
BRANCH   1   8
ATOM      8  C   LIG    1       24.587 -16.544   3.685  0.00  0.00    +0.049 A 
ATOM      9  N   LIG    1       24.951 -17.836   3.459  0.00  0.00    -0.259 NA
ATOM     10  C   LIG    1       24.072 -18.809   3.800  0.00  0.00    +0.111 A 
ATOM     11  C   LIG    1       22.817 -18.566   4.331  0.00  0.00    +0.020 A 
ATOM     12  C   LIG    1       22.445 -17.247   4.541  0.00  0.00    +0.003 A 
ATOM     13  C   LIG    1       23.338 -16.222   4.224  0.00  0.00    +0.024 A 
ENDBRANCH   1   8
BRANCH   1  14
ATOM     14  C   LIG    1       26.866 -15.483   4.100  0.00  0.00    +0.029 C 
BRANCH  14  15
ATOM     15  C   LIG    1       27.932 -14.455   3.686  0.00  0.00    +0.085 C 
BRANCH  15  17
ATOM     16  C   LIG    1       27.556 -13.331   5.829  0.00  0.00    +0.104 C 
ATOM     17  N   LIG    1       27.804 -13.159   4.395  0.00  0.00    -0.308 NA
ATOM     18  C   LIG    1       29.023 -12.368   4.196  0.00  0.00    +0.104 C 
ENDBRANCH  15  17
ENDBRANCH  14  15
ENDBRANCH   1  14
TORSDOF 5
ENDMDL
MODEL 5
REMARK VINA RESULT:      -4.9      1.616      5.299
REMARK  Name = *****
REMARK                            x       y       z     vdW  Elec       q    Type
REMARK                         _______ _______ _______ _____ _____    ______ ____
ROOT
ATOM      1  C   LIG    1       25.728 -17.922   3.336  0.00  0.00    +0.069 C 
ENDROOT
BRANCH   1   2
ATOM      2  C   LIG    1       25.423 -16.426   3.526  0.00  0.00    -0.038 A 
ATOM      3  C   LIG    1       26.425 -15.463   3.323  0.00  0.00    +0.004 A 
ATOM      4  C   LIG    1       26.164 -14.100   3.521  0.00  0.00    +0.000 A 
ATOM      5  C   LIG    1       24.899 -13.676   3.925  0.00  0.00    +0.000 A 
ATOM      6  C   LIG    1       23.890 -14.613   4.115  0.00  0.00    +0.000 A 
ATOM      7  C   LIG    1       24.147 -15.969   3.907  0.00  0.00    +0.004 A 
ENDBRANCH   1   2
BRANCH   1   8
ATOM      8  C   LIG    1       24.589 -18.824   3.813  0.00  0.00    +0.049 A 
ATOM      9  N   LIG    1       24.730 -20.168   3.659  0.00  0.00    -0.259 NA
ATOM     10  C   LIG    1       23.703 -20.961   4.048  0.00  0.00    +0.111 A 
ATOM     11  C   LIG    1       22.509 -20.483   4.560  0.00  0.00    +0.020 A 
ATOM     12  C   LIG    1       22.363 -19.111   4.697  0.00  0.00    +0.003 A 
ATOM     13  C   LIG    1       23.414 -18.269   4.329  0.00  0.00    +0.024 A 
ENDBRANCH   1   8
BRANCH   1  14
ATOM     14  C   LIG    1       27.080 -18.318   3.994  0.00  0.00    +0.029 C 
BRANCH  14  15
ATOM     15  C   LIG    1       26.987 -19.445   5.035  0.00  0.00    +0.085 C 
BRANCH  15  17
ATOM     16  C   LIG    1       29.223 -18.640   5.624  0.00  0.00    +0.104 C 
ATOM     17  N   LIG    1       28.287 -19.768   5.669  0.00  0.00    -0.308 NA
ATOM     18  C   LIG    1       28.069 -20.174   7.061  0.00  0.00    +0.104 C 
ENDBRANCH  15  17
ENDBRANCH  14  15
ENDBRANCH   1  14
TORSDOF 5
ENDMDL
MODEL 6
REMARK VINA RESULT:      -4.8      2.447      4.959
REMARK  Name = *****
REMARK                            x       y       z     vdW  Elec       q    Type
REMARK                         _______ _______ _______ _____ _____    ______ ____
ROOT
ATOM      1  C   LIG    1       25.668 -15.138   3.352  0.00  0.00    +0.069 C 
ENDROOT
BRANCH   1   2
ATOM      2  C   LIG    1       25.938 -16.631   3.612  0.00  0.00    -0.038 A 
ATOM      3  C   LIG    1       24.913 -17.578   3.457  0.00  0.00    +0.004 A 
ATOM      4  C   LIG    1       25.143 -18.936   3.719  0.00  0.00    +0.000 A 
ATOM      5  C   LIG    1       26.398 -19.370   4.140  0.00  0.00    +0.000 A 
ATOM      6  C   LIG    1       27.430 -18.450   4.284  0.00  0.00    +0.000 A 
ATOM      7  C   LIG    1       27.205 -17.099   4.012  0.00  0.00    +0.004 A 
ENDBRANCH   1   2
BRANCH   1   8
ATOM      8  C   LIG    1       26.762 -14.231   3.915  0.00  0.00    +0.049 A 
ATOM      9  N   LIG    1       26.642 -13.807   5.202  0.00  0.00    -0.259 NA
ATOM     10  C   LIG    1       27.594 -12.973   5.685  0.00  0.00    +0.111 A 
ATOM     11  C   LIG    1       28.661 -12.503   4.938  0.00  0.00    +0.020 A 
ATOM     12  C   LIG    1       28.768 -12.924   3.622  0.00  0.00    +0.003 A 
ATOM     13  C   LIG    1       27.816 -13.804   3.102  0.00  0.00    +0.024 A 
ENDBRANCH   1   8
BRANCH   1  14
ATOM     14  C   LIG    1       24.261 -14.716   3.861  0.00  0.00    +0.029 C 
BRANCH  14  15
ATOM     15  C   LIG    1       23.604 -13.573   3.069  0.00  0.00    +0.085 C 
BRANCH  15  17
ATOM     16  C   LIG    1       24.380 -11.558   1.913  0.00  0.00    +0.104 C 
ATOM     17  N   LIG    1       24.330 -12.286   3.185  0.00  0.00    -0.308 NA
ATOM     18  C   LIG    1       23.690 -11.450   4.207  0.00  0.00    +0.104 C 
ENDBRANCH  15  17
ENDBRANCH  14  15
ENDBRANCH   1  14
TORSDOF 5
ENDMDL
MODEL 7
REMARK VINA RESULT:      -4.8      1.521      5.383
REMARK  Name = *****
REMARK                            x       y       z     vdW  Elec       q    Type
REMARK                         _______ _______ _______ _____ _____    ______ ____
ROOT
ATOM      1  C   LIG    1       26.269 -17.888   3.503  0.00  0.00    +0.069 C 
ENDROOT
BRANCH   1   2
ATOM      2  C   LIG    1       27.243 -18.531   4.506  0.00  0.00    -0.038 A 
ATOM      3  C   LIG    1       26.892 -19.709   5.186  0.00  0.00    +0.004 A 
ATOM      4  C   LIG    1       27.762 -20.285   6.123  0.00  0.00    +0.000 A 
ATOM      5  C   LIG    1       28.994 -19.696   6.397  0.00  0.00    +0.000 A 
ATOM      6  C   LIG    1       29.366 -18.538   5.723  0.00  0.00    +0.000 A 
ATOM      7  C   LIG    1       28.505 -17.970   4.782  0.00  0.00    +0.004 A 
ENDBRANCH   1   2
BRANCH   1   8
ATOM      8  C   LIG    1       26.216 -16.365   3.621  0.00  0.00    +0.049 A 
ATOM      9  N   LIG    1       24.996 -15.765   3.609  0.00  0.00    -0.259 NA
ATOM     10  C   LIG    1       24.955 -14.412   3.676  0.00  0.00    +0.111 A 
ATOM     11  C   LIG    1       26.081 -13.607   3.722  0.00  0.00    +0.020 A 
ATOM     12  C   LIG    1       27.322 -14.224   3.716  0.00  0.00    +0.003 A 
ATOM     13  C   LIG    1       27.396 -15.617   3.673  0.00  0.00    +0.024 A 
ENDBRANCH   1   8
BRANCH   1  14
ATOM     14  C   LIG    1       24.850 -18.516   3.603  0.00  0.00    +0.029 C 
BRANCH  14  15
ATOM     15  C   LIG    1       24.821 -20.053   3.586  0.00  0.00    +0.085 C 
BRANCH  15  17
ATOM     16  C   LIG    1       23.924 -21.572   5.285  0.00  0.00    +0.104 C 
ATOM     17  N   LIG    1       23.605 -20.624   4.213  0.00  0.00    -0.308 NA
ATOM     18  C   LIG    1       22.770 -19.541   4.743  0.00  0.00    +0.104 C 
ENDBRANCH  15  17
ENDBRANCH  14  15
ENDBRANCH   1  14
TORSDOF 5
ENDMDL
MODEL 8
REMARK VINA RESULT:      -4.5      2.424      4.938
REMARK  Name = *****
REMARK                            x       y       z     vdW  Elec       q    Type
REMARK                         _______ _______ _______ _____ _____    ______ ____
ROOT
ATOM      1  C   LIG    1       25.616 -15.164   3.329  0.00  0.00    +0.069 C 
ENDROOT
BRANCH   1   2
ATOM      2  C   LIG    1       25.937 -16.638   3.634  0.00  0.00    -0.038 A 
ATOM      3  C   LIG    1       27.222 -17.014   4.061  0.00  0.00    +0.004 A 
ATOM      4  C   LIG    1       27.531 -18.357   4.313  0.00  0.00    +0.000 A 
ATOM      5  C   LIG    1       26.566 -19.347   4.145  0.00  0.00    +0.000 A 
ATOM      6  C   LIG    1       25.284 -18.993   3.740  0.00  0.00    +0.000 A 
ATOM      7  C   LIG    1       24.972 -17.654   3.498  0.00  0.00    +0.004 A 
ENDBRANCH   1   2
BRANCH   1   8
ATOM      8  C   LIG    1       26.729 -14.212   3.768  0.00  0.00    +0.049 A 
ATOM      9  N   LIG    1       27.685 -13.883   2.859  0.00  0.00    -0.259 NA
ATOM     10  C   LIG    1       28.689 -13.069   3.263  0.00  0.00    +0.111 A 
ATOM     11  C   LIG    1       28.817 -12.581   4.553  0.00  0.00    +0.020 A 
ATOM     12  C   LIG    1       27.850 -12.935   5.480  0.00  0.00    +0.003 A 
ATOM     13  C   LIG    1       26.788 -13.753   5.087  0.00  0.00    +0.024 A 
ENDBRANCH   1   8
BRANCH   1  14
ATOM     14  C   LIG    1       24.241 -14.745   3.921  0.00  0.00    +0.029 C 
BRANCH  14  15
ATOM     15  C   LIG    1       23.544 -13.592   3.182  0.00  0.00    +0.085 C 
BRANCH  15  17
ATOM     16  C   LIG    1       24.321 -11.599   1.991  0.00  0.00    +0.104 C 
ATOM     17  N   LIG    1       24.276 -12.307   3.274  0.00  0.00    -0.308 NA
ATOM     18  C   LIG    1       23.647 -11.454   4.288  0.00  0.00    +0.104 C 
ENDBRANCH  15  17
ENDBRANCH  14  15
ENDBRANCH   1  14
TORSDOF 5
ENDMDL
MODEL 9
REMARK VINA RESULT:      -3.1      1.552      4.692
REMARK  Name = *****
REMARK                            x       y       z     vdW  Elec       q    Type
REMARK                         _______ _______ _______ _____ _____    ______ ____
ROOT
ATOM      1  C   LIG    1       25.784 -18.023   4.078  0.00  0.00    +0.069 C 
ENDROOT
BRANCH   1   2
ATOM      2  C   LIG    1       25.874 -16.527   3.729  0.00  0.00    -0.038 A 
ATOM      3  C   LIG    1       24.734 -15.709   3.795  0.00  0.00    +0.004 A 
ATOM      4  C   LIG    1       24.801 -14.352   3.451  0.00  0.00    +0.000 A 
ATOM      5  C   LIG    1       26.006 -13.789   3.035  0.00  0.00    +0.000 A 
ATOM      6  C   LIG    1       27.148 -14.578   2.979  0.00  0.00    +0.000 A 
ATOM      7  C   LIG    1       27.085 -15.927   3.332  0.00  0.00    +0.004 A 
ENDBRANCH   1   2
BRANCH   1   8
ATOM      8  C   LIG    1       27.065 -18.561   4.716  0.00  0.00    +0.049 A 
ATOM      9  N   LIG    1       27.018 -19.780   5.316  0.00  0.00    -0.259 NA
ATOM     10  C   LIG    1       28.146 -20.236   5.912  0.00  0.00    +0.111 A 
ATOM     11  C   LIG    1       29.330 -19.522   5.974  0.00  0.00    +0.020 A 
ATOM     12  C   LIG    1       29.367 -18.271   5.377  0.00  0.00    +0.003 A 
ATOM     13  C   LIG    1       28.228 -17.784   4.733  0.00  0.00    +0.024 A 
ENDBRANCH   1   8
BRANCH   1  14
ATOM     14  C   LIG    1       25.361 -18.872   2.848  0.00  0.00    +0.029 C 
BRANCH  14  15
ATOM     15  C   LIG    1       24.152 -19.793   3.082  0.00  0.00    +0.085 C 
BRANCH  15  17
ATOM     16  C   LIG    1       22.316 -19.025   4.508  0.00  0.00    +0.104 C 
ATOM     17  N   LIG    1       23.610 -19.711   4.459  0.00  0.00    -0.308 NA
ATOM     18  C   LIG    1       23.475 -21.061   5.016  0.00  0.00    +0.104 C 
ENDBRANCH  15  17
ENDBRANCH  14  15
ENDBRANCH   1  14
TORSDOF 5
ENDMDL
