MODEL 1
REMARK VINA RESULT:      -7.7      0.000      0.000
REMARK  Name = *****
REMARK                            x       y       z     vdW  Elec       q    Type
REMARK                         _______ _______ _______ _____ _____    ______ ____
ROOT
ATOM      1  C   LIG    1       28.432 -19.843   6.427  0.00  0.00    +0.155 C 
ATOM      2  N   LIG    1       28.077 -21.136   7.006  0.00  0.00    -0.198 N 
ATOM      3  C   LIG    1       28.939 -21.741   8.049  0.00  0.00    +0.158 C 
ATOM      4  S   LIG    1       26.413 -21.303   7.352  0.00  0.00    +0.075 S 
ATOM      5  O   LIG    1       26.145 -22.699   7.632  0.00  0.00    -0.150 OA
ATOM      6  O   LIG    1       26.003 -20.254   8.257  0.00  0.00    -0.150 OA
ATOM      7  C   LIG    1       25.713 -20.947   5.782  0.00  0.00    +0.119 A 
ATOM      8  C   LIG    1       26.387 -20.024   4.986  0.00  0.00    +0.045 A 
ATOM      9  C   LIG    1       25.880 -19.783   3.699  0.00  0.00    +0.013 A 
ATOM     10  C   LIG    1       24.732 -20.443   3.246  0.00  0.00    +0.001 A 
ATOM     11  C   LIG    1       24.080 -21.362   4.066  0.00  0.00    +0.002 A 
ATOM     12  C   LIG    1       24.575 -21.627   5.340  0.00  0.00    +0.029 A 
ATOM     13  C   LIG    1       27.592 -19.331   5.492  0.00  0.00    +0.153 C 
ENDROOT
BRANCH   1  16
ATOM     14  N   LIG    1       29.678 -18.611   8.125  0.00  0.00    -0.260 N 
ATOM     15  H   LIG    1       28.907 -18.856   8.736  0.00  0.00    +0.157 HD
ATOM     16  C   LIG    1       29.718 -19.132   6.856  0.00  0.00    +0.269 C 
ATOM     17  O   LIG    1       30.679 -19.064   6.095  0.00  0.00    -0.268 OA
BRANCH  14  21
ATOM     18  C   LIG    1       32.607 -16.386  11.687  0.00  0.00    +0.053 C 
ATOM     19  C   LIG    1       32.049 -16.897  10.410  0.00  0.00    +0.008 A 
ATOM     20  S   LIG    1       30.444 -17.498  10.321  0.00  0.00    -0.057 S 
ATOM     21  C   LIG    1       30.721 -17.945   8.695  0.00  0.00    +0.165 A 
ATOM     22  N   LIG    1       31.881 -17.613   8.191  0.00  0.00    -0.233 NA
ATOM     23  C   LIG    1       32.642 -17.001   9.167  0.00  0.00    +0.123 A 
ENDBRANCH  14  21
ENDBRANCH   1  16
BRANCH  13  24
ATOM     24  O   LIG    1       27.802 -18.072   4.939  0.00  0.00    -0.504 OA
ATOM     25  H   LIG    1       26.972 -17.564   5.041  0.00  0.00    +0.292 HD
ENDBRANCH  13  24
TORSDOF 3
ENDMDL
MODEL 2
REMARK VINA RESULT:      -7.2      1.267      1.317
REMARK  Name = *****
REMARK                            x       y       z     vdW  Elec       q    Type
REMARK                         _______ _______ _______ _____ _____    ______ ____
ROOT
ATOM      1  C   LIG    1       27.436 -20.623   6.640  0.00  0.00    +0.155 C 
ATOM      2  N   LIG    1       26.635 -21.688   7.240  0.00  0.00    -0.198 N 
ATOM      3  C   LIG    1       27.163 -22.446   8.399  0.00  0.00    +0.158 C 
ATOM      4  S   LIG    1       24.983 -21.294   7.411  0.00  0.00    +0.075 S 
ATOM      5  O   LIG    1       24.256 -22.508   7.728  0.00  0.00    -0.150 OA
ATOM      6  O   LIG    1       24.854 -20.099   8.214  0.00  0.00    -0.150 OA
ATOM      7  C   LIG    1       24.574 -20.864   5.759  0.00  0.00    +0.119 A 
ATOM      8  C   LIG    1       25.575 -20.268   4.997  0.00  0.00    +0.045 A 
ATOM      9  C   LIG    1       25.287 -19.984   3.652  0.00  0.00    +0.013 A 
ATOM     10  C   LIG    1       24.032 -20.284   3.110  0.00  0.00    +0.001 A 
ATOM     11  C   LIG    1       23.050 -20.882   3.898  0.00  0.00    +0.002 A 
ATOM     12  C   LIG    1       23.321 -21.185   5.229  0.00  0.00    +0.029 A 
ATOM     13  C   LIG    1       26.890 -19.951   5.596  0.00  0.00    +0.153 C 
ENDROOT
BRANCH   1  16
ATOM     14  N   LIG    1       29.023 -19.019   7.569  0.00  0.00    -0.260 N 
ATOM     15  H   LIG    1       28.220 -18.407   7.644  0.00  0.00    +0.157 HD
ATOM     16  C   LIG    1       28.840 -20.320   7.171  0.00  0.00    +0.269 C 
ATOM     17  O   LIG    1       29.693 -21.201   7.221  0.00  0.00    -0.268 OA
BRANCH  14  21
ATOM     18  C   LIG    1       32.408 -17.064  10.876  0.00  0.00    +0.053 C 
ATOM     19  C   LIG    1       31.743 -17.611   9.668  0.00  0.00    +0.008 A 
ATOM     20  S   LIG    1       30.039 -17.808   9.606  0.00  0.00    -0.057 S 
ATOM     21  C   LIG    1       30.198 -18.550   8.075  0.00  0.00    +0.165 A 
ATOM     22  N   LIG    1       31.404 -18.592   7.573  0.00  0.00    -0.233 NA
ATOM     23  C   LIG    1       32.292 -18.043   8.477  0.00  0.00    +0.123 A 
ENDBRANCH  14  21
ENDBRANCH   1  16
BRANCH  13  24
ATOM     24  O   LIG    1       27.540 -18.870   5.008  0.00  0.00    -0.504 OA
ATOM     25  H   LIG    1       26.912 -18.452   4.386  0.00  0.00    +0.292 HD
ENDBRANCH  13  24
TORSDOF 3
ENDMDL
MODEL 3
REMARK VINA RESULT:      -6.5      7.772     10.454
REMARK  Name = *****
REMARK                            x       y       z     vdW  Elec       q    Type
REMARK                         _______ _______ _______ _____ _____    ______ ____
ROOT
ATOM      1  C   LIG    1       25.370 -28.700   6.805  0.00  0.00    +0.155 C 
ATOM      2  N   LIG    1       25.754 -29.260   8.099  0.00  0.00    -0.198 N 
ATOM      3  C   LIG    1       26.314 -28.378   9.150  0.00  0.00    +0.158 C 
ATOM      4  S   LIG    1       24.636 -30.392   8.718  0.00  0.00    +0.075 S 
ATOM      5  O   LIG    1       25.258 -31.085   9.829  0.00  0.00    -0.150 OA
ATOM      6  O   LIG    1       23.339 -29.767   8.843  0.00  0.00    -0.150 OA
ATOM      7  C   LIG    1       24.545 -31.530   7.385  0.00  0.00    +0.119 A 
ATOM      8  C   LIG    1       24.694 -31.010   6.102  0.00  0.00    +0.045 A 
ATOM      9  C   LIG    1       24.697 -31.916   5.029  0.00  0.00    +0.013 A 
ATOM     10  C   LIG    1       24.543 -33.289   5.251  0.00  0.00    +0.001 A 
ATOM     11  C   LIG    1       24.397 -33.780   6.548  0.00  0.00    +0.002 A 
ATOM     12  C   LIG    1       24.407 -32.899   7.626  0.00  0.00    +0.029 A 
ATOM     13  C   LIG    1       24.844 -29.553   5.892  0.00  0.00    +0.153 C 
ENDROOT
BRANCH   1  16
ATOM     14  N   LIG    1       24.440 -26.518   6.230  0.00  0.00    -0.260 N 
ATOM     15  H   LIG    1       23.544 -26.962   6.385  0.00  0.00    +0.157 HD
ATOM     16  C   LIG    1       25.590 -27.213   6.512  0.00  0.00    +0.269 C 
ATOM     17  O   LIG    1       26.718 -26.729   6.545  0.00  0.00    -0.268 OA
BRANCH  14  21
ATOM     18  C   LIG    1       23.241 -21.548   6.508  0.00  0.00    +0.053 C 
ATOM     19  C   LIG    1       23.807 -22.862   6.112  0.00  0.00    +0.008 A 
ATOM     20  S   LIG    1       23.202 -24.324   6.778  0.00  0.00    -0.057 S 
ATOM     21  C   LIG    1       24.422 -25.185   5.946  0.00  0.00    +0.165 A 
ATOM     22  N   LIG    1       25.191 -24.485   5.155  0.00  0.00    -0.233 NA
ATOM     23  C   LIG    1       24.834 -23.153   5.237  0.00  0.00    +0.123 A 
ENDBRANCH  14  21
ENDBRANCH   1  16
BRANCH  13  24
ATOM     24  O   LIG    1       24.376 -29.102   4.661  0.00  0.00    -0.504 OA
ATOM     25  H   LIG    1       24.157 -29.889   4.123  0.00  0.00    +0.292 HD
ENDBRANCH  13  24
TORSDOF 3
ENDMDL
MODEL 4
REMARK VINA RESULT:      -6.5      7.200      9.802
REMARK  Name = *****
REMARK                            x       y       z     vdW  Elec       q    Type
REMARK                         _______ _______ _______ _____ _____    ______ ____
ROOT
ATOM      1  C   LIG    1       25.364 -27.920   6.963  0.00  0.00    +0.155 C 
ATOM      2  N   LIG    1       24.339 -28.705   6.280  0.00  0.00    -0.198 N 
ATOM      3  C   LIG    1       23.721 -28.191   5.035  0.00  0.00    +0.158 C 
ATOM      4  S   LIG    1       24.691 -30.374   6.197  0.00  0.00    +0.075 S 
ATOM      5  O   LIG    1       23.491 -31.072   5.777  0.00  0.00    -0.150 OA
ATOM      6  O   LIG    1       25.956 -30.566   5.525  0.00  0.00    -0.150 OA
ATOM      7  C   LIG    1       24.935 -30.744   7.895  0.00  0.00    +0.119 A 
ATOM      8  C   LIG    1       25.485 -29.738   8.686  0.00  0.00    +0.045 A 
ATOM      9  C   LIG    1       25.620 -29.993  10.061  0.00  0.00    +0.013 A 
ATOM     10  C   LIG    1       25.224 -31.220  10.604  0.00  0.00    +0.001 A 
ATOM     11  C   LIG    1       24.675 -32.207   9.787  0.00  0.00    +0.002 A 
ATOM     12  C   LIG    1       24.519 -31.969   8.424  0.00  0.00    +0.029 A 
ATOM     13  C   LIG    1       25.907 -28.454   8.086  0.00  0.00    +0.153 C 
ENDROOT
BRANCH   1  16
ATOM     14  N   LIG    1       24.878 -25.541   6.722  0.00  0.00    -0.260 N 
ATOM     15  H   LIG    1       24.131 -25.721   7.382  0.00  0.00    +0.157 HD
ATOM     16  C   LIG    1       25.768 -26.544   6.427  0.00  0.00    +0.269 C 
ATOM     17  O   LIG    1       26.811 -26.399   5.798  0.00  0.00    -0.268 OA
BRANCH  14  21
ATOM     18  C   LIG    1       26.524 -20.693   6.743  0.00  0.00    +0.053 C 
ATOM     19  C   LIG    1       25.848 -21.971   6.410  0.00  0.00    +0.008 A 
ATOM     20  S   LIG    1       25.841 -23.284   7.515  0.00  0.00    -0.057 S 
ATOM     21  C   LIG    1       25.057 -24.245   6.339  0.00  0.00    +0.165 A 
ATOM     22  N   LIG    1       24.730 -23.647   5.224  0.00  0.00    -0.233 NA
ATOM     23  C   LIG    1       25.171 -22.339   5.264  0.00  0.00    +0.123 A 
ENDBRANCH  14  21
ENDBRANCH   1  16
BRANCH  13  24
ATOM     24  O   LIG    1       26.944 -27.820   8.763  0.00  0.00    -0.504 OA
ATOM     25  H   LIG    1       27.484 -28.514   9.192  0.00  0.00    +0.292 HD
ENDBRANCH  13  24
TORSDOF 3
ENDMDL
MODEL 5
REMARK VINA RESULT:      -6.1     11.024     13.262
REMARK  Name = *****
REMARK                            x       y       z     vdW  Elec       q    Type
REMARK                         _______ _______ _______ _____ _____    ______ ____
ROOT
ATOM      1  C   LIG    1       25.496 -30.664   9.827  0.00  0.00    +0.155 C 
ATOM      2  N   LIG    1       24.104 -30.332  10.118  0.00  0.00    -0.198 N 
ATOM      3  C   LIG    1       23.010 -31.083   9.456  0.00  0.00    +0.158 C 
ATOM      4  S   LIG    1       23.795 -30.044  11.772  0.00  0.00    +0.075 S 
ATOM      5  O   LIG    1       22.482 -29.442  11.892  0.00  0.00    -0.150 OA
ATOM      6  O   LIG    1       24.171 -31.208  12.541  0.00  0.00    -0.150 OA
ATOM      7  C   LIG    1       24.972 -28.787  12.113  0.00  0.00    +0.119 A 
ATOM      8  C   LIG    1       26.172 -28.840  11.409  0.00  0.00    +0.045 A 
ATOM      9  C   LIG    1       27.095 -27.801  11.616  0.00  0.00    +0.013 A 
ATOM     10  C   LIG    1       26.813 -26.761  12.508  0.00  0.00    +0.001 A 
ATOM     11  C   LIG    1       25.601 -26.734  13.199  0.00  0.00    +0.002 A 
ATOM     12  C   LIG    1       24.668 -27.747  12.995  0.00  0.00    +0.029 A 
ATOM     13  C   LIG    1       26.452 -29.956  10.479  0.00  0.00    +0.153 C 
ENDROOT
BRANCH   1  16
ATOM     14  N   LIG    1       26.329 -31.275   7.616  0.00  0.00    -0.260 N 
ATOM     15  H   LIG    1       26.588 -30.299   7.545  0.00  0.00    +0.157 HD
ATOM     16  C   LIG    1       25.832 -31.753   8.803  0.00  0.00    +0.269 C 
ATOM     17  O   LIG    1       25.661 -32.938   9.071  0.00  0.00    -0.268 OA
BRANCH  14  21
ATOM     18  C   LIG    1       26.507 -33.293   2.913  0.00  0.00    +0.053 C 
ATOM     19  C   LIG    1       26.721 -33.002   4.353  0.00  0.00    +0.008 A 
ATOM     20  S   LIG    1       25.698 -31.914   5.199  0.00  0.00    -0.057 S 
ATOM     21  C   LIG    1       26.692 -32.081   6.579  0.00  0.00    +0.165 A 
ATOM     22  N   LIG    1       27.674 -32.939   6.486  0.00  0.00    -0.233 NA
ATOM     23  C   LIG    1       27.688 -33.479   5.215  0.00  0.00    +0.123 A 
ENDBRANCH  14  21
ENDBRANCH   1  16
BRANCH  13  24
ATOM     24  O   LIG    1       27.803 -30.250  10.329  0.00  0.00    -0.504 OA
ATOM     25  H   LIG    1       28.092 -30.727  11.133  0.00  0.00    +0.292 HD
ENDBRANCH  13  24
TORSDOF 3
ENDMDL
MODEL 6
REMARK VINA RESULT:      -5.8      2.576      3.383
REMARK  Name = *****
REMARK                            x       y       z     vdW  Elec       q    Type
REMARK                         _______ _______ _______ _____ _____    ______ ____
ROOT
ATOM      1  C   LIG    1       27.103 -21.785   7.842  0.00  0.00    +0.155 C 
ATOM      2  N   LIG    1       25.910 -21.164   8.413  0.00  0.00    -0.198 N 
ATOM      3  C   LIG    1       26.038 -19.943   9.244  0.00  0.00    +0.158 C 
ATOM      4  S   LIG    1       24.589 -21.089   7.334  0.00  0.00    +0.075 S 
ATOM      5  O   LIG    1       23.403 -20.739   8.091  0.00  0.00    -0.150 OA
ATOM      6  O   LIG    1       24.977 -20.359   6.149  0.00  0.00    -0.150 OA
ATOM      7  C   LIG    1       24.434 -22.779   6.884  0.00  0.00    +0.119 A 
ATOM      8  C   LIG    1       25.608 -23.526   6.832  0.00  0.00    +0.045 A 
ATOM      9  C   LIG    1       25.494 -24.897   6.545  0.00  0.00    +0.013 A 
ATOM     10  C   LIG    1       24.242 -25.477   6.310  0.00  0.00    +0.001 A 
ATOM     11  C   LIG    1       23.084 -24.702   6.370  0.00  0.00    +0.002 A 
ATOM     12  C   LIG    1       23.175 -23.346   6.668  0.00  0.00    +0.029 A 
ATOM     13  C   LIG    1       26.920 -22.887   7.073  0.00  0.00    +0.153 C 
ENDROOT
BRANCH   1  16
ATOM     14  N   LIG    1       28.713 -19.968   7.595  0.00  0.00    -0.260 N 
ATOM     15  H   LIG    1       27.937 -19.458   7.193  0.00  0.00    +0.157 HD
ATOM     16  C   LIG    1       28.490 -21.209   8.139  0.00  0.00    +0.269 C 
ATOM     17  O   LIG    1       29.298 -21.839   8.815  0.00  0.00    -0.268 OA
BRANCH  14  21
ATOM     18  C   LIG    1       32.280 -16.918   9.643  0.00  0.00    +0.053 C 
ATOM     19  C   LIG    1       31.516 -17.824   8.750  0.00  0.00    +0.008 A 
ATOM     20  S   LIG    1       29.861 -18.171   9.045  0.00  0.00    -0.057 S 
ATOM     21  C   LIG    1       29.882 -19.283   7.747  0.00  0.00    +0.165 A 
ATOM     22  N   LIG    1       30.994 -19.359   7.065  0.00  0.00    -0.233 NA
ATOM     23  C   LIG    1       31.931 -18.515   7.629  0.00  0.00    +0.123 A 
ENDBRANCH  14  21
ENDBRANCH   1  16
BRANCH  13  24
ATOM     24  O   LIG    1       27.984 -23.504   6.422  0.00  0.00    -0.504 OA
ATOM     25  H   LIG    1       28.365 -24.161   7.038  0.00  0.00    +0.292 HD
ENDBRANCH  13  24
TORSDOF 3
ENDMDL
MODEL 7
REMARK VINA RESULT:      -5.7      4.481      8.547
REMARK  Name = *****
REMARK                            x       y       z     vdW  Elec       q    Type
REMARK                         _______ _______ _______ _____ _____    ______ ____
ROOT
ATOM      1  C   LIG    1       25.373 -23.431   6.218  0.00  0.00    +0.155 C 
ATOM      2  N   LIG    1       25.199 -22.611   5.021  0.00  0.00    -0.198 N 
ATOM      3  C   LIG    1       24.256 -23.040   3.961  0.00  0.00    +0.158 C 
ATOM      4  S   LIG    1       25.112 -20.936   5.339  0.00  0.00    +0.075 S 
ATOM      5  O   LIG    1       25.242 -20.227   4.082  0.00  0.00    -0.150 OA
ATOM      6  O   LIG    1       24.019 -20.676   6.248  0.00  0.00    -0.150 OA
ATOM      7  C   LIG    1       26.605 -20.691   6.228  0.00  0.00    +0.119 A 
ATOM      8  C   LIG    1       27.044 -21.745   7.025  0.00  0.00    +0.045 A 
ATOM      9  C   LIG    1       28.275 -21.592   7.685  0.00  0.00    +0.013 A 
ATOM     10  C   LIG    1       29.019 -20.415   7.549  0.00  0.00    +0.001 A 
ATOM     11  C   LIG    1       28.554 -19.377   6.743  0.00  0.00    +0.002 A 
ATOM     12  C   LIG    1       27.344 -19.515   6.068  0.00  0.00    +0.029 A 
ATOM     13  C   LIG    1       26.234 -22.975   7.162  0.00  0.00    +0.153 C 
ENDROOT
BRANCH   1  16
ATOM     14  N   LIG    1       25.394 -25.870   6.142  0.00  0.00    -0.260 N 
ATOM     15  H   LIG    1       26.399 -25.766   6.066  0.00  0.00    +0.157 HD
ATOM     16  C   LIG    1       24.621 -24.757   6.361  0.00  0.00    +0.269 C 
ATOM     17  O   LIG    1       23.429 -24.772   6.655  0.00  0.00    -0.268 OA
BRANCH  14  21
ATOM     18  C   LIG    1       24.338 -30.507   8.038  0.00  0.00    +0.053 C 
ATOM     19  C   LIG    1       24.462 -29.315   7.163  0.00  0.00    +0.008 A 
ATOM     20  S   LIG    1       25.470 -27.996   7.598  0.00  0.00    -0.057 S 
ATOM     21  C   LIG    1       24.915 -27.143   6.225  0.00  0.00    +0.165 A 
ATOM     22  N   LIG    1       24.103 -27.788   5.430  0.00  0.00    -0.233 NA
ATOM     23  C   LIG    1       23.849 -29.039   5.957  0.00  0.00    +0.123 A 
ENDBRANCH  14  21
ENDBRANCH   1  16
BRANCH  13  24
ATOM     24  O   LIG    1       26.408 -23.643   8.370  0.00  0.00    -0.504 OA
ATOM     25  H   LIG    1       27.350 -23.560   8.619  0.00  0.00    +0.292 HD
ENDBRANCH  13  24
TORSDOF 3
ENDMDL
MODEL 8
REMARK VINA RESULT:      -5.7     10.607     13.537
REMARK  Name = *****
REMARK                            x       y       z     vdW  Elec       q    Type
REMARK                         _______ _______ _______ _____ _____    ______ ____
ROOT
ATOM      1  C   LIG    1       23.116 -28.283  13.202  0.00  0.00    +0.155 C 
ATOM      2  N   LIG    1       23.992 -27.114  13.229  0.00  0.00    -0.198 N 
ATOM      3  C   LIG    1       23.684 -25.980  14.132  0.00  0.00    +0.158 C 
ATOM      4  S   LIG    1       25.655 -27.499  13.203  0.00  0.00    +0.075 S 
ATOM      5  O   LIG    1       26.399 -26.284  12.933  0.00  0.00    -0.150 OA
ATOM      6  O   LIG    1       25.971 -28.348  14.329  0.00  0.00    -0.150 OA
ATOM      7  C   LIG    1       25.742 -28.489  11.756  0.00  0.00    +0.119 A 
ATOM      8  C   LIG    1       24.626 -29.266  11.457  0.00  0.00    +0.045 A 
ATOM      9  C   LIG    1       24.650 -30.009  10.265  0.00  0.00    +0.013 A 
ATOM     10  C   LIG    1       25.766 -29.971   9.421  0.00  0.00    +0.001 A 
ATOM     11  C   LIG    1       26.869 -29.182   9.747  0.00  0.00    +0.002 A 
ATOM     12  C   LIG    1       26.857 -28.427  10.917  0.00  0.00    +0.029 A 
ATOM     13  C   LIG    1       23.463 -29.298  12.372  0.00  0.00    +0.153 C 
ENDROOT
BRANCH   1  16
ATOM     14  N   LIG    1       20.690 -28.084  13.375  0.00  0.00    -0.260 N 
ATOM     15  H   LIG    1       20.712 -28.064  12.363  0.00  0.00    +0.157 HD
ATOM     16  C   LIG    1       21.853 -28.321  14.066  0.00  0.00    +0.269 C 
ATOM     17  O   LIG    1       21.924 -28.554  15.269  0.00  0.00    -0.268 OA
BRANCH  14  21
ATOM     18  C   LIG    1       16.216 -26.361  15.170  0.00  0.00    +0.053 C 
ATOM     19  C   LIG    1       17.377 -27.208  14.803  0.00  0.00    +0.008 A 
ATOM     20  S   LIG    1       18.842 -26.510  14.244  0.00  0.00    -0.057 S 
ATOM     21  C   LIG    1       19.460 -28.078  13.960  0.00  0.00    +0.165 A 
ATOM     22  N   LIG    1       18.697 -29.077  14.321  0.00  0.00    -0.233 NA
ATOM     23  C   LIG    1       17.506 -28.583  14.816  0.00  0.00    +0.123 A 
ENDBRANCH  14  21
ENDBRANCH   1  16
BRANCH  13  24
ATOM     24  O   LIG    1       22.738 -30.485  12.332  0.00  0.00    -0.504 OA
ATOM     25  H   LIG    1       22.051 -30.433  13.027  0.00  0.00    +0.292 HD
ENDBRANCH  13  24
TORSDOF 3
ENDMDL
MODEL 9
REMARK VINA RESULT:      -5.7     11.919     13.715
REMARK  Name = *****
REMARK                            x       y       z     vdW  Elec       q    Type
REMARK                         _______ _______ _______ _____ _____    ______ ____
ROOT
ATOM      1  C   LIG    1       22.545 -30.095  11.162  0.00  0.00    +0.155 C 
ATOM      2  N   LIG    1       21.114 -30.146  11.449  0.00  0.00    -0.198 N 
ATOM      3  C   LIG    1       20.239 -31.066  10.685  0.00  0.00    +0.158 C 
ATOM      4  S   LIG    1       20.744 -30.121  13.116  0.00  0.00    +0.075 S 
ATOM      5  O   LIG    1       19.323 -29.875  13.263  0.00  0.00    -0.150 OA
ATOM      6  O   LIG    1       21.394 -31.234  13.769  0.00  0.00    -0.150 OA
ATOM      7  C   LIG    1       21.576 -28.659  13.616  0.00  0.00    +0.119 A 
ATOM      8  C   LIG    1       22.753 -28.341  12.942  0.00  0.00    +0.045 A 
ATOM      9  C   LIG    1       23.391 -27.137  13.281  0.00  0.00    +0.013 A 
ATOM     10  C   LIG    1       22.862 -26.299  14.269  0.00  0.00    +0.001 A 
ATOM     11  C   LIG    1       21.681 -26.644  14.926  0.00  0.00    +0.002 A 
ATOM     12  C   LIG    1       21.025 -27.826  14.593  0.00  0.00    +0.029 A 
ATOM     13  C   LIG    1       23.298 -29.249  11.909  0.00  0.00    +0.153 C 
ENDROOT
BRANCH   1  16
ATOM     14  N   LIG    1       23.645 -30.231   8.987  0.00  0.00    -0.260 N 
ATOM     15  H   LIG    1       23.744 -29.227   9.078  0.00  0.00    +0.157 HD
ATOM     16  C   LIG    1       23.139 -30.952  10.040  0.00  0.00    +0.269 C 
ATOM     17  O   LIG    1       23.144 -32.176  10.124  0.00  0.00    -0.268 OA
BRANCH  14  21
ATOM     18  C   LIG    1       27.087 -32.631   6.054  0.00  0.00    +0.053 C 
ATOM     19  C   LIG    1       25.884 -31.922   6.557  0.00  0.00    +0.008 A 
ATOM     20  S   LIG    1       25.871 -31.191   8.109  0.00  0.00    -0.057 S 
ATOM     21  C   LIG    1       24.220 -30.806   7.894  0.00  0.00    +0.165 A 
ATOM     22  N   LIG    1       23.700 -31.107   6.733  0.00  0.00    -0.233 NA
ATOM     23  C   LIG    1       24.654 -31.737   5.957  0.00  0.00    +0.123 A 
ENDBRANCH  14  21
ENDBRANCH   1  16
BRANCH  13  24
ATOM     24  O   LIG    1       24.680 -29.186  11.765  0.00  0.00    -0.504 OA
ATOM     25  H   LIG    1       25.065 -29.078  12.658  0.00  0.00    +0.292 HD
ENDBRANCH  13  24
TORSDOF 3
ENDMDL
