MODEL 1
REMARK VINA RESULT:      -7.7      0.000      0.000
REMARK  Name = *****
REMARK                            x       y       z     vdW  Elec       q    Type
REMARK                         _______ _______ _______ _____ _____    ______ ____
ROOT
ATOM      1  C   LIG    1       27.651 -21.205   7.564  0.00  0.00    +0.108 A 
ATOM      2  C   LIG    1       28.723 -21.576   8.378  0.00  0.00    +0.058 A 
ATOM      3  C   LIG    1       29.969 -20.947   8.218  0.00  0.00    +0.127 A 
ATOM      4  C   LIG    1       30.148 -19.951   7.245  0.00  0.00    +0.086 A 
ATOM      5 CL   LIG    1       31.667 -19.145   7.019  0.00  0.00    -0.080 Cl
ATOM      6  C   LIG    1       29.050 -19.592   6.440  0.00  0.00    +0.063 A 
ATOM      7 CL   LIG    1       29.153 -18.368   5.221  0.00  0.00    -0.082 Cl
ATOM      8  C   LIG    1       27.808 -20.214   6.598  0.00  0.00    +0.050 A 
ENDROOT
BRANCH   1   9
ATOM      9  S   LIG    1       26.077 -21.982   7.787  0.00  0.00    +0.056 S 
ATOM     10  O   LIG    1       26.146 -23.306   7.221  0.00  0.00    -0.153 OA
ATOM     11  O   LIG    1       25.610 -21.722   9.126  0.00  0.00    -0.153 OA
BRANCH   9  12
ATOM     12  N   LIG    1       25.089 -21.076   6.778  0.00  0.00    -0.203 NA
ATOM     13  H   LIG    1       25.505 -20.158   6.614  0.00  0.00    +0.144 HD
ATOM     14  H   LIG    1       24.908 -21.594   5.916  0.00  0.00    +0.144 HD
ENDBRANCH   9  12
ENDBRANCH   1   9
BRANCH   3  15
ATOM     15  S   LIG    1       31.289 -21.462   9.275  0.00  0.00    +0.057 S 
ATOM     16  O   LIG    1       30.741 -22.074  10.459  0.00  0.00    -0.153 OA
ATOM     17  O   LIG    1       32.259 -20.392   9.353  0.00  0.00    -0.153 OA
BRANCH  15  18
ATOM     18  N   LIG    1       32.046 -22.660   8.380  0.00  0.00    -0.203 NA
ATOM     19  H   LIG    1       32.967 -22.342   8.072  0.00  0.00    +0.144 HD
ATOM     20  H   LIG    1       31.441 -22.967   7.616  0.00  0.00    +0.144 HD
ENDBRANCH  15  18
ENDBRANCH   3  15
TORSDOF 4
ENDMDL
MODEL 2
REMARK VINA RESULT:      -7.5      1.172      4.826
REMARK  Name = *****
REMARK                            x       y       z     vdW  Elec       q    Type
REMARK                         _______ _______ _______ _____ _____    ______ ____
ROOT
ATOM      1  C   LIG    1       29.960 -20.904   8.135  0.00  0.00    +0.108 A 
ATOM      2  C   LIG    1       28.731 -21.561   8.200  0.00  0.00    +0.058 A 
ATOM      3  C   LIG    1       27.711 -21.220   7.296  0.00  0.00    +0.127 A 
ATOM      4  C   LIG    1       27.914 -20.223   6.330  0.00  0.00    +0.086 A 
ATOM      5 CL   LIG    1       26.684 -19.776   5.191  0.00  0.00    -0.080 Cl
ATOM      6  C   LIG    1       29.165 -19.579   6.282  0.00  0.00    +0.063 A 
ATOM      7 CL   LIG    1       29.532 -18.346   5.123  0.00  0.00    -0.082 Cl
ATOM      8  C   LIG    1       30.184 -19.917   7.178  0.00  0.00    +0.050 A 
ENDROOT
BRANCH   1   9
ATOM      9  S   LIG    1       31.251 -21.354   9.258  0.00  0.00    +0.056 S 
ATOM     10  O   LIG    1       32.158 -20.238   9.370  0.00  0.00    -0.153 OA
ATOM     11  O   LIG    1       30.671 -22.013  10.402  0.00  0.00    -0.153 OA
BRANCH   9  12
ATOM     12  N   LIG    1       32.061 -22.551   8.408  0.00  0.00    -0.203 NA
ATOM     13  H   LIG    1       33.070 -22.440   8.524  0.00  0.00    +0.144 HD
ATOM     14  H   LIG    1       31.723 -23.470   8.698  0.00  0.00    +0.144 HD
ENDBRANCH   9  12
ENDBRANCH   1   9
BRANCH   3  15
ATOM     15  S   LIG    1       26.174 -22.084   7.431  0.00  0.00    +0.057 S 
ATOM     16  O   LIG    1       26.378 -23.474   7.112  0.00  0.00    -0.153 OA
ATOM     17  O   LIG    1       25.147 -21.299   6.782  0.00  0.00    -0.153 OA
BRANCH  15  18
ATOM     18  N   LIG    1       25.822 -21.979   9.066  0.00  0.00    -0.203 NA
ATOM     19  H   LIG    1       25.234 -22.765   9.352  0.00  0.00    +0.144 HD
ATOM     20  H   LIG    1       25.419 -21.065   9.284  0.00  0.00    +0.144 HD
ENDBRANCH  15  18
ENDBRANCH   3  15
TORSDOF 4
ENDMDL
MODEL 3
REMARK VINA RESULT:      -7.2      4.553      5.869
REMARK  Name = *****
REMARK                            x       y       z     vdW  Elec       q    Type
REMARK                         _______ _______ _______ _____ _____    ______ ____
ROOT
ATOM      1  C   LIG    1       25.295 -24.833   6.687  0.00  0.00    +0.108 A 
ATOM      2  C   LIG    1       26.123 -23.792   7.110  0.00  0.00    +0.058 A 
ATOM      3  C   LIG    1       25.580 -22.513   7.321  0.00  0.00    +0.127 A 
ATOM      4  C   LIG    1       24.214 -22.271   7.107  0.00  0.00    +0.086 A 
ATOM      5 CL   LIG    1       23.503 -20.709   7.361  0.00  0.00    -0.080 Cl
ATOM      6  C   LIG    1       23.400 -23.339   6.685  0.00  0.00    +0.063 A 
ATOM      7 CL   LIG    1       21.701 -23.159   6.406  0.00  0.00    -0.082 Cl
ATOM      8  C   LIG    1       23.936 -24.614   6.477  0.00  0.00    +0.050 A 
ENDROOT
BRANCH   1   9
ATOM      9  S   LIG    1       25.977 -26.448   6.449  0.00  0.00    +0.056 S 
ATOM     10  O   LIG    1       27.029 -26.350   5.468  0.00  0.00    -0.153 OA
ATOM     11  O   LIG    1       26.156 -27.078   7.733  0.00  0.00    -0.153 OA
BRANCH   9  12
ATOM     12  N   LIG    1       24.708 -27.265   5.716  0.00  0.00    -0.203 NA
ATOM     13  H   LIG    1       24.929 -28.260   5.644  0.00  0.00    +0.144 HD
ATOM     14  H   LIG    1       23.841 -27.082   6.224  0.00  0.00    +0.144 HD
ENDBRANCH   9  12
ENDBRANCH   1   9
BRANCH   3  15
ATOM     15  S   LIG    1       26.679 -21.234   7.851  0.00  0.00    +0.057 S 
ATOM     16  O   LIG    1       26.672 -20.167   6.883  0.00  0.00    -0.153 OA
ATOM     17  O   LIG    1       27.911 -21.844   8.301  0.00  0.00    -0.153 OA
BRANCH  15  18
ATOM     18  N   LIG    1       25.951 -20.663   9.249  0.00  0.00    -0.203 NA
ATOM     19  H   LIG    1       26.312 -21.163  10.065  0.00  0.00    +0.144 HD
ATOM     20  H   LIG    1       24.933 -20.703   9.160  0.00  0.00    +0.144 HD
ENDBRANCH  15  18
ENDBRANCH   3  15
TORSDOF 4
ENDMDL
MODEL 4
REMARK VINA RESULT:      -6.6      3.217      5.552
REMARK  Name = *****
REMARK                            x       y       z     vdW  Elec       q    Type
REMARK                         _______ _______ _______ _____ _____    ______ ____
ROOT
ATOM      1  C   LIG    1       27.603 -20.400   6.461  0.00  0.00    +0.108 A 
ATOM      2  C   LIG    1       26.895 -21.550   6.810  0.00  0.00    +0.058 A 
ATOM      3  C   LIG    1       25.704 -21.867   6.135  0.00  0.00    +0.127 A 
ATOM      4  C   LIG    1       25.217 -21.035   5.115  0.00  0.00    +0.086 A 
ATOM      5 CL   LIG    1       23.755 -21.392   4.252  0.00  0.00    -0.080 Cl
ATOM      6  C   LIG    1       25.953 -19.883   4.778  0.00  0.00    +0.063 A 
ATOM      7 CL   LIG    1       25.455 -18.795   3.527  0.00  0.00    -0.082 Cl
ATOM      8  C   LIG    1       27.140 -19.566   5.446  0.00  0.00    +0.050 A 
ENDROOT
BRANCH   1   9
ATOM      9  S   LIG    1       29.116 -20.018   7.296  0.00  0.00    +0.056 S 
ATOM     10  O   LIG    1       30.000 -19.379   6.353  0.00  0.00    -0.153 OA
ATOM     11  O   LIG    1       28.811 -19.460   8.590  0.00  0.00    -0.153 OA
BRANCH   9  12
ATOM     12  N   LIG    1       29.749 -21.542   7.596  0.00  0.00    -0.203 NA
ATOM     13  H   LIG    1       30.540 -21.721   6.974  0.00  0.00    +0.144 HD
ATOM     14  H   LIG    1       29.991 -21.627   8.585  0.00  0.00    +0.144 HD
ENDBRANCH   9  12
ENDBRANCH   1   9
BRANCH   3  15
ATOM     15  S   LIG    1       24.850 -23.335   6.625  0.00  0.00    +0.057 S 
ATOM     16  O   LIG    1       23.516 -22.992   7.049  0.00  0.00    -0.153 OA
ATOM     17  O   LIG    1       25.731 -24.124   7.457  0.00  0.00    -0.153 OA
BRANCH  15  18
ATOM     18  N   LIG    1       24.727 -24.199   5.194  0.00  0.00    -0.203 NA
ATOM     19  H   LIG    1       25.654 -24.341   4.787  0.00  0.00    +0.144 HD
ATOM     20  H   LIG    1       24.067 -23.743   4.560  0.00  0.00    +0.144 HD
ENDBRANCH  15  18
ENDBRANCH   3  15
TORSDOF 4
ENDMDL
MODEL 5
REMARK VINA RESULT:      -6.4      4.056      6.370
REMARK  Name = *****
REMARK                            x       y       z     vdW  Elec       q    Type
REMARK                         _______ _______ _______ _____ _____    ______ ____
ROOT
ATOM      1  C   LIG    1       27.710 -20.523   6.676  0.00  0.00    +0.108 A 
ATOM      2  C   LIG    1       26.958 -19.908   5.674  0.00  0.00    +0.058 A 
ATOM      3  C   LIG    1       25.761 -20.503   5.237  0.00  0.00    +0.127 A 
ATOM      4  C   LIG    1       25.317 -21.711   5.796  0.00  0.00    +0.086 A 
ATOM      5 CL   LIG    1       23.845 -22.476   5.291  0.00  0.00    -0.080 Cl
ATOM      6  C   LIG    1       26.093 -22.308   6.809  0.00  0.00    +0.063 A 
ATOM      7 CL   LIG    1       25.633 -23.789   7.580  0.00  0.00    -0.082 Cl
ATOM      8  C   LIG    1       27.282 -21.718   7.248  0.00  0.00    +0.050 A 
ENDROOT
BRANCH   1   9
ATOM      9  S   LIG    1       29.202 -19.757   7.241  0.00  0.00    +0.056 S 
ATOM     10  O   LIG    1       29.770 -19.016   6.142  0.00  0.00    -0.153 OA
ATOM     11  O   LIG    1       28.970 -19.180   8.542  0.00  0.00    -0.153 OA
BRANCH   9  12
ATOM     12  N   LIG    1       30.202 -21.078   7.501  0.00  0.00    -0.203 NA
ATOM     13  H   LIG    1       30.223 -21.309   8.497  0.00  0.00    +0.144 HD
ATOM     14  H   LIG    1       29.903 -21.859   6.915  0.00  0.00    +0.144 HD
ENDBRANCH   9  12
ENDBRANCH   1   9
BRANCH   3  15
ATOM     15  S   LIG    1       24.855 -19.680   3.962  0.00  0.00    +0.057 S 
ATOM     16  O   LIG    1       23.691 -19.051   4.534  0.00  0.00    -0.153 OA
ATOM     17  O   LIG    1       24.757 -20.566   2.823  0.00  0.00    -0.153 OA
BRANCH  15  18
ATOM     18  N   LIG    1       25.904 -18.469   3.472  0.00  0.00    -0.203 NA
ATOM     19  H   LIG    1       26.704 -18.416   4.106  0.00  0.00    +0.144 HD
ATOM     20  H   LIG    1       25.402 -17.584   3.369  0.00  0.00    +0.144 HD
ENDBRANCH  15  18
ENDBRANCH   3  15
TORSDOF 4
ENDMDL
MODEL 6
REMARK VINA RESULT:      -6.4      1.888      4.952
REMARK  Name = *****
REMARK                            x       y       z     vdW  Elec       q    Type
REMARK                         _______ _______ _______ _____ _____    ______ ____
ROOT
ATOM      1  C   LIG    1       29.237 -20.462   7.492  0.00  0.00    +0.108 A 
ATOM      2  C   LIG    1       28.148 -21.316   7.666  0.00  0.00    +0.058 A 
ATOM      3  C   LIG    1       27.015 -21.175   6.846  0.00  0.00    +0.127 A 
ATOM      4  C   LIG    1       26.966 -20.181   5.857  0.00  0.00    +0.086 A 
ATOM      5 CL   LIG    1       25.591 -19.977   4.820  0.00  0.00    -0.080 Cl
ATOM      6  C   LIG    1       28.082 -19.335   5.698  0.00  0.00    +0.063 A 
ATOM      7 CL   LIG    1       28.138 -18.087   4.500  0.00  0.00    -0.082 Cl
ATOM      8  C   LIG    1       29.212 -19.474   6.510  0.00  0.00    +0.050 A 
ENDROOT
BRANCH   1   9
ATOM      9  S   LIG    1       30.672 -20.659   8.508  0.00  0.00    +0.056 S 
ATOM     10  O   LIG    1       30.520 -21.876   9.267  0.00  0.00    -0.153 OA
ATOM     11  O   LIG    1       31.847 -20.362   7.726  0.00  0.00    -0.153 OA
BRANCH   9  12
ATOM     12  N   LIG    1       30.516 -19.390   9.593  0.00  0.00    -0.203 NA
ATOM     13  H   LIG    1       29.732 -19.565  10.224  0.00  0.00    +0.144 HD
ATOM     14  H   LIG    1       31.400 -19.245  10.084  0.00  0.00    +0.144 HD
ENDBRANCH   9  12
ENDBRANCH   1   9
BRANCH   3  15
ATOM     15  S   LIG    1       25.664 -22.283   7.117  0.00  0.00    +0.057 S 
ATOM     16  O   LIG    1       24.493 -21.527   7.483  0.00  0.00    -0.153 OA
ATOM     17  O   LIG    1       26.133 -23.392   7.919  0.00  0.00    -0.153 OA
BRANCH  15  18
ATOM     18  N   LIG    1       25.399 -22.937   5.597  0.00  0.00    -0.203 NA
ATOM     19  H   LIG    1       26.258 -23.364   5.242  0.00  0.00    +0.144 HD
ATOM     20  H   LIG    1       25.002 -22.233   4.972  0.00  0.00    +0.144 HD
ENDBRANCH  15  18
ENDBRANCH   3  15
TORSDOF 4
ENDMDL
MODEL 7
REMARK VINA RESULT:      -6.3      1.950      2.235
REMARK  Name = *****
REMARK                            x       y       z     vdW  Elec       q    Type
REMARK                         _______ _______ _______ _____ _____    ______ ____
ROOT
ATOM      1  C   LIG    1       26.643 -21.088   7.251  0.00  0.00    +0.108 A 
ATOM      2  C   LIG    1       27.887 -20.782   7.804  0.00  0.00    +0.058 A 
ATOM      3  C   LIG    1       28.744 -19.888   7.139  0.00  0.00    +0.127 A 
ATOM      4  C   LIG    1       28.363 -19.303   5.922  0.00  0.00    +0.086 A 
ATOM      5 CL   LIG    1       29.387 -18.191   5.071  0.00  0.00    -0.080 Cl
ATOM      6  C   LIG    1       27.100 -19.625   5.388  0.00  0.00    +0.063 A 
ATOM      7 CL   LIG    1       26.520 -18.951   3.902  0.00  0.00    -0.082 Cl
ATOM      8  C   LIG    1       26.243 -20.511   6.048  0.00  0.00    +0.050 A 
ENDROOT
BRANCH   1   9
ATOM      9  S   LIG    1       25.556 -22.193   8.105  0.00  0.00    +0.056 S 
ATOM     10  O   LIG    1       25.792 -23.526   7.609  0.00  0.00    -0.153 OA
ATOM     11  O   LIG    1       25.560 -21.864   9.509  0.00  0.00    -0.153 OA
BRANCH   9  12
ATOM     12  N   LIG    1       24.051 -21.723   7.533  0.00  0.00    -0.203 NA
ATOM     13  H   LIG    1       23.942 -20.712   7.626  0.00  0.00    +0.144 HD
ATOM     14  H   LIG    1       23.928 -22.053   6.575  0.00  0.00    +0.144 HD
ENDBRANCH   9  12
ENDBRANCH   1   9
BRANCH   3  15
ATOM     15  S   LIG    1       30.309 -19.544   7.886  0.00  0.00    +0.057 S 
ATOM     16  O   LIG    1       30.237 -18.285   8.584  0.00  0.00    -0.153 OA
ATOM     17  O   LIG    1       31.349 -19.818   6.920  0.00  0.00    -0.153 OA
BRANCH  15  18
ATOM     18  N   LIG    1       30.459 -20.758   9.031  0.00  0.00    -0.203 NA
ATOM     19  H   LIG    1       31.444 -20.911   9.257  0.00  0.00    +0.144 HD
ATOM     20  H   LIG    1       29.974 -21.602   8.718  0.00  0.00    +0.144 HD
ENDBRANCH  15  18
ENDBRANCH   3  15
TORSDOF 4
ENDMDL
MODEL 8
REMARK VINA RESULT:      -6.3      4.199      6.153
REMARK  Name = *****
REMARK                            x       y       z     vdW  Elec       q    Type
REMARK                         _______ _______ _______ _____ _____    ______ ____
ROOT
ATOM      1  C   LIG    1       26.416 -21.323   6.951  0.00  0.00    +0.108 A 
ATOM      2  C   LIG    1       26.231 -22.697   6.794  0.00  0.00    +0.058 A 
ATOM      3  C   LIG    1       24.960 -23.195   6.460  0.00  0.00    +0.127 A 
ATOM      4  C   LIG    1       23.873 -22.324   6.287  0.00  0.00    +0.086 A 
ATOM      5 CL   LIG    1       22.290 -22.896   5.869  0.00  0.00    -0.080 Cl
ATOM      6  C   LIG    1       24.088 -20.941   6.446  0.00  0.00    +0.063 A 
ATOM      7 CL   LIG    1       22.824 -19.776   6.241  0.00  0.00    -0.082 Cl
ATOM      8  C   LIG    1       25.352 -20.442   6.775  0.00  0.00    +0.050 A 
ENDROOT
BRANCH   1   9
ATOM      9  S   LIG    1       28.024 -20.698   7.345  0.00  0.00    +0.056 S 
ATOM     10  O   LIG    1       27.905 -19.856   8.510  0.00  0.00    -0.153 OA
ATOM     11  O   LIG    1       28.983 -21.770   7.245  0.00  0.00    -0.153 OA
BRANCH   9  12
ATOM     12  N   LIG    1       28.340 -19.685   6.047  0.00  0.00    -0.203 NA
ATOM     13  H   LIG    1       28.507 -20.238   5.204  0.00  0.00    +0.144 HD
ATOM     14  H   LIG    1       27.578 -19.013   5.940  0.00  0.00    +0.144 HD
ENDBRANCH   9  12
ENDBRANCH   1   9
BRANCH   3  15
ATOM     15  S   LIG    1       24.787 -24.945   6.279  0.00  0.00    +0.057 S 
ATOM     16  O   LIG    1       23.447 -25.332   6.639  0.00  0.00    -0.153 OA
ATOM     17  O   LIG    1       25.945 -25.584   6.864  0.00  0.00    -0.153 OA
BRANCH  15  18
ATOM     18  N   LIG    1       24.961 -25.175   4.628  0.00  0.00    -0.203 NA
ATOM     19  H   LIG    1       24.575 -26.081   4.355  0.00  0.00    +0.144 HD
ATOM     20  H   LIG    1       25.936 -25.044   4.352  0.00  0.00    +0.144 HD
ENDBRANCH  15  18
ENDBRANCH   3  15
TORSDOF 4
ENDMDL
MODEL 9
REMARK VINA RESULT:      -6.1      4.472      5.135
REMARK  Name = *****
REMARK                            x       y       z     vdW  Elec       q    Type
REMARK                         _______ _______ _______ _____ _____    ______ ____
ROOT
ATOM      1  C   LIG    1       24.923 -20.371   4.896  0.00  0.00    +0.108 A 
ATOM      2  C   LIG    1       26.158 -20.135   5.501  0.00  0.00    +0.058 A 
ATOM      3  C   LIG    1       26.564 -20.931   6.586  0.00  0.00    +0.127 A 
ATOM      4  C   LIG    1       25.738 -21.957   7.070  0.00  0.00    +0.086 A 
ATOM      5 CL   LIG    1       26.203 -22.966   8.402  0.00  0.00    -0.080 Cl
ATOM      6  C   LIG    1       24.499 -22.177   6.438  0.00  0.00    +0.063 A 
ATOM      7 CL   LIG    1       23.409 -23.425   6.940  0.00  0.00    -0.082 Cl
ATOM      8  C   LIG    1       24.093 -21.390   5.356  0.00  0.00    +0.050 A 
ENDROOT
BRANCH   1   9
ATOM      9  S   LIG    1       24.427 -19.384   3.513  0.00  0.00    +0.056 S 
ATOM     10  O   LIG    1       24.362 -20.238   2.353  0.00  0.00    -0.153 OA
ATOM     11  O   LIG    1       23.343 -18.522   3.915  0.00  0.00    -0.153 OA
BRANCH   9  12
ATOM     12  N   LIG    1       25.752 -18.379   3.300  0.00  0.00    -0.203 NA
ATOM     13  H   LIG    1       26.573 -18.783   3.755  0.00  0.00    +0.144 HD
ATOM     14  H   LIG    1       25.893 -18.199   2.305  0.00  0.00    +0.144 HD
ENDBRANCH   9  12
ENDBRANCH   1   9
BRANCH   3  15
ATOM     15  S   LIG    1       28.136 -20.582   7.315  0.00  0.00    +0.057 S 
ATOM     16  O   LIG    1       28.978 -21.747   7.214  0.00  0.00    -0.153 OA
ATOM     17  O   LIG    1       27.919 -19.909   8.577  0.00  0.00    -0.153 OA
BRANCH  15  18
ATOM     18  N   LIG    1       28.769 -19.402   6.306  0.00  0.00    -0.203 NA
ATOM     19  H   LIG    1       29.510 -18.886   6.787  0.00  0.00    +0.144 HD
ATOM     20  H   LIG    1       28.021 -18.806   5.945  0.00  0.00    +0.144 HD
ENDBRANCH  15  18
ENDBRANCH   3  15
TORSDOF 4
ENDMDL
