MODEL 1
REMARK VINA RESULT:      -5.6      0.000      0.000
REMARK  Name = *****
REMARK                            x       y       z     vdW  Elec       q    Type
REMARK                         _______ _______ _______ _____ _____    ______ ____
ROOT
ATOM      1  C   LIG    1       26.854 -21.018   7.091  0.00  0.00    +0.122 C 
ENDROOT
BRANCH   1   2
ATOM      2  C   LIG    1       28.386 -20.718   7.096  0.00  0.00    +0.172 C 
ATOM      3  C   LIG    1       29.202 -21.769   7.895  0.00  0.00    +0.176 C 
ATOM      4  C   LIG    1       30.634 -21.299   8.218  0.00  0.00    +0.177 C 
ATOM      5  C   LIG    1       30.631 -19.872   8.771  0.00  0.00    +0.184 C 
ATOM      6  C   LIG    1       29.927 -18.945   7.778  0.00  0.00    +0.207 C 
ATOM      7  O   LIG    1       28.571 -19.415   7.681  0.00  0.00    -0.356 OA
BRANCH   3   8
ATOM      8  O   LIG    1       28.592 -22.082   9.165  0.00  0.00    -0.387 OA
ATOM      9  H   LIG    1       28.041 -21.325   9.437  0.00  0.00    +0.210 HD
ENDBRANCH   3   8
BRANCH   4  10
ATOM     10  O   LIG    1       31.218 -22.154   9.221  0.00  0.00    -0.387 OA
ATOM     11  H   LIG    1       31.614 -22.902   8.724  0.00  0.00    +0.210 HD
ENDBRANCH   4  10
BRANCH   5  12
ATOM     12  O   LIG    1       31.944 -19.451   9.135  0.00  0.00    -0.386 OA
ATOM     13  H   LIG    1       31.831 -18.983   9.988  0.00  0.00    +0.210 HD
ENDBRANCH   5  12
BRANCH   6  14
ATOM     14  S   LIG    1       30.687 -18.720   6.116  0.00  0.00    -0.131 S 
ATOM     15  C   LIG    1       29.269 -18.081   5.192  0.00  0.00    +0.087 C 
ENDBRANCH   6  14
ENDBRANCH   1   2
BRANCH   1  17
ATOM     16  C   LIG    1       25.881 -23.248   7.677  0.00  0.00    +0.231 C 
ATOM     17  N   LIG    1       26.567 -22.440   6.798  0.00  0.00    -0.307 N 
ATOM     18  H   LIG    1       26.753 -22.821   5.873  0.00  0.00    +0.149 HD
ATOM     19  O   LIG    1       25.554 -22.848   8.804  0.00  0.00    -0.274 OA
BRANCH  16  24
ATOM     20  C   LIG    1       25.247 -26.037   5.165  0.00  0.00    +0.005 C 
ATOM     21  C   LIG    1       23.967 -26.027   6.026  0.00  0.00    +0.088 C 
ATOM     22  N   LIG    1       23.996 -24.782   6.836  0.00  0.00    -0.294 NA
ATOM     23  C   LIG    1       23.438 -23.671   6.057  0.00  0.00    +0.105 C 
ATOM     24  C   LIG    1       25.451 -24.622   7.131  0.00  0.00    +0.143 C 
ATOM     25  C   LIG    1       26.161 -25.011   5.839  0.00  0.00    +0.033 C 
BRANCH  20  26
ATOM     26  C   LIG    1       25.866 -27.439   5.030  0.00  0.00    +0.004 C 
BRANCH  26  28
ATOM     27  C   LIG    1       25.049 -29.584   6.213  0.00  0.00    +0.004 C 
ATOM     28  C   LIG    1       24.873 -28.613   5.056  0.00  0.00    -0.003 C 
ENDBRANCH  26  28
ENDBRANCH  20  26
ENDBRANCH  16  24
ENDBRANCH   1  17
BRANCH   1  29
ATOM     29  C   LIG    1       25.996 -20.056   6.197  0.00  0.00    +0.100 C 
ATOM     30 CL   LIG    1       24.237 -20.328   6.449  0.00  0.00    -0.120 Cl
ATOM     31  C   LIG    1       26.286 -20.108   4.694  0.00  0.00    +0.026 C 
ENDBRANCH   1  29
TORSDOF 10
ENDMDL
MODEL 2
REMARK VINA RESULT:      -5.5      6.856     10.136
REMARK  Name = *****
REMARK                            x       y       z     vdW  Elec       q    Type
REMARK                         _______ _______ _______ _____ _____    ______ ____
ROOT
ATOM      1  C   LIG    1       24.151 -30.939   7.932  0.00  0.00    +0.122 C 
ENDROOT
BRANCH   1   2
ATOM      2  C   LIG    1       25.046 -32.083   7.359  0.00  0.00    +0.172 C 
ATOM      3  C   LIG    1       25.987 -32.703   8.427  0.00  0.00    +0.176 C 
ATOM      4  C   LIG    1       27.114 -33.556   7.811  0.00  0.00    +0.177 C 
ATOM      5  C   LIG    1       27.788 -32.820   6.651  0.00  0.00    +0.184 C 
ATOM      6  C   LIG    1       26.730 -32.424   5.618  0.00  0.00    +0.207 C 
ATOM      7  O   LIG    1       25.831 -31.524   6.288  0.00  0.00    -0.356 OA
BRANCH   3   8
ATOM      8  O   LIG    1       26.643 -31.697   9.225  0.00  0.00    -0.387 OA
ATOM      9  H   LIG    1       26.137 -31.579  10.051  0.00  0.00    +0.210 HD
ENDBRANCH   3   8
BRANCH   4  10
ATOM     10  O   LIG    1       28.124 -33.825   8.803  0.00  0.00    -0.387 OA
ATOM     11  H   LIG    1       27.646 -34.240   9.553  0.00  0.00    +0.210 HD
ENDBRANCH   4  10
BRANCH   5  12
ATOM     12  O   LIG    1       28.876 -33.571   6.118  0.00  0.00    -0.386 OA
ATOM     13  H   LIG    1       28.509 -34.018   5.326  0.00  0.00    +0.210 HD
ENDBRANCH   5  12
BRANCH   6  14
ATOM     14  S   LIG    1       25.822 -33.772   4.752  0.00  0.00    -0.131 S 
ATOM     15  C   LIG    1       25.527 -32.987   3.149  0.00  0.00    +0.087 C 
ENDBRANCH   6  14
ENDBRANCH   1   2
BRANCH   1  17
ATOM     16  C   LIG    1       24.453 -28.748   6.761  0.00  0.00    +0.231 C 
ATOM     17  N   LIG    1       24.785 -29.611   7.782  0.00  0.00    -0.307 N 
ATOM     18  H   LIG    1       25.387 -29.244   8.515  0.00  0.00    +0.149 HD
ATOM     19  O   LIG    1       23.674 -29.084   5.857  0.00  0.00    -0.274 OA
BRANCH  16  24
ATOM     20  C   LIG    1       24.894 -25.033   6.062  0.00  0.00    +0.005 C 
ATOM     21  C   LIG    1       26.341 -25.560   6.142  0.00  0.00    +0.088 C 
ATOM     22  N   LIG    1       26.266 -27.044   6.114  0.00  0.00    -0.294 NA
ATOM     23  C   LIG    1       26.211 -27.511   4.724  0.00  0.00    +0.105 C 
ATOM     24  C   LIG    1       25.014 -27.319   6.879  0.00  0.00    +0.143 C 
ATOM     25  C   LIG    1       24.032 -26.243   6.427  0.00  0.00    +0.033 C 
BRANCH  20  26
ATOM     26  C   LIG    1       24.656 -23.799   6.950  0.00  0.00    +0.004 C 
BRANCH  26  28
ATOM     27  C   LIG    1       23.452 -21.553   6.533  0.00  0.00    +0.004 C 
ATOM     28  C   LIG    1       23.328 -23.058   6.720  0.00  0.00    -0.003 C 
ENDBRANCH  26  28
ENDBRANCH  20  26
ENDBRANCH  16  24
ENDBRANCH   1  17
BRANCH   1  29
ATOM     29  C   LIG    1       23.634 -31.175   9.394  0.00  0.00    +0.100 C 
ATOM     30 CL   LIG    1       22.225 -32.291   9.415  0.00  0.00    -0.120 Cl
ATOM     31  C   LIG    1       23.268 -29.914  10.182  0.00  0.00    +0.026 C 
ENDBRANCH   1  29
TORSDOF 10
ENDMDL
MODEL 3
REMARK VINA RESULT:      -5.5      5.785      9.320
REMARK  Name = *****
REMARK                            x       y       z     vdW  Elec       q    Type
REMARK                         _______ _______ _______ _____ _____    ______ ____
ROOT
ATOM      1  C   LIG    1       25.225 -29.028   7.281  0.00  0.00    +0.122 C 
ENDROOT
BRANCH   1   2
ATOM      2  C   LIG    1       24.901 -29.662   8.671  0.00  0.00    +0.172 C 
ATOM      3  C   LIG    1       26.008 -29.394   9.727  0.00  0.00    +0.176 C 
ATOM      4  C   LIG    1       25.889 -30.304  10.965  0.00  0.00    +0.177 C 
ATOM      5  C   LIG    1       25.674 -31.763  10.556  0.00  0.00    +0.184 C 
ATOM      6  C   LIG    1       24.447 -31.859   9.646  0.00  0.00    +0.207 C 
ATOM      7  O   LIG    1       24.753 -31.081   8.475  0.00  0.00    -0.356 OA
BRANCH   3   8
ATOM      8  O   LIG    1       27.332 -29.617   9.197  0.00  0.00    -0.387 OA
ATOM      9  H   LIG    1       27.631 -30.502   9.478  0.00  0.00    +0.210 HD
ENDBRANCH   3   8
BRANCH   4  10
ATOM     10  O   LIG    1       27.103 -30.242  11.738  0.00  0.00    -0.387 OA
ATOM     11  H   LIG    1       26.884 -29.690  12.520  0.00  0.00    +0.210 HD
ENDBRANCH   4  10
BRANCH   5  12
ATOM     12  O   LIG    1       25.630 -32.622  11.692  0.00  0.00    -0.386 OA
ATOM     13  H   LIG    1       25.450 -33.513  11.328  0.00  0.00    +0.210 HD
ENDBRANCH   5  12
BRANCH   6  14
ATOM     14  S   LIG    1       22.809 -31.405  10.354  0.00  0.00    -0.131 S 
ATOM     15  C   LIG    1       21.788 -32.748   9.699  0.00  0.00    +0.087 C 
ENDBRANCH   6  14
ENDBRANCH   1   2
BRANCH   1  17
ATOM     16  C   LIG    1       25.924 -26.670   6.813  0.00  0.00    +0.231 C 
ATOM     17  N   LIG    1       24.984 -27.567   7.268  0.00  0.00    -0.307 N 
ATOM     18  H   LIG    1       24.057 -27.199   7.469  0.00  0.00    +0.149 HD
ATOM     19  O   LIG    1       27.061 -27.037   6.482  0.00  0.00    -0.274 OA
BRANCH  16  24
ATOM     20  C   LIG    1       23.543 -23.769   6.178  0.00  0.00    +0.005 C 
ATOM     21  C   LIG    1       24.781 -23.414   5.329  0.00  0.00    +0.088 C 
ATOM     22  N   LIG    1       25.637 -24.627   5.278  0.00  0.00    -0.294 NA
ATOM     23  C   LIG    1       25.189 -25.505   4.191  0.00  0.00    +0.105 C 
ATOM     24  C   LIG    1       25.440 -25.220   6.634  0.00  0.00    +0.143 C 
ATOM     25  C   LIG    1       23.956 -25.035   6.933  0.00  0.00    +0.033 C 
BRANCH  20  26
ATOM     26  C   LIG    1       23.089 -22.614   7.086  0.00  0.00    +0.004 C 
BRANCH  26  28
ATOM     27  C   LIG    1       22.944 -20.270   6.013  0.00  0.00    +0.004 C 
ATOM     28  C   LIG    1       23.765 -21.257   6.829  0.00  0.00    -0.003 C 
ENDBRANCH  26  28
ENDBRANCH  20  26
ENDBRANCH  16  24
ENDBRANCH   1  17
BRANCH   1  29
ATOM     29  C   LIG    1       24.550 -29.739   6.057  0.00  0.00    +0.100 C 
ATOM     30 CL   LIG    1       25.723 -30.781   5.181  0.00  0.00    -0.120 Cl
ATOM     31  C   LIG    1       23.868 -28.816   5.044  0.00  0.00    +0.026 C 
ENDBRANCH   1  29
TORSDOF 10
ENDMDL
MODEL 4
REMARK VINA RESULT:      -5.3      6.347      9.416
REMARK  Name = *****
REMARK                            x       y       z     vdW  Elec       q    Type
REMARK                         _______ _______ _______ _____ _____    ______ ____
ROOT
ATOM      1  C   LIG    1       25.898 -30.843   9.149  0.00  0.00    +0.122 C 
ENDROOT
BRANCH   1   2
ATOM      2  C   LIG    1       25.665 -30.223  10.564  0.00  0.00    +0.172 C 
ATOM      3  C   LIG    1       26.434 -28.890  10.770  0.00  0.00    +0.176 C 
ATOM      4  C   LIG    1       26.514 -28.466  12.250  0.00  0.00    +0.177 C 
ATOM      5  C   LIG    1       26.934 -29.641  13.135  0.00  0.00    +0.184 C 
ATOM      6  C   LIG    1       25.970 -30.810  12.918  0.00  0.00    +0.207 C 
ATOM      7  O   LIG    1       26.103 -31.189  11.538  0.00  0.00    -0.356 OA
BRANCH   3   8
ATOM      8  O   LIG    1       27.799 -28.970  10.307  0.00  0.00    -0.387 OA
ATOM      9  H   LIG    1       28.094 -29.897  10.378  0.00  0.00    +0.210 HD
ENDBRANCH   3   8
BRANCH   4  10
ATOM     10  O   LIG    1       27.498 -27.426  12.410  0.00  0.00    -0.387 OA
ATOM     11  H   LIG    1       27.342 -26.806  11.665  0.00  0.00    +0.210 HD
ENDBRANCH   4  10
BRANCH   5  12
ATOM     12  O   LIG    1       27.076 -29.243  14.497  0.00  0.00    -0.386 OA
ATOM     13  H   LIG    1       26.169 -29.015  14.788  0.00  0.00    +0.210 HD
ENDBRANCH   5  12
BRANCH   6  14
ATOM     14  S   LIG    1       24.206 -30.573  13.391  0.00  0.00    -0.131 S 
ATOM     15  C   LIG    1       23.662 -32.297  13.491  0.00  0.00    +0.087 C 
ENDBRANCH   6  14
ENDBRANCH   1   2
BRANCH   1  17
ATOM     16  C   LIG    1       25.062 -29.073   7.590  0.00  0.00    +0.231 C 
ATOM     17  N   LIG    1       26.103 -29.805   8.115  0.00  0.00    -0.307 N 
ATOM     18  H   LIG    1       27.044 -29.510   7.865  0.00  0.00    +0.149 HD
ATOM     19  O   LIG    1       23.884 -29.318   7.889  0.00  0.00    -0.274 OA
BRANCH  16  24
ATOM     20  C   LIG    1       24.668 -26.063   5.294  0.00  0.00    +0.005 C 
ATOM     21  C   LIG    1       25.823 -26.858   4.653  0.00  0.00    +0.088 C 
ATOM     22  N   LIG    1       25.848 -28.193   5.306  0.00  0.00    -0.294 NA
ATOM     23  C   LIG    1       24.904 -29.091   4.633  0.00  0.00    +0.105 C 
ATOM     24  C   LIG    1       25.458 -27.873   6.711  0.00  0.00    +0.143 C 
ATOM     25  C   LIG    1       24.359 -26.823   6.586  0.00  0.00    +0.033 C 
BRANCH  20  26
ATOM     26  C   LIG    1       25.008 -24.577   5.504  0.00  0.00    +0.004 C 
BRANCH  26  28
ATOM     27  C   LIG    1       23.069 -23.393   6.732  0.00  0.00    +0.004 C 
ATOM     28  C   LIG    1       24.483 -23.950   6.807  0.00  0.00    -0.003 C 
ENDBRANCH  26  28
ENDBRANCH  20  26
ENDBRANCH  16  24
ENDBRANCH   1  17
BRANCH   1  29
ATOM     29  C   LIG    1       24.828 -31.901   8.707  0.00  0.00    +0.100 C 
ATOM     30 CL   LIG    1       23.438 -31.937   9.846  0.00  0.00    -0.120 Cl
ATOM     31  C   LIG    1       25.342 -33.331   8.522  0.00  0.00    +0.026 C 
ENDBRANCH   1  29
TORSDOF 10
ENDMDL
MODEL 5
REMARK VINA RESULT:      -5.2      1.472      1.632
REMARK  Name = *****
REMARK                            x       y       z     vdW  Elec       q    Type
REMARK                         _______ _______ _______ _____ _____    ______ ____
ROOT
ATOM      1  C   LIG    1       26.025 -21.312   6.397  0.00  0.00    +0.122 C 
ENDROOT
BRANCH   1   2
ATOM      2  C   LIG    1       27.523 -20.897   6.544  0.00  0.00    +0.172 C 
ATOM      3  C   LIG    1       28.301 -21.796   7.543  0.00  0.00    +0.176 C 
ATOM      4  C   LIG    1       29.650 -21.187   7.974  0.00  0.00    +0.177 C 
ATOM      5  C   LIG    1       29.488 -19.716   8.363  0.00  0.00    +0.184 C 
ATOM      6  C   LIG    1       28.851 -18.951   7.200  0.00  0.00    +0.207 C 
ATOM      7  O   LIG    1       27.551 -19.531   7.001  0.00  0.00    -0.356 OA
BRANCH   3   8
ATOM      8  O   LIG    1       27.562 -22.025   8.761  0.00  0.00    -0.387 OA
ATOM      9  H   LIG    1       28.189 -22.011   9.509  0.00  0.00    +0.210 HD
ENDBRANCH   3   8
BRANCH   4  10
ATOM     10  O   LIG    1       30.160 -21.888   9.124  0.00  0.00    -0.387 OA
ATOM     11  H   LIG    1       30.870 -21.313   9.483  0.00  0.00    +0.210 HD
ENDBRANCH   4  10
BRANCH   5  12
ATOM     12  O   LIG    1       30.716 -19.161   8.827  0.00  0.00    -0.386 OA
ATOM     13  H   LIG    1       31.177 -19.903   9.269  0.00  0.00    +0.210 HD
ENDBRANCH   5  12
BRANCH   6  14
ATOM     14  S   LIG    1       29.793 -18.837   5.622  0.00  0.00    -0.131 S 
ATOM     15  C   LIG    1       28.840 -17.559   4.765  0.00  0.00    +0.087 C 
ENDBRANCH   6  14
ENDBRANCH   1   2
BRANCH   1  17
ATOM     16  C   LIG    1       24.652 -23.325   6.972  0.00  0.00    +0.231 C 
ATOM     17  N   LIG    1       25.838 -22.773   6.539  0.00  0.00    -0.307 N 
ATOM     18  H   LIG    1       26.542 -23.417   6.187  0.00  0.00    +0.149 HD
ATOM     19  O   LIG    1       23.712 -22.616   7.360  0.00  0.00    -0.274 OA
BRANCH  16  24
ATOM     20  C   LIG    1       25.709 -26.940   6.423  0.00  0.00    +0.005 C 
ATOM     21  C   LIG    1       24.422 -26.807   5.583  0.00  0.00    +0.088 C 
ATOM     22  N   LIG    1       24.105 -25.358   5.496  0.00  0.00    -0.294 NA
ATOM     23  C   LIG    1       24.850 -24.754   4.386  0.00  0.00    +0.105 C 
ATOM     24  C   LIG    1       24.532 -24.854   6.836  0.00  0.00    +0.143 C 
ATOM     25  C   LIG    1       25.830 -25.594   7.141  0.00  0.00    +0.033 C 
BRANCH  20  26
ATOM     26  C   LIG    1       25.687 -28.156   7.364  0.00  0.00    +0.004 C 
BRANCH  26  28
ATOM     27  C   LIG    1       24.107 -29.942   8.356  0.00  0.00    +0.004 C 
ATOM     28  C   LIG    1       24.549 -29.164   7.126  0.00  0.00    -0.003 C 
ENDBRANCH  26  28
ENDBRANCH  20  26
ENDBRANCH  16  24
ENDBRANCH   1  17
BRANCH   1  29
ATOM     29  C   LIG    1       25.308 -20.756   5.118  0.00  0.00    +0.100 C 
ATOM     30 CL   LIG    1       26.337 -19.555   4.264  0.00  0.00    -0.120 Cl
ATOM     31  C   LIG    1       23.925 -20.138   5.346  0.00  0.00    +0.026 C 
ENDBRANCH   1  29
TORSDOF 10
ENDMDL
MODEL 6
REMARK VINA RESULT:      -5.2      8.512     11.164
REMARK  Name = *****
REMARK                            x       y       z     vdW  Elec       q    Type
REMARK                         _______ _______ _______ _____ _____    ______ ____
ROOT
ATOM      1  C   LIG    1       26.272 -30.805   9.503  0.00  0.00    +0.122 C 
ENDROOT
BRANCH   1   2
ATOM      2  C   LIG    1       25.961 -31.143   8.010  0.00  0.00    +0.172 C 
ATOM      3  C   LIG    1       24.941 -30.162   7.371  0.00  0.00    +0.176 C 
ATOM      4  C   LIG    1       24.353 -30.686   6.046  0.00  0.00    +0.177 C 
ATOM      5  C   LIG    1       23.904 -32.143   6.184  0.00  0.00    +0.184 C 
ATOM      6  C   LIG    1       25.081 -32.991   6.671  0.00  0.00    +0.207 C 
ATOM      7  O   LIG    1       25.434 -32.482   7.969  0.00  0.00    -0.356 OA
BRANCH   3   8
ATOM      8  O   LIG    1       23.813 -29.910   8.234  0.00  0.00    -0.387 OA
ATOM      9  H   LIG    1       23.272 -29.201   7.837  0.00  0.00    +0.210 HD
ENDBRANCH   3   8
BRANCH   4  10
ATOM     10  O   LIG    1       23.197 -29.907   5.680  0.00  0.00    -0.387 OA
ATOM     11  H   LIG    1       22.895 -30.280   4.824  0.00  0.00    +0.210 HD
ENDBRANCH   4  10
BRANCH   5  12
ATOM     12  O   LIG    1       23.297 -32.617   4.984  0.00  0.00    -0.386 OA
ATOM     13  H   LIG    1       22.570 -31.987   4.803  0.00  0.00    +0.210 HD
ENDBRANCH   5  12
BRANCH   6  14
ATOM     14  S   LIG    1       26.555 -33.135   5.576  0.00  0.00    -0.131 S 
ATOM     15  C   LIG    1       27.759 -33.824   6.739  0.00  0.00    +0.087 C 
ENDBRANCH   6  14
ENDBRANCH   1   2
BRANCH   1  17
ATOM     16  C   LIG    1       24.770 -31.471  11.391  0.00  0.00    +0.231 C 
ATOM     17  N   LIG    1       25.038 -30.664  10.308  0.00  0.00    -0.307 N 
ATOM     18  H   LIG    1       24.419 -29.871  10.162  0.00  0.00    +0.149 HD
ATOM     19  O   LIG    1       25.507 -32.424  11.686  0.00  0.00    -0.274 OA
BRANCH  16  24
ATOM     20  C   LIG    1       22.440 -29.202  13.368  0.00  0.00    +0.005 C 
ATOM     21  C   LIG    1       22.632 -30.419  14.295  0.00  0.00    +0.088 C 
ATOM     22  N   LIG    1       23.757 -31.216  13.741  0.00  0.00    -0.294 NA
ATOM     23  C   LIG    1       25.032 -30.684  14.235  0.00  0.00    +0.105 C 
ATOM     24  C   LIG    1       23.578 -31.047  12.268  0.00  0.00    +0.143 C 
ATOM     25  C   LIG    1       23.180 -29.586  12.085  0.00  0.00    +0.033 C 
BRANCH  20  26
ATOM     26  C   LIG    1       20.960 -28.838  13.156  0.00  0.00    +0.004 C 
BRANCH  26  28
ATOM     27  C   LIG    1       21.837 -26.413  13.293  0.00  0.00    +0.004 C 
ATOM     28  C   LIG    1       20.651 -27.335  13.053  0.00  0.00    -0.003 C 
ENDBRANCH  26  28
ENDBRANCH  20  26
ENDBRANCH  16  24
ENDBRANCH   1  17
BRANCH   1  29
ATOM     29  C   LIG    1       27.248 -29.597   9.717  0.00  0.00    +0.100 C 
ATOM     30 CL   LIG    1       28.166 -29.765  11.252  0.00  0.00    -0.120 Cl
ATOM     31  C   LIG    1       26.604 -28.208   9.685  0.00  0.00    +0.026 C 
ENDBRANCH   1  29
TORSDOF 10
ENDMDL
MODEL 7
REMARK VINA RESULT:      -5.2      6.768      9.527
REMARK  Name = *****
REMARK                            x       y       z     vdW  Elec       q    Type
REMARK                         _______ _______ _______ _____ _____    ______ ____
ROOT
ATOM      1  C   LIG    1       24.986 -30.497  10.809  0.00  0.00    +0.122 C 
ENDROOT
BRANCH   1   2
ATOM      2  C   LIG    1       25.754 -29.844  12.001  0.00  0.00    +0.172 C 
ATOM      3  C   LIG    1       27.206 -29.437  11.631  0.00  0.00    +0.176 C 
ATOM      4  C   LIG    1       28.080 -29.140  12.866  0.00  0.00    +0.177 C 
ATOM      5  C   LIG    1       27.926 -30.237  13.923  0.00  0.00    +0.184 C 
ATOM      6  C   LIG    1       26.446 -30.391  14.283  0.00  0.00    +0.207 C 
ATOM      7  O   LIG    1       25.780 -30.802  13.077  0.00  0.00    -0.356 OA
BRANCH   3   8
ATOM      8  O   LIG    1       27.893 -30.473  10.899  0.00  0.00    -0.387 OA
ATOM      9  H   LIG    1       27.423 -30.620  10.058  0.00  0.00    +0.210 HD
ENDBRANCH   3   8
BRANCH   4  10
ATOM     10  O   LIG    1       29.468 -29.094  12.486  0.00  0.00    -0.387 OA
ATOM     11  H   LIG    1       29.967 -29.322  13.300  0.00  0.00    +0.210 HD
ENDBRANCH   4  10
BRANCH   5  12
ATOM     12  O   LIG    1       28.780 -30.007  15.041  0.00  0.00    -0.386 OA
ATOM     13  H   LIG    1       29.347 -30.804  15.093  0.00  0.00    +0.210 HD
ENDBRANCH   5  12
BRANCH   6  14
ATOM     14  S   LIG    1       25.597 -28.961  15.074  0.00  0.00    -0.131 S 
ATOM     15  C   LIG    1       23.938 -29.650  15.295  0.00  0.00    +0.087 C 
ENDBRANCH   6  14
ENDBRANCH   1   2
BRANCH   1  17
ATOM     16  C   LIG    1       25.782 -30.238   8.450  0.00  0.00    +0.231 C 
ATOM     17  N   LIG    1       25.144 -29.724   9.557  0.00  0.00    -0.307 N 
ATOM     18  H   LIG    1       24.661 -28.837   9.438  0.00  0.00    +0.149 HD
ATOM     19  O   LIG    1       26.343 -31.343   8.481  0.00  0.00    -0.274 OA
BRANCH  16  24
ATOM     20  C   LIG    1       24.254 -27.911   5.854  0.00  0.00    +0.005 C 
ATOM     21  C   LIG    1       24.834 -29.064   5.009  0.00  0.00    +0.088 C 
ATOM     22  N   LIG    1       25.184 -30.160   5.950  0.00  0.00    -0.294 NA
ATOM     23  C   LIG    1       24.001 -30.990   6.206  0.00  0.00    +0.105 C 
ATOM     24  C   LIG    1       25.652 -29.414   7.155  0.00  0.00    +0.143 C 
ATOM     25  C   LIG    1       24.698 -28.231   7.283  0.00  0.00    +0.033 C 
BRANCH  20  26
ATOM     26  C   LIG    1       24.692 -26.524   5.354  0.00  0.00    +0.004 C 
BRANCH  26  28
ATOM     27  C   LIG    1       25.436 -24.480   6.747  0.00  0.00    +0.004 C 
ATOM     28  C   LIG    1       24.284 -25.336   6.241  0.00  0.00    -0.003 C 
ENDBRANCH  26  28
ENDBRANCH  20  26
ENDBRANCH  16  24
ENDBRANCH   1  17
BRANCH   1  29
ATOM     29  C   LIG    1       23.483 -30.836  11.097  0.00  0.00    +0.100 C 
ATOM     30 CL   LIG    1       22.674 -31.506   9.639  0.00  0.00    -0.120 Cl
ATOM     31  C   LIG    1       22.633 -29.682  11.638  0.00  0.00    +0.026 C 
ENDBRANCH   1  29
TORSDOF 10
ENDMDL
MODEL 8
REMARK VINA RESULT:      -5.1      3.795      8.385
REMARK  Name = *****
REMARK                            x       y       z     vdW  Elec       q    Type
REMARK                         _______ _______ _______ _____ _____    ______ ____
ROOT
ATOM      1  C   LIG    1       28.601 -19.999   6.700  0.00  0.00    +0.122 C 
ENDROOT
BRANCH   1   2
ATOM      2  C   LIG    1       27.068 -20.242   6.867  0.00  0.00    +0.172 C 
ATOM      3  C   LIG    1       26.689 -20.733   8.291  0.00  0.00    +0.176 C 
ATOM      4  C   LIG    1       25.266 -21.320   8.364  0.00  0.00    +0.177 C 
ATOM      5  C   LIG    1       25.017 -22.300   7.215  0.00  0.00    +0.184 C 
ATOM      6  C   LIG    1       25.287 -21.597   5.882  0.00  0.00    +0.207 C 
ATOM      7  O   LIG    1       26.677 -21.229   5.895  0.00  0.00    -0.356 OA
BRANCH   3   8
ATOM      8  O   LIG    1       27.572 -21.772   8.762  0.00  0.00    -0.387 OA
ATOM      9  H   LIG    1       27.232 -22.103   9.615  0.00  0.00    +0.210 HD
ENDBRANCH   3   8
BRANCH   4  10
ATOM     10  O   LIG    1       25.096 -22.044   9.598  0.00  0.00    -0.387 OA
ATOM     11  H   LIG    1       24.620 -22.866   9.352  0.00  0.00    +0.210 HD
ENDBRANCH   4  10
BRANCH   5  12
ATOM     12  O   LIG    1       23.728 -22.900   7.311  0.00  0.00    -0.386 OA
ATOM     13  H   LIG    1       23.900 -23.826   7.579  0.00  0.00    +0.210 HD
ENDBRANCH   5  12
BRANCH   6  14
ATOM     14  S   LIG    1       24.212 -20.174   5.424  0.00  0.00    -0.131 S 
ATOM     15  C   LIG    1       24.933 -19.723   3.826  0.00  0.00    +0.087 C 
ENDBRANCH   6  14
ENDBRANCH   1   2
BRANCH   1  17
ATOM     16  C   LIG    1       30.101 -19.895   8.701  0.00  0.00    +0.231 C 
ATOM     17  N   LIG    1       29.183 -19.298   7.866  0.00  0.00    -0.307 N 
ATOM     18  H   LIG    1       29.020 -18.303   7.999  0.00  0.00    +0.149 HD
ATOM     19  O   LIG    1       30.412 -21.088   8.573  0.00  0.00    -0.274 OA
BRANCH  16  24
ATOM     20  C   LIG    1       31.072 -16.678  10.489  0.00  0.00    +0.005 C 
ATOM     21  C   LIG    1       32.416 -17.416  10.316  0.00  0.00    +0.088 C 
ATOM     22  N   LIG    1       32.179 -18.535   9.368  0.00  0.00    -0.294 NA
ATOM     23  C   LIG    1       32.308 -18.052   7.989  0.00  0.00    +0.105 C 
ATOM     24  C   LIG    1       30.792 -18.965   9.716  0.00  0.00    +0.143 C 
ATOM     25  C   LIG    1       30.029 -17.670   9.968  0.00  0.00    +0.033 C 
BRANCH  20  26
ATOM     26  C   LIG    1       30.829 -16.209  11.934  0.00  0.00    +0.004 C 
BRANCH  26  28
ATOM     27  C   LIG    1       32.342 -16.693  13.970  0.00  0.00    +0.004 C 
ATOM     28  C   LIG    1       32.088 -15.839  12.737  0.00  0.00    -0.003 C 
ENDBRANCH  26  28
ENDBRANCH  20  26
ENDBRANCH  16  24
ENDBRANCH   1  17
BRANCH   1  29
ATOM     29  C   LIG    1       29.019 -19.324   5.347  0.00  0.00    +0.100 C 
ATOM     30 CL   LIG    1       30.764 -18.894   5.345  0.00  0.00    -0.120 Cl
ATOM     31  C   LIG    1       28.213 -18.086   4.944  0.00  0.00    +0.026 C 
ENDBRANCH   1  29
TORSDOF 10
ENDMDL
MODEL 9
REMARK VINA RESULT:      -5.0      7.103      9.833
REMARK  Name = *****
REMARK                            x       y       z     vdW  Elec       q    Type
REMARK                         _______ _______ _______ _____ _____    ______ ____
ROOT
ATOM      1  C   LIG    1       25.473 -31.415  11.830  0.00  0.00    +0.122 C 
ENDROOT
BRANCH   1   2
ATOM      2  C   LIG    1       26.129 -30.554  12.956  0.00  0.00    +0.172 C 
ATOM      3  C   LIG    1       25.264 -29.328  13.356  0.00  0.00    +0.176 C 
ATOM      4  C   LIG    1       26.045 -28.285  14.180  0.00  0.00    +0.177 C 
ATOM      5  C   LIG    1       27.401 -27.984  13.538  0.00  0.00    +0.184 C 
ATOM      6  C   LIG    1       28.182 -29.289  13.365  0.00  0.00    +0.207 C 
ATOM      7  O   LIG    1       27.408 -30.105  12.469  0.00  0.00    -0.356 OA
BRANCH   3   8
ATOM      8  O   LIG    1       24.753 -28.622  12.206  0.00  0.00    -0.387 OA
ATOM      9  H   LIG    1       24.479 -29.279  11.538  0.00  0.00    +0.210 HD
ENDBRANCH   3   8
BRANCH   4  10
ATOM     10  O   LIG    1       25.306 -27.050  14.236  0.00  0.00    -0.387 OA
ATOM     11  H   LIG    1       24.595 -27.143  13.566  0.00  0.00    +0.210 HD
ENDBRANCH   4  10
BRANCH   5  12
ATOM     12  O   LIG    1       28.104 -26.972  14.255  0.00  0.00    -0.386 OA
ATOM     13  H   LIG    1       29.023 -27.303  14.323  0.00  0.00    +0.210 HD
ENDBRANCH   5  12
BRANCH   6  14
ATOM     14  S   LIG    1       28.662 -30.216  14.882  0.00  0.00    -0.131 S 
ATOM     15  C   LIG    1       30.434 -29.854  14.938  0.00  0.00    +0.087 C 
ENDBRANCH   6  14
ENDBRANCH   1   2
BRANCH   1  17
ATOM     16  C   LIG    1       26.178 -31.229   9.436  0.00  0.00    +0.231 C 
ATOM     17  N   LIG    1       25.495 -30.726  10.520  0.00  0.00    -0.307 N 
ATOM     18  H   LIG    1       24.888 -29.928  10.351  0.00  0.00    +0.149 HD
ATOM     19  O   LIG    1       26.893 -32.237   9.532  0.00  0.00    -0.274 OA
BRANCH  16  24
ATOM     20  C   LIG    1       24.427 -29.066   6.839  0.00  0.00    +0.005 C 
ATOM     21  C   LIG    1       24.800 -30.341   6.056  0.00  0.00    +0.088 C 
ATOM     22  N   LIG    1       25.217 -31.360   7.054  0.00  0.00    -0.294 NA
ATOM     23  C   LIG    1       24.037 -32.063   7.568  0.00  0.00    +0.105 C 
ATOM     24  C   LIG    1       25.908 -30.533   8.089  0.00  0.00    +0.143 C 
ATOM     25  C   LIG    1       25.060 -29.272   8.217  0.00  0.00    +0.033 C 
BRANCH  20  26
ATOM     26  C   LIG    1       24.871 -27.776   6.129  0.00  0.00    +0.004 C 
BRANCH  26  28
ATOM     27  C   LIG    1       25.777 -25.418   6.667  0.00  0.00    +0.004 C 
ATOM     28  C   LIG    1       25.900 -26.919   6.885  0.00  0.00    -0.003 C 
ENDBRANCH  26  28
ENDBRANCH  20  26
ENDBRANCH  16  24
ENDBRANCH   1  17
BRANCH   1  29
ATOM     29  C   LIG    1       24.047 -31.972  12.170  0.00  0.00    +0.100 C 
ATOM     30 CL   LIG    1       24.041 -33.768  12.207  0.00  0.00    -0.120 Cl
ATOM     31  C   LIG    1       22.913 -31.500  11.256  0.00  0.00    +0.026 C 
ENDBRANCH   1  29
TORSDOF 10
ENDMDL
