MODEL 1
REMARK VINA RESULT:      -6.3      0.000      0.000
REMARK  Name = *****
REMARK                            x       y       z     vdW  Elec       q    Type
REMARK                         _______ _______ _______ _____ _____    ______ ____
ROOT
ATOM      1  N   LIG    1       24.539 -24.714   6.243  0.00  0.00    +0.239 N 
ATOM      2  C   LIG    1       24.359 -26.224   6.066  0.00  0.00    +0.192 C 
ATOM      3  C   LIG    1       24.859 -24.088   4.866  0.00  0.00    +0.192 C 
ENDROOT
BRANCH   1   4
ATOM      4  C   LIG    1       25.722 -24.425   7.188  0.00  0.00    +0.132 C 
BRANCH   4   5
ATOM      5  C   LIG    1       26.362 -23.047   6.935  0.00  0.00    +0.051 C 
BRANCH   5   6
ATOM      6  C   LIG    1       26.362 -22.164   8.189  0.00  0.00    +0.005 C 
BRANCH   6   7
ATOM      7  C   LIG    1       26.718 -20.708   7.848  0.00  0.00    +0.000 C 
BRANCH   7   8
ATOM      8  C   LIG    1       26.862 -20.429   6.340  0.00  0.00    -0.000 C 
BRANCH   8   9
ATOM      9  C   LIG    1       28.254 -19.937   5.929  0.00  0.00    -0.000 C 
BRANCH   9  11
ATOM     10  C   LIG    1       29.988 -18.588   7.319  0.00  0.00    +0.004 C 
ATOM     11  C   LIG    1       29.311 -19.926   7.045  0.00  0.00    -0.003 C 
ENDBRANCH   9  11
ENDBRANCH   8   9
ENDBRANCH   7   8
ENDBRANCH   6   7
ENDBRANCH   5   6
ENDBRANCH   4   5
ENDBRANCH   1   4
BRANCH   1  12
ATOM     12  C   LIG    1       23.198 -24.089   6.745  0.00  0.00    +0.132 C 
BRANCH  12  13
ATOM     13  C   LIG    1       22.815 -22.656   6.254  0.00  0.00    +0.051 C 
BRANCH  13  14
ATOM     14  C   LIG    1       23.093 -21.446   7.162  0.00  0.00    +0.005 C 
BRANCH  14  15
ATOM     15  C   LIG    1       23.229 -20.091   6.403  0.00  0.00    +0.000 C 
BRANCH  15  16
ATOM     16  C   LIG    1       22.418 -19.947   5.089  0.00  0.00    -0.000 C 
BRANCH  16  17
ATOM     17  C   LIG    1       23.109 -19.049   4.026  0.00  0.00    -0.000 C 
BRANCH  17  18
ATOM     18  C   LIG    1       24.543 -19.499   3.674  0.00  0.00    -0.003 C 
ATOM     19  C   LIG    1       25.492 -18.326   3.422  0.00  0.00    +0.004 C 
ENDBRANCH  17  18
ENDBRANCH  16  17
ENDBRANCH  15  16
ENDBRANCH  14  15
ENDBRANCH  13  14
ENDBRANCH  12  13
ENDBRANCH   1  12
TORSDOF 14
ENDMDL
MODEL 2
REMARK VINA RESULT:      -6.1      2.117      6.720
REMARK  Name = *****
REMARK                            x       y       z     vdW  Elec       q    Type
REMARK                         _______ _______ _______ _____ _____    ______ ____
ROOT
ATOM      1  N   LIG    1       26.879 -21.331   7.405  0.00  0.00    +0.239 N 
ATOM      2  C   LIG    1       26.306 -20.548   8.588  0.00  0.00    +0.192 C 
ATOM      3  C   LIG    1       26.596 -20.543   6.105  0.00  0.00    +0.192 C 
ENDROOT
BRANCH   1   4
ATOM      4  C   LIG    1       26.191 -22.706   7.291  0.00  0.00    +0.132 C 
BRANCH   4   5
ATOM      5  C   LIG    1       25.242 -22.799   6.082  0.00  0.00    +0.051 C 
BRANCH   5   6
ATOM      6  C   LIG    1       23.810 -23.164   6.490  0.00  0.00    +0.005 C 
BRANCH   6   7
ATOM      7  C   LIG    1       23.179 -22.066   7.363  0.00  0.00    +0.000 C 
BRANCH   7   8
ATOM      8  C   LIG    1       23.172 -20.669   6.714  0.00  0.00    -0.000 C 
BRANCH   8   9
ATOM      9  C   LIG    1       22.473 -20.619   5.351  0.00  0.00    -0.000 C 
BRANCH   9  11
ATOM     10  C   LIG    1       23.725 -19.036   3.714  0.00  0.00    +0.004 C 
ATOM     11  C   LIG    1       22.527 -19.264   4.626  0.00  0.00    -0.003 C 
ENDBRANCH   9  11
ENDBRANCH   8   9
ENDBRANCH   7   8
ENDBRANCH   6   7
ENDBRANCH   5   6
ENDBRANCH   4   5
ENDBRANCH   1   4
BRANCH   1  12
ATOM     12  C   LIG    1       28.429 -21.444   7.561  0.00  0.00    +0.132 C 
BRANCH  12  13
ATOM     13  C   LIG    1       29.330 -20.399   6.826  0.00  0.00    +0.051 C 
BRANCH  13  14
ATOM     14  C   LIG    1       29.735 -19.106   7.553  0.00  0.00    +0.005 C 
BRANCH  14  15
ATOM     15  C   LIG    1       31.275 -18.884   7.660  0.00  0.00    +0.000 C 
BRANCH  15  16
ATOM     16  C   LIG    1       31.766 -17.968   8.810  0.00  0.00    -0.000 C 
BRANCH  16  17
ATOM     17  C   LIG    1       30.642 -17.097   9.437  0.00  0.00    -0.000 C 
BRANCH  17  18
ATOM     18  C   LIG    1       30.443 -17.338  10.949  0.00  0.00    -0.003 C 
ATOM     19  C   LIG    1       31.540 -16.700  11.804  0.00  0.00    +0.004 C 
ENDBRANCH  17  18
ENDBRANCH  16  17
ENDBRANCH  15  16
ENDBRANCH  14  15
ENDBRANCH  13  14
ENDBRANCH  12  13
ENDBRANCH   1  12
TORSDOF 14
ENDMDL
MODEL 3
REMARK VINA RESULT:      -6.1      1.862      3.917
REMARK  Name = *****
REMARK                            x       y       z     vdW  Elec       q    Type
REMARK                         _______ _______ _______ _____ _____    ______ ____
ROOT
ATOM      1  N   LIG    1       26.776 -21.396   7.394  0.00  0.00    +0.239 N 
ATOM      2  C   LIG    1       26.334 -20.875   6.026  0.00  0.00    +0.192 C 
ATOM      3  C   LIG    1       26.120 -20.528   8.492  0.00  0.00    +0.192 C 
ENDROOT
BRANCH   1   4
ATOM      4  C   LIG    1       28.307 -21.278   7.541  0.00  0.00    +0.132 C 
BRANCH   4   5
ATOM      5  C   LIG    1       28.768 -19.834   7.813  0.00  0.00    +0.051 C 
BRANCH   5   6
ATOM      6  C   LIG    1       29.614 -19.266   6.667  0.00  0.00    +0.005 C 
BRANCH   6   7
ATOM      7  C   LIG    1       31.112 -19.287   7.012  0.00  0.00    +0.000 C 
BRANCH   7   8
ATOM      8  C   LIG    1       31.417 -19.116   8.513  0.00  0.00    -0.000 C 
BRANCH   8   9
ATOM      9  C   LIG    1       31.886 -17.708   8.896  0.00  0.00    -0.000 C 
BRANCH   9  11
ATOM     10  C   LIG    1       30.402 -17.478  11.018  0.00  0.00    +0.004 C 
ATOM     11  C   LIG    1       30.881 -16.871   9.705  0.00  0.00    -0.003 C 
ENDBRANCH   9  11
ENDBRANCH   8   9
ENDBRANCH   7   8
ENDBRANCH   6   7
ENDBRANCH   5   6
ENDBRANCH   4   5
ENDBRANCH   1   4
BRANCH   1  12
ATOM     12  C   LIG    1       26.265 -22.860   7.581  0.00  0.00    +0.132 C 
BRANCH  12  13
ATOM     13  C   LIG    1       25.409 -23.501   6.441  0.00  0.00    +0.051 C 
BRANCH  13  14
ATOM     14  C   LIG    1       23.908 -23.746   6.669  0.00  0.00    +0.005 C 
BRANCH  14  15
ATOM     15  C   LIG    1       23.097 -22.469   7.045  0.00  0.00    +0.000 C 
BRANCH  15  16
ATOM     16  C   LIG    1       22.520 -21.642   5.867  0.00  0.00    -0.000 C 
BRANCH  16  17
ATOM     17  C   LIG    1       22.914 -20.140   5.908  0.00  0.00    -0.000 C 
BRANCH  17  18
ATOM     18  C   LIG    1       22.441 -19.342   4.674  0.00  0.00    -0.003 C 
ATOM     19  C   LIG    1       23.591 -18.924   3.756  0.00  0.00    +0.004 C 
ENDBRANCH  17  18
ENDBRANCH  16  17
ENDBRANCH  15  16
ENDBRANCH  14  15
ENDBRANCH  13  14
ENDBRANCH  12  13
ENDBRANCH   1  12
TORSDOF 14
ENDMDL
MODEL 4
REMARK VINA RESULT:      -6.0      0.687      4.278
REMARK  Name = *****
REMARK                            x       y       z     vdW  Elec       q    Type
REMARK                         _______ _______ _______ _____ _____    ______ ____
ROOT
ATOM      1  N   LIG    1       24.479 -24.653   6.216  0.00  0.00    +0.239 N 
ATOM      2  C   LIG    1       24.740 -24.027   4.845  0.00  0.00    +0.192 C 
ATOM      3  C   LIG    1       24.352 -26.185   6.046  0.00  0.00    +0.192 C 
ENDROOT
BRANCH   1   4
ATOM      4  C   LIG    1       23.153 -24.124   6.801  0.00  0.00    +0.132 C 
BRANCH   4   5
ATOM      5  C   LIG    1       22.736 -22.771   6.198  0.00  0.00    +0.051 C 
BRANCH   5   6
ATOM      6  C   LIG    1       23.071 -21.592   7.119  0.00  0.00    +0.005 C 
BRANCH   6   7
ATOM      7  C   LIG    1       23.239 -20.288   6.322  0.00  0.00    +0.000 C 
BRANCH   7   8
ATOM      8  C   LIG    1       22.763 -20.376   4.859  0.00  0.00    -0.000 C 
BRANCH   8   9
ATOM      9  C   LIG    1       23.902 -20.502   3.842  0.00  0.00    -0.000 C 
BRANCH   9  11
ATOM     10  C   LIG    1       25.547 -18.513   3.530  0.00  0.00    +0.004 C 
ATOM     11  C   LIG    1       25.224 -19.824   4.237  0.00  0.00    -0.003 C 
ENDBRANCH   9  11
ENDBRANCH   8   9
ENDBRANCH   7   8
ENDBRANCH   6   7
ENDBRANCH   5   6
ENDBRANCH   4   5
ENDBRANCH   1   4
BRANCH   1  12
ATOM     12  C   LIG    1       25.701 -24.381   7.150  0.00  0.00    +0.132 C 
BRANCH  12  13
ATOM     13  C   LIG    1       26.389 -22.980   7.087  0.00  0.00    +0.051 C 
BRANCH  13  14
ATOM     14  C   LIG    1       26.366 -22.069   8.326  0.00  0.00    +0.005 C 
BRANCH  14  15
ATOM     15  C   LIG    1       26.645 -20.565   8.024  0.00  0.00    +0.000 C 
BRANCH  15  16
ATOM     16  C   LIG    1       27.798 -20.259   7.032  0.00  0.00    -0.000 C 
BRANCH  16  17
ATOM     17  C   LIG    1       29.044 -19.619   7.703  0.00  0.00    -0.000 C 
BRANCH  17  18
ATOM     18  C   LIG    1       29.979 -18.896   6.710  0.00  0.00    -0.003 C 
ATOM     19  C   LIG    1       29.256 -18.420   5.448  0.00  0.00    +0.004 C 
ENDBRANCH  17  18
ENDBRANCH  16  17
ENDBRANCH  15  16
ENDBRANCH  14  15
ENDBRANCH  13  14
ENDBRANCH  12  13
ENDBRANCH   1  12
TORSDOF 14
ENDMDL
MODEL 5
REMARK VINA RESULT:      -5.8      1.739      6.335
REMARK  Name = *****
REMARK                            x       y       z     vdW  Elec       q    Type
REMARK                         _______ _______ _______ _____ _____    ______ ____
ROOT
ATOM      1  N   LIG    1       26.282 -21.700   7.366  0.00  0.00    +0.239 N 
ATOM      2  C   LIG    1       26.082 -23.214   7.267  0.00  0.00    +0.192 C 
ATOM      3  C   LIG    1       25.921 -21.244   8.798  0.00  0.00    +0.192 C 
ENDROOT
BRANCH   1   4
ATOM      4  C   LIG    1       25.344 -20.973   6.380  0.00  0.00    +0.132 C 
BRANCH   4   5
ATOM      5  C   LIG    1       23.919 -20.799   6.935  0.00  0.00    +0.051 C 
BRANCH   5   6
ATOM      6  C   LIG    1       22.889 -21.642   6.174  0.00  0.00    +0.005 C 
BRANCH   6   7
ATOM      7  C   LIG    1       22.247 -20.843   5.028  0.00  0.00    +0.000 C 
BRANCH   7   8
ATOM      8  C   LIG    1       22.318 -19.315   5.206  0.00  0.00    -0.000 C 
BRANCH   8   9
ATOM      9  C   LIG    1       22.979 -18.582   4.033  0.00  0.00    -0.000 C 
BRANCH   9  11
ATOM     10  C   LIG    1       25.505 -18.489   3.428  0.00  0.00    +0.004 C 
ATOM     11  C   LIG    1       24.203 -19.281   3.419  0.00  0.00    -0.003 C 
ENDBRANCH   9  11
ENDBRANCH   8   9
ENDBRANCH   7   8
ENDBRANCH   6   7
ENDBRANCH   5   6
ENDBRANCH   4   5
ENDBRANCH   1   4
BRANCH   1  12
ATOM     12  C   LIG    1       27.788 -21.360   7.127  0.00  0.00    +0.132 C 
BRANCH  12  13
ATOM     13  C   LIG    1       28.140 -20.156   6.196  0.00  0.00    +0.051 C 
BRANCH  13  14
ATOM     14  C   LIG    1       29.208 -19.143   6.640  0.00  0.00    +0.005 C 
BRANCH  14  15
ATOM     15  C   LIG    1       30.267 -19.717   7.630  0.00  0.00    +0.000 C 
BRANCH  15  16
ATOM     16  C   LIG    1       31.653 -19.022   7.643  0.00  0.00    -0.000 C 
BRANCH  16  17
ATOM     17  C   LIG    1       31.802 -17.949   8.756  0.00  0.00    -0.000 C 
BRANCH  17  18
ATOM     18  C   LIG    1       30.845 -18.158   9.949  0.00  0.00    -0.003 C 
ATOM     19  C   LIG    1       30.571 -16.870  10.728  0.00  0.00    +0.004 C 
ENDBRANCH  17  18
ENDBRANCH  16  17
ENDBRANCH  15  16
ENDBRANCH  14  15
ENDBRANCH  13  14
ENDBRANCH  12  13
ENDBRANCH   1  12
TORSDOF 14
ENDMDL
MODEL 6
REMARK VINA RESULT:      -5.8      2.011      4.874
REMARK  Name = *****
REMARK                            x       y       z     vdW  Elec       q    Type
REMARK                         _______ _______ _______ _____ _____    ______ ____
ROOT
ATOM      1  N   LIG    1       26.721 -20.839   7.415  0.00  0.00    +0.239 N 
ATOM      2  C   LIG    1       25.977 -20.557   8.721  0.00  0.00    +0.192 C 
ATOM      3  C   LIG    1       26.907 -22.367   7.270  0.00  0.00    +0.192 C 
ENDROOT
BRANCH   1   4
ATOM      4  C   LIG    1       28.119 -20.187   7.445  0.00  0.00    +0.132 C 
BRANCH   4   5
ATOM      5  C   LIG    1       28.527 -19.593   6.084  0.00  0.00    +0.051 C 
BRANCH   5   6
ATOM      6  C   LIG    1       29.763 -18.692   6.188  0.00  0.00    +0.005 C 
BRANCH   6   7
ATOM      7  C   LIG    1       30.904 -19.390   6.945  0.00  0.00    +0.000 C 
BRANCH   7   8
ATOM      8  C   LIG    1       31.434 -18.600   8.157  0.00  0.00    -0.000 C 
BRANCH   8   9
ATOM      9  C   LIG    1       30.412 -17.634   8.765  0.00  0.00    -0.000 C 
BRANCH   9  11
ATOM     10  C   LIG    1       31.096 -16.564  11.034  0.00  0.00    +0.004 C 
ATOM     11  C   LIG    1       30.317 -17.649  10.300  0.00  0.00    -0.003 C 
ENDBRANCH   9  11
ENDBRANCH   8   9
ENDBRANCH   7   8
ENDBRANCH   6   7
ENDBRANCH   5   6
ENDBRANCH   4   5
ENDBRANCH   1   4
BRANCH   1  12
ATOM     12  C   LIG    1       25.855 -20.353   6.209  0.00  0.00    +0.132 C 
BRANCH  12  13
ATOM     13  C   LIG    1       25.064 -21.418   5.384  0.00  0.00    +0.051 C 
BRANCH  13  14
ATOM     14  C   LIG    1       23.554 -21.590   5.620  0.00  0.00    +0.005 C 
BRANCH  14  15
ATOM     15  C   LIG    1       23.191 -22.394   6.905  0.00  0.00    +0.000 C 
BRANCH  15  16
ATOM     16  C   LIG    1       22.965 -23.918   6.729  0.00  0.00    -0.000 C 
BRANCH  16  17
ATOM     17  C   LIG    1       24.280 -24.728   6.562  0.00  0.00    -0.000 C 
BRANCH  17  18
ATOM     18  C   LIG    1       24.187 -25.846   5.500  0.00  0.00    -0.003 C 
ATOM     19  C   LIG    1       25.556 -26.289   4.980  0.00  0.00    +0.004 C 
ENDBRANCH  17  18
ENDBRANCH  16  17
ENDBRANCH  15  16
ENDBRANCH  14  15
ENDBRANCH  13  14
ENDBRANCH  12  13
ENDBRANCH   1  12
TORSDOF 14
ENDMDL
MODEL 7
REMARK VINA RESULT:      -5.8      1.667      6.199
REMARK  Name = *****
REMARK                            x       y       z     vdW  Elec       q    Type
REMARK                         _______ _______ _______ _____ _____    ______ ____
ROOT
ATOM      1  N   LIG    1       24.384 -20.215   4.641  0.00  0.00    +0.239 N 
ATOM      2  C   LIG    1       24.176 -18.936   3.827  0.00  0.00    +0.192 C 
ATOM      3  C   LIG    1       24.165 -21.434   3.715  0.00  0.00    +0.192 C 
ENDROOT
BRANCH   1   4
ATOM      4  C   LIG    1       23.355 -20.293   5.787  0.00  0.00    +0.132 C 
BRANCH   4   5
ATOM      5  C   LIG    1       22.670 -21.669   5.879  0.00  0.00    +0.051 C 
BRANCH   5   6
ATOM      6  C   LIG    1       23.144 -22.476   7.094  0.00  0.00    +0.005 C 
BRANCH   6   7
ATOM      7  C   LIG    1       23.724 -23.835   6.671  0.00  0.00    +0.000 C 
BRANCH   7   8
ATOM      8  C   LIG    1       25.250 -23.953   6.848  0.00  0.00    -0.000 C 
BRANCH   8   9
ATOM      9  C   LIG    1       25.796 -25.366   6.614  0.00  0.00    -0.000 C 
BRANCH   9  11
ATOM     10  C   LIG    1       24.493 -27.373   5.599  0.00  0.00    +0.004 C 
ATOM     11  C   LIG    1       25.269 -26.083   5.361  0.00  0.00    -0.003 C 
ENDBRANCH   9  11
ENDBRANCH   8   9
ENDBRANCH   7   8
ENDBRANCH   6   7
ENDBRANCH   5   6
ENDBRANCH   4   5
ENDBRANCH   1   4
BRANCH   1  12
ATOM     12  C   LIG    1       25.860 -20.269   5.151  0.00  0.00    +0.132 C 
BRANCH  12  13
ATOM     13  C   LIG    1       26.111 -20.467   6.681  0.00  0.00    +0.051 C 
BRANCH  13  14
ATOM     14  C   LIG    1       27.536 -20.313   7.239  0.00  0.00    +0.005 C 
BRANCH  14  15
ATOM     15  C   LIG    1       28.640 -20.154   6.150  0.00  0.00    +0.000 C 
BRANCH  15  16
ATOM     16  C   LIG    1       29.889 -19.325   6.545  0.00  0.00    -0.000 C 
BRANCH  16  17
ATOM     17  C   LIG    1       29.919 -18.918   8.044  0.00  0.00    -0.000 C 
BRANCH  17  18
ATOM     18  C   LIG    1       31.091 -19.542   8.832  0.00  0.00    -0.003 C 
ATOM     19  C   LIG    1       31.058 -21.072   8.838  0.00  0.00    +0.004 C 
ENDBRANCH  17  18
ENDBRANCH  16  17
ENDBRANCH  15  16
ENDBRANCH  14  15
ENDBRANCH  13  14
ENDBRANCH  12  13
ENDBRANCH   1  12
TORSDOF 14
ENDMDL
MODEL 8
REMARK VINA RESULT:      -5.7      1.709      6.435
REMARK  Name = *****
REMARK                            x       y       z     vdW  Elec       q    Type
REMARK                         _______ _______ _______ _____ _____    ______ ____
ROOT
ATOM      1  N   LIG    1       24.504 -21.224   5.797  0.00  0.00    +0.239 N 
ATOM      2  C   LIG    1       23.657 -21.025   7.055  0.00  0.00    +0.192 C 
ATOM      3  C   LIG    1       23.753 -20.615   4.591  0.00  0.00    +0.192 C 
ENDROOT
BRANCH   1   4
ATOM      4  C   LIG    1       24.709 -22.729   5.524  0.00  0.00    +0.132 C 
BRANCH   4   5
ATOM      5  C   LIG    1       24.240 -23.614   6.693  0.00  0.00    +0.051 C 
BRANCH   5   6
ATOM      6  C   LIG    1       23.993 -25.065   6.263  0.00  0.00    +0.005 C 
BRANCH   6   7
ATOM      7  C   LIG    1       24.936 -25.480   5.122  0.00  0.00    +0.000 C 
BRANCH   7   8
ATOM      8  C   LIG    1       25.971 -26.551   5.515  0.00  0.00    -0.000 C 
BRANCH   8   9
ATOM      9  C   LIG    1       25.813 -27.074   6.947  0.00  0.00    -0.000 C 
BRANCH   9  11
ATOM     10  C   LIG    1       24.189 -28.892   6.044  0.00  0.00    +0.004 C 
ATOM     11  C   LIG    1       25.238 -28.494   7.076  0.00  0.00    -0.003 C 
ENDBRANCH   9  11
ENDBRANCH   8   9
ENDBRANCH   7   8
ENDBRANCH   6   7
ENDBRANCH   5   6
ENDBRANCH   4   5
ENDBRANCH   1   4
BRANCH   1  12
ATOM     12  C   LIG    1       25.853 -20.452   5.954  0.00  0.00    +0.132 C 
BRANCH  12  13
ATOM     13  C   LIG    1       26.587 -20.508   7.332  0.00  0.00    +0.051 C 
BRANCH  13  14
ATOM     14  C   LIG    1       27.632 -21.608   7.588  0.00  0.00    +0.005 C 
BRANCH  14  15
ATOM     15  C   LIG    1       29.107 -21.104   7.599  0.00  0.00    +0.000 C 
BRANCH  15  16
ATOM     16  C   LIG    1       29.356 -19.675   7.050  0.00  0.00    -0.000 C 
BRANCH  16  17
ATOM     17  C   LIG    1       30.860 -19.308   6.929  0.00  0.00    -0.000 C 
BRANCH  17  18
ATOM     18  C   LIG    1       31.413 -18.548   8.154  0.00  0.00    -0.003 C 
ATOM     19  C   LIG    1       30.328 -17.800   8.932  0.00  0.00    +0.004 C 
ENDBRANCH  17  18
ENDBRANCH  16  17
ENDBRANCH  15  16
ENDBRANCH  14  15
ENDBRANCH  13  14
ENDBRANCH  12  13
ENDBRANCH   1  12
TORSDOF 14
ENDMDL
MODEL 9
REMARK VINA RESULT:      -5.7      1.784      5.186
REMARK  Name = *****
REMARK                            x       y       z     vdW  Elec       q    Type
REMARK                         _______ _______ _______ _____ _____    ______ ____
ROOT
ATOM      1  N   LIG    1       24.025 -21.296   5.862  0.00  0.00    +0.239 N 
ATOM      2  C   LIG    1       24.300 -21.844   4.460  0.00  0.00    +0.192 C 
ATOM      3  C   LIG    1       22.833 -20.315   5.787  0.00  0.00    +0.192 C 
ENDROOT
BRANCH   1   4
ATOM      4  C   LIG    1       25.253 -20.520   6.382  0.00  0.00    +0.132 C 
BRANCH   4   5
ATOM      5  C   LIG    1       25.450 -20.668   7.902  0.00  0.00    +0.051 C 
BRANCH   5   6
ATOM      6  C   LIG    1       26.915 -20.500   8.320  0.00  0.00    +0.005 C 
BRANCH   6   7
ATOM      7  C   LIG    1       27.830 -21.475   7.560  0.00  0.00    +0.000 C 
BRANCH   7   8
ATOM      8  C   LIG    1       29.158 -20.856   7.086  0.00  0.00    -0.000 C 
BRANCH   8   9
ATOM      9  C   LIG    1       29.289 -19.358   7.386  0.00  0.00    -0.000 C 
BRANCH   9  11
ATOM     10  C   LIG    1       30.127 -17.765   9.261  0.00  0.00    +0.004 C 
ATOM     11  C   LIG    1       30.402 -18.975   8.376  0.00  0.00    -0.003 C 
ENDBRANCH   9  11
ENDBRANCH   8   9
ENDBRANCH   7   8
ENDBRANCH   6   7
ENDBRANCH   5   6
ENDBRANCH   4   5
ENDBRANCH   1   4
BRANCH   1  12
ATOM     12  C   LIG    1       23.612 -22.471   6.804  0.00  0.00    +0.132 C 
BRANCH  12  13
ATOM     13  C   LIG    1       24.127 -23.909   6.472  0.00  0.00    +0.051 C 
BRANCH  13  14
ATOM     14  C   LIG    1       25.584 -24.284   6.793  0.00  0.00    +0.005 C 
BRANCH  14  15
ATOM     15  C   LIG    1       25.840 -25.816   6.923  0.00  0.00    +0.000 C 
BRANCH  15  16
ATOM     16  C   LIG    1       26.402 -26.534   5.669  0.00  0.00    -0.000 C 
BRANCH  16  17
ATOM     17  C   LIG    1       25.505 -27.695   5.161  0.00  0.00    -0.000 C 
BRANCH  17  18
ATOM     18  C   LIG    1       24.281 -27.972   6.061  0.00  0.00    -0.003 C 
ATOM     19  C   LIG    1       24.443 -29.228   6.919  0.00  0.00    +0.004 C 
ENDBRANCH  17  18
ENDBRANCH  16  17
ENDBRANCH  15  16
ENDBRANCH  14  15
ENDBRANCH  13  14
ENDBRANCH  12  13
ENDBRANCH   1  12
TORSDOF 14
ENDMDL
