MODEL 1
REMARK VINA RESULT:      -4.8      0.000      0.000
REMARK  Name = *****
REMARK                            x       y       z     vdW  Elec       q    Type
REMARK                         _______ _______ _______ _____ _____    ______ ____
ROOT
ATOM      1  C   LIG    1       22.314 -18.714   4.658  0.00  0.00    +0.084 C 
ATOM      2  C   LIG    1       20.986 -18.701   3.898  0.00  0.00    +0.027 C 
ENDROOT
BRANCH   1   3
ATOM      3  N   LIG    1       23.129 -17.487   4.383  0.00  0.00    -0.305 NA
ATOM      4  H   LIG    1       23.566 -17.586   3.464  0.00  0.00    +0.123 HD
BRANCH   3   6
ATOM      5  C   LIG    1       22.107 -15.862   5.930  0.00  0.00    +0.027 C 
ATOM      6  C   LIG    1       22.397 -16.195   4.461  0.00  0.00    +0.088 C 
BRANCH   6   7
ATOM      7  C   LIG    1       23.241 -15.039   3.840  0.00  0.00    +0.247 C 
BRANCH   7   8
ATOM      8  O   LIG    1       24.128 -14.434   4.807  0.00  0.00    -0.490 OA
BRANCH   8   9
ATOM      9  C   LIG    1       25.378 -14.081   4.345  0.00  0.00    +0.121 A 
ATOM     10  C   LIG    1       26.248 -13.458   5.253  0.00  0.00    +0.045 A 
ATOM     11  C   LIG    1       27.580 -13.222   4.899  0.00  0.00    +0.004 A 
ATOM     12  C   LIG    1       28.040 -13.564   3.624  0.00  0.00    +0.000 A 
ATOM     13  C   LIG    1       27.149 -14.085   2.693  0.00  0.00    +0.004 A 
ATOM     14  C   LIG    1       25.819 -14.318   3.046  0.00  0.00    +0.045 A 
ENDBRANCH   8   9
ENDBRANCH   7   8
ENDBRANCH   6   7
ENDBRANCH   3   6
ENDBRANCH   1   3
BRANCH   1  15
ATOM     15  C   LIG    1       23.176 -19.974   4.265  0.00  0.00    +0.161 C 
BRANCH  15  16
ATOM     16  C   LIG    1       24.484 -20.148   5.014  0.00  0.00    -0.018 A 
ATOM     17  C   LIG    1       25.709 -19.846   4.401  0.00  0.00    +0.010 A 
ATOM     18  C   LIG    1       26.917 -19.981   5.099  0.00  0.00    +0.046 A 
ATOM     19  C   LIG    1       26.904 -20.421   6.421  0.00  0.00    +0.117 A 
ATOM     20  C   LIG    1       25.706 -20.717   7.053  0.00  0.00    +0.046 A 
ATOM     21  C   LIG    1       24.500 -20.580   6.354  0.00  0.00    +0.010 A 
BRANCH  19  22
ATOM     22  O   LIG    1       28.098 -20.543   7.062  0.00  0.00    -0.507 OA
ATOM     23  H   LIG    1       28.617 -21.239   6.626  0.00  0.00    +0.292 HD
ENDBRANCH  19  22
ENDBRANCH  15  16
BRANCH  15  24
ATOM     24  O   LIG    1       23.492 -19.876   2.866  0.00  0.00    -0.386 OA
ATOM     25  H   LIG    1       23.934 -20.727   2.659  0.00  0.00    +0.210 HD
ENDBRANCH  15  24
ENDBRANCH   1  15
TORSDOF 9
ENDMDL
MODEL 2
REMARK VINA RESULT:      -4.7      2.108      4.457
REMARK  Name = *****
REMARK                            x       y       z     vdW  Elec       q    Type
REMARK                         _______ _______ _______ _____ _____    ______ ____
ROOT
ATOM      1  C   LIG    1       27.287 -20.428   5.647  0.00  0.00    +0.084 C 
ATOM      2  C   LIG    1       27.737 -20.049   7.060  0.00  0.00    +0.027 C 
ENDROOT
BRANCH   1   3
ATOM      3  N   LIG    1       27.151 -19.227   4.762  0.00  0.00    -0.305 NA
ATOM      4  H   LIG    1       26.170 -18.941   4.747  0.00  0.00    +0.123 HD
BRANCH   3   6
ATOM      5  C   LIG    1       29.475 -18.525   5.195  0.00  0.00    +0.027 C 
ATOM      6  C   LIG    1       28.013 -18.067   5.111  0.00  0.00    +0.088 C 
BRANCH   6   7
ATOM      7  C   LIG    1       27.898 -16.944   4.033  0.00  0.00    +0.247 C 
BRANCH   7   8
ATOM      8  O   LIG    1       26.566 -16.857   3.480  0.00  0.00    -0.490 OA
BRANCH   8   9
ATOM      9  C   LIG    1       26.008 -15.597   3.438  0.00  0.00    +0.121 A 
ATOM     10  C   LIG    1       26.779 -14.571   2.871  0.00  0.00    +0.045 A 
ATOM     11  C   LIG    1       26.215 -13.311   2.650  0.00  0.00    +0.004 A 
ATOM     12  C   LIG    1       24.896 -13.054   3.032  0.00  0.00    +0.000 A 
ATOM     13  C   LIG    1       24.169 -14.042   3.687  0.00  0.00    +0.004 A 
ATOM     14  C   LIG    1       24.733 -15.298   3.909  0.00  0.00    +0.045 A 
ENDBRANCH   8   9
ENDBRANCH   7   8
ENDBRANCH   6   7
ENDBRANCH   3   6
ENDBRANCH   1   3
BRANCH   1  15
ATOM     15  C   LIG    1       25.897 -21.173   5.680  0.00  0.00    +0.161 C 
BRANCH  15  16
ATOM     16  C   LIG    1       24.700 -20.374   5.200  0.00  0.00    -0.018 A 
ATOM     17  C   LIG    1       24.762 -19.630   4.013  0.00  0.00    +0.010 A 
ATOM     18  C   LIG    1       23.650 -18.911   3.553  0.00  0.00    +0.046 A 
ATOM     19  C   LIG    1       22.464 -18.936   4.284  0.00  0.00    +0.117 A 
ATOM     20  C   LIG    1       22.373 -19.671   5.455  0.00  0.00    +0.046 A 
ATOM     21  C   LIG    1       23.486 -20.390   5.912  0.00  0.00    +0.010 A 
BRANCH  19  22
ATOM     22  O   LIG    1       21.409 -18.221   3.807  0.00  0.00    -0.507 OA
ATOM     23  H   LIG    1       20.929 -18.765   3.161  0.00  0.00    +0.292 HD
ENDBRANCH  19  22
ENDBRANCH  15  16
BRANCH  15  24
ATOM     24  O   LIG    1       25.636 -21.564   7.039  0.00  0.00    -0.386 OA
ATOM     25  H   LIG    1       26.527 -21.674   7.432  0.00  0.00    +0.210 HD
ENDBRANCH  15  24
ENDBRANCH   1  15
TORSDOF 9
ENDMDL
MODEL 3
REMARK VINA RESULT:      -4.6      1.173      1.891
REMARK  Name = *****
REMARK                            x       y       z     vdW  Elec       q    Type
REMARK                         _______ _______ _______ _____ _____    ______ ____
ROOT
ATOM      1  C   LIG    1       23.808 -19.472   3.932  0.00  0.00    +0.084 C 
ATOM      2  C   LIG    1       24.667 -20.049   2.805  0.00  0.00    +0.027 C 
ENDROOT
BRANCH   1   3
ATOM      3  N   LIG    1       24.105 -18.024   4.176  0.00  0.00    -0.305 NA
ATOM      4  H   LIG    1       24.926 -17.762   3.627  0.00  0.00    +0.123 HD
BRANCH   3   6
ATOM      5  C   LIG    1       21.654 -17.757   4.247  0.00  0.00    +0.027 C 
ATOM      6  C   LIG    1       22.988 -17.081   3.903  0.00  0.00    +0.088 C 
BRANCH   6   7
ATOM      7  C   LIG    1       23.132 -15.785   4.760  0.00  0.00    +0.247 C 
BRANCH   7   8
ATOM      8  O   LIG    1       23.499 -14.641   3.956  0.00  0.00    -0.490 OA
BRANCH   8   9
ATOM      9  C   LIG    1       24.839 -14.320   3.935  0.00  0.00    +0.121 A 
ATOM     10  C   LIG    1       25.347 -13.603   5.030  0.00  0.00    +0.045 A 
ATOM     11  C   LIG    1       26.723 -13.387   5.149  0.00  0.00    +0.004 A 
ATOM     12  C   LIG    1       27.595 -13.846   4.158  0.00  0.00    +0.000 A 
ATOM     13  C   LIG    1       27.079 -14.465   3.026  0.00  0.00    +0.004 A 
ATOM     14  C   LIG    1       25.705 -14.678   2.906  0.00  0.00    +0.045 A 
ENDBRANCH   8   9
ENDBRANCH   7   8
ENDBRANCH   6   7
ENDBRANCH   3   6
ENDBRANCH   1   3
BRANCH   1  15
ATOM     15  C   LIG    1       24.046 -20.256   5.280  0.00  0.00    +0.161 C 
BRANCH  15  16
ATOM     16  C   LIG    1       25.493 -20.432   5.703  0.00  0.00    -0.018 A 
ATOM     17  C   LIG    1       25.845 -21.367   6.687  0.00  0.00    +0.010 A 
ATOM     18  C   LIG    1       27.183 -21.550   7.062  0.00  0.00    +0.046 A 
ATOM     19  C   LIG    1       28.180 -20.794   6.448  0.00  0.00    +0.117 A 
ATOM     20  C   LIG    1       27.860 -19.871   5.466  0.00  0.00    +0.046 A 
ATOM     21  C   LIG    1       26.522 -19.690   5.092  0.00  0.00    +0.010 A 
BRANCH  19  22
ATOM     22  O   LIG    1       29.466 -20.998   6.843  0.00  0.00    -0.507 OA
ATOM     23  H   LIG    1       29.462 -21.375   7.738  0.00  0.00    +0.292 HD
ENDBRANCH  19  22
ENDBRANCH  15  16
BRANCH  15  24
ATOM     24  O   LIG    1       23.478 -21.569   5.135  0.00  0.00    -0.386 OA
ATOM     25  H   LIG    1       22.694 -21.430   4.564  0.00  0.00    +0.210 HD
ENDBRANCH  15  24
ENDBRANCH   1  15
TORSDOF 9
ENDMDL
MODEL 4
REMARK VINA RESULT:      -4.6      2.075      4.546
REMARK  Name = *****
REMARK                            x       y       z     vdW  Elec       q    Type
REMARK                         _______ _______ _______ _____ _____    ______ ____
ROOT
ATOM      1  C   LIG    1       27.384 -20.392   5.598  0.00  0.00    +0.084 C 
ATOM      2  C   LIG    1       27.887 -20.044   7.001  0.00  0.00    +0.027 C 
ENDROOT
BRANCH   1   3
ATOM      3  N   LIG    1       27.165 -19.168   4.762  0.00  0.00    -0.305 NA
ATOM      4  H   LIG    1       26.176 -18.917   4.804  0.00  0.00    +0.123 HD
BRANCH   3   6
ATOM      5  C   LIG    1       29.475 -18.418   5.192  0.00  0.00    +0.027 C 
ATOM      6  C   LIG    1       28.004 -17.990   5.110  0.00  0.00    +0.088 C 
BRANCH   6   7
ATOM      7  C   LIG    1       27.864 -16.870   4.033  0.00  0.00    +0.247 C 
BRANCH   7   8
ATOM      8  O   LIG    1       26.520 -16.787   3.507  0.00  0.00    -0.490 OA
BRANCH   8   9
ATOM      9  C   LIG    1       26.009 -15.517   3.350  0.00  0.00    +0.121 A 
ATOM     10  C   LIG    1       24.678 -15.305   3.743  0.00  0.00    +0.045 A 
ATOM     11  C   LIG    1       24.150 -14.011   3.762  0.00  0.00    +0.004 A 
ATOM     12  C   LIG    1       24.930 -12.927   3.349  0.00  0.00    +0.000 A 
ATOM     13  C   LIG    1       26.213 -13.153   2.863  0.00  0.00    +0.004 A 
ATOM     14  C   LIG    1       26.738 -14.446   2.842  0.00  0.00    +0.045 A 
ENDBRANCH   8   9
ENDBRANCH   7   8
ENDBRANCH   6   7
ENDBRANCH   3   6
ENDBRANCH   1   3
BRANCH   1  15
ATOM     15  C   LIG    1       26.024 -21.188   5.668  0.00  0.00    +0.161 C 
BRANCH  15  16
ATOM     16  C   LIG    1       24.788 -20.440   5.203  0.00  0.00    -0.018 A 
ATOM     17  C   LIG    1       23.613 -20.448   5.969  0.00  0.00    +0.010 A 
ATOM     18  C   LIG    1       22.478 -19.737   5.554  0.00  0.00    +0.046 A 
ATOM     19  C   LIG    1       22.516 -19.010   4.366  0.00  0.00    +0.117 A 
ATOM     20  C   LIG    1       23.668 -18.978   3.597  0.00  0.00    +0.046 A 
ATOM     21  C   LIG    1       24.802 -19.688   4.013  0.00  0.00    +0.010 A 
BRANCH  19  22
ATOM     22  O   LIG    1       21.393 -18.338   3.997  0.00  0.00    -0.507 OA
ATOM     23  H   LIG    1       20.995 -17.935   4.787  0.00  0.00    +0.292 HD
ENDBRANCH  19  22
ENDBRANCH  15  16
BRANCH  15  24
ATOM     24  O   LIG    1       25.805 -21.570   7.037  0.00  0.00    -0.386 OA
ATOM     25  H   LIG    1       25.575 -22.522   6.986  0.00  0.00    +0.210 HD
ENDBRANCH  15  24
ENDBRANCH   1  15
TORSDOF 9
ENDMDL
MODEL 5
REMARK VINA RESULT:      -4.5      2.337      7.450
REMARK  Name = *****
REMARK                            x       y       z     vdW  Elec       q    Type
REMARK                         _______ _______ _______ _____ _____    ______ ____
ROOT
ATOM      1  C   LIG    1       27.595 -16.207   3.790  0.00  0.00    +0.084 C 
ATOM      2  C   LIG    1       26.192 -16.545   3.280  0.00  0.00    +0.027 C 
ENDROOT
BRANCH   1   3
ATOM      3  N   LIG    1       27.958 -17.010   5.001  0.00  0.00    -0.305 NA
ATOM      4  H   LIG    1       27.217 -16.906   5.697  0.00  0.00    +0.123 HD
BRANCH   3   6
ATOM      5  C   LIG    1       29.474 -18.874   5.556  0.00  0.00    +0.027 C 
ATOM      6  C   LIG    1       28.231 -18.453   4.763  0.00  0.00    +0.088 C 
BRANCH   6   7
ATOM      7  C   LIG    1       27.022 -19.329   5.215  0.00  0.00    +0.247 C 
BRANCH   7   8
ATOM      8  O   LIG    1       26.171 -19.695   4.105  0.00  0.00    -0.490 OA
BRANCH   8   9
ATOM      9  C   LIG    1       24.875 -20.037   4.424  0.00  0.00    +0.121 A 
ATOM     10  C   LIG    1       24.678 -21.245   5.112  0.00  0.00    +0.045 A 
ATOM     11  C   LIG    1       23.411 -21.571   5.606  0.00  0.00    +0.004 A 
ATOM     12  C   LIG    1       22.327 -20.720   5.380  0.00  0.00    +0.000 A 
ATOM     13  C   LIG    1       22.504 -19.576   4.609  0.00  0.00    +0.004 A 
ATOM     14  C   LIG    1       23.768 -19.251   4.115  0.00  0.00    +0.045 A 
ENDBRANCH   8   9
ENDBRANCH   7   8
ENDBRANCH   6   7
ENDBRANCH   3   6
ENDBRANCH   1   3
BRANCH   1  15
ATOM     15  C   LIG    1       27.706 -14.679   4.163  0.00  0.00    +0.161 C 
BRANCH  15  16
ATOM     16  C   LIG    1       26.503 -13.819   3.819  0.00  0.00    -0.018 A 
ATOM     17  C   LIG    1       26.390 -13.215   2.559  0.00  0.00    +0.010 A 
ATOM     18  C   LIG    1       25.269 -12.441   2.229  0.00  0.00    +0.046 A 
ATOM     19  C   LIG    1       24.250 -12.270   3.164  0.00  0.00    +0.117 A 
ATOM     20  C   LIG    1       24.333 -12.865   4.413  0.00  0.00    +0.046 A 
ATOM     21  C   LIG    1       25.454 -13.639   4.740  0.00  0.00    +0.010 A 
BRANCH  19  22
ATOM     22  O   LIG    1       23.181 -11.508   2.807  0.00  0.00    -0.507 OA
ATOM     23  H   LIG    1       22.391 -11.846   3.260  0.00  0.00    +0.292 HD
ENDBRANCH  19  22
ENDBRANCH  15  16
BRANCH  15  24
ATOM     24  O   LIG    1       28.838 -14.133   3.465  0.00  0.00    -0.386 OA
ATOM     25  H   LIG    1       28.441 -13.564   2.772  0.00  0.00    +0.210 HD
ENDBRANCH  15  24
ENDBRANCH   1  15
TORSDOF 9
ENDMDL
MODEL 6
REMARK VINA RESULT:      -4.3      2.075      6.937
REMARK  Name = *****
REMARK                            x       y       z     vdW  Elec       q    Type
REMARK                         _______ _______ _______ _____ _____    ______ ____
ROOT
ATOM      1  C   LIG    1       27.818 -18.035   4.818  0.00  0.00    +0.084 C 
ATOM      2  C   LIG    1       29.332 -17.811   4.833  0.00  0.00    +0.027 C 
ENDROOT
BRANCH   1   3
ATOM      3  N   LIG    1       27.468 -19.491   4.838  0.00  0.00    -0.305 NA
ATOM      4  H   LIG    1       27.827 -19.926   3.986  0.00  0.00    +0.123 HD
BRANCH   3   6
ATOM      5  C   LIG    1       28.993 -19.431   6.775  0.00  0.00    +0.027 C 
ATOM      6  C   LIG    1       27.931 -20.251   6.030  0.00  0.00    +0.088 C 
BRANCH   6   7
ATOM      7  C   LIG    1       26.745 -20.541   7.001  0.00  0.00    +0.247 C 
BRANCH   7   8
ATOM      8  O   LIG    1       25.866 -21.568   6.492  0.00  0.00    -0.490 OA
BRANCH   8   9
ATOM      9  C   LIG    1       24.771 -21.130   5.777  0.00  0.00    +0.121 A 
ATOM     10  C   LIG    1       23.755 -20.477   6.493  0.00  0.00    +0.045 A 
ATOM     11  C   LIG    1       22.699 -19.867   5.810  0.00  0.00    +0.004 A 
ATOM     12  C   LIG    1       22.626 -19.940   4.417  0.00  0.00    +0.000 A 
ATOM     13  C   LIG    1       23.578 -20.675   3.720  0.00  0.00    +0.004 A 
ATOM     14  C   LIG    1       24.631 -21.286   4.402  0.00  0.00    +0.045 A 
ENDBRANCH   8   9
ENDBRANCH   7   8
ENDBRANCH   6   7
ENDBRANCH   3   6
ENDBRANCH   1   3
BRANCH   1  15
ATOM     15  C   LIG    1       27.167 -17.391   3.534  0.00  0.00    +0.161 C 
BRANCH  15  16
ATOM     16  C   LIG    1       26.543 -16.021   3.718  0.00  0.00    -0.018 A 
ATOM     17  C   LIG    1       25.155 -15.845   3.623  0.00  0.00    +0.010 A 
ATOM     18  C   LIG    1       24.573 -14.584   3.818  0.00  0.00    +0.046 A 
ATOM     19  C   LIG    1       25.383 -13.490   4.112  0.00  0.00    +0.117 A 
ATOM     20  C   LIG    1       26.756 -13.639   4.221  0.00  0.00    +0.046 A 
ATOM     21  C   LIG    1       27.336 -14.899   4.027  0.00  0.00    +0.010 A 
BRANCH  19  22
ATOM     22  O   LIG    1       24.780 -12.283   4.289  0.00  0.00    -0.507 OA
ATOM     23  H   LIG    1       25.004 -11.949   5.173  0.00  0.00    +0.292 HD
ENDBRANCH  19  22
ENDBRANCH  15  16
BRANCH  15  24
ATOM     24  O   LIG    1       26.132 -18.276   3.070  0.00  0.00    -0.386 OA
ATOM     25  H   LIG    1       25.891 -18.799   3.863  0.00  0.00    +0.210 HD
ENDBRANCH  15  24
ENDBRANCH   1  15
TORSDOF 9
ENDMDL
MODEL 7
REMARK VINA RESULT:      -4.1      2.230      4.119
REMARK  Name = *****
REMARK                            x       y       z     vdW  Elec       q    Type
REMARK                         _______ _______ _______ _____ _____    ______ ____
ROOT
ATOM      1  C   LIG    1       28.381 -18.812   5.075  0.00  0.00    +0.084 C 
ATOM      2  C   LIG    1       29.475 -18.192   5.947  0.00  0.00    +0.027 C 
ENDROOT
BRANCH   1   3
ATOM      3  N   LIG    1       27.199 -17.904   4.929  0.00  0.00    -0.305 NA
ATOM      4  H   LIG    1       27.252 -17.182   5.650  0.00  0.00    +0.123 HD
BRANCH   3   6
ATOM      5  C   LIG    1       25.609 -17.554   3.077  0.00  0.00    +0.027 C 
ATOM      6  C   LIG    1       27.027 -17.276   3.592  0.00  0.00    +0.088 C 
BRANCH   6   7
ATOM      7  C   LIG    1       27.242 -15.733   3.670  0.00  0.00    +0.247 C 
BRANCH   7   8
ATOM      8  O   LIG    1       26.189 -15.075   4.409  0.00  0.00    -0.490 OA
BRANCH   8   9
ATOM      9  C   LIG    1       25.508 -14.082   3.739  0.00  0.00    +0.121 A 
ATOM     10  C   LIG    1       24.543 -13.362   4.461  0.00  0.00    +0.045 A 
ATOM     11  C   LIG    1       23.934 -12.241   3.891  0.00  0.00    +0.004 A 
ATOM     12  C   LIG    1       24.249 -11.856   2.586  0.00  0.00    +0.000 A 
ATOM     13  C   LIG    1       25.127 -12.631   1.838  0.00  0.00    +0.004 A 
ATOM     14  C   LIG    1       25.734 -13.752   2.406  0.00  0.00    +0.045 A 
ENDBRANCH   8   9
ENDBRANCH   7   8
ENDBRANCH   6   7
ENDBRANCH   3   6
ENDBRANCH   1   3
BRANCH   1  15
ATOM     15  C   LIG    1       27.880 -20.177   5.686  0.00  0.00    +0.161 C 
BRANCH  15  16
ATOM     16  C   LIG    1       26.381 -20.411   5.655  0.00  0.00    -0.018 A 
ATOM     17  C   LIG    1       25.697 -20.533   4.437  0.00  0.00    +0.010 A 
ATOM     18  C   LIG    1       24.317 -20.774   4.406  0.00  0.00    +0.046 A 
ATOM     19  C   LIG    1       23.612 -20.897   5.601  0.00  0.00    +0.117 A 
ATOM     20  C   LIG    1       24.266 -20.792   6.819  0.00  0.00    +0.046 A 
ATOM     21  C   LIG    1       25.646 -20.551   6.848  0.00  0.00    +0.010 A 
BRANCH  19  22
ATOM     22  O   LIG    1       22.273 -21.127   5.528  0.00  0.00    -0.507 OA
ATOM     23  H   LIG    1       22.085 -22.002   5.905  0.00  0.00    +0.292 HD
ENDBRANCH  19  22
ENDBRANCH  15  16
BRANCH  15  24
ATOM     24  O   LIG    1       28.294 -20.226   7.062  0.00  0.00    -0.386 OA
ATOM     25  H   LIG    1       28.817 -19.405   7.184  0.00  0.00    +0.210 HD
ENDBRANCH  15  24
ENDBRANCH   1  15
TORSDOF 9
ENDMDL
MODEL 8
REMARK VINA RESULT:      -4.1      1.979      6.278
REMARK  Name = *****
REMARK                            x       y       z     vdW  Elec       q    Type
REMARK                         _______ _______ _______ _____ _____    ______ ____
ROOT
ATOM      1  C   LIG    1       23.320 -17.571   3.871  0.00  0.00    +0.084 C 
ATOM      2  C   LIG    1       22.261 -16.984   4.808  0.00  0.00    +0.027 C 
ENDROOT
BRANCH   1   3
ATOM      3  N   LIG    1       23.510 -19.039   4.093  0.00  0.00    -0.305 NA
ATOM      4  H   LIG    1       24.501 -19.217   4.271  0.00  0.00    +0.123 HD
BRANCH   3   6
ATOM      5  C   LIG    1       21.683 -20.629   4.556  0.00  0.00    +0.027 C 
ATOM      6  C   LIG    1       22.684 -19.643   5.172  0.00  0.00    +0.088 C 
BRANCH   6   7
ATOM      7  C   LIG    1       23.578 -20.407   6.197  0.00  0.00    +0.247 C 
BRANCH   7   8
ATOM      8  O   LIG    1       24.600 -21.193   5.545  0.00  0.00    -0.490 OA
BRANCH   8   9
ATOM      9  C   LIG    1       25.903 -20.811   5.785  0.00  0.00    +0.121 A 
ATOM     10  C   LIG    1       26.564 -21.418   6.864  0.00  0.00    +0.045 A 
ATOM     11  C   LIG    1       27.930 -21.199   7.062  0.00  0.00    +0.004 A 
ATOM     12  C   LIG    1       28.635 -20.340   6.214  0.00  0.00    +0.000 A 
ATOM     13  C   LIG    1       27.955 -19.660   5.210  0.00  0.00    +0.004 A 
ATOM     14  C   LIG    1       26.591 -19.878   5.014  0.00  0.00    +0.045 A 
ENDBRANCH   8   9
ENDBRANCH   7   8
ENDBRANCH   6   7
ENDBRANCH   3   6
ENDBRANCH   1   3
BRANCH   1  15
ATOM     15  C   LIG    1       24.712 -16.858   4.077  0.00  0.00    +0.161 C 
BRANCH  15  16
ATOM     16  C   LIG    1       24.792 -15.410   3.631  0.00  0.00    -0.018 A 
ATOM     17  C   LIG    1       25.923 -14.928   2.956  0.00  0.00    +0.010 A 
ATOM     18  C   LIG    1       25.990 -13.597   2.520  0.00  0.00    +0.046 A 
ATOM     19  C   LIG    1       24.918 -12.740   2.759  0.00  0.00    +0.117 A 
ATOM     20  C   LIG    1       23.785 -13.194   3.415  0.00  0.00    +0.046 A 
ATOM     21  C   LIG    1       23.720 -14.524   3.849  0.00  0.00    +0.010 A 
BRANCH  19  22
ATOM     22  O   LIG    1       25.024 -11.455   2.324  0.00  0.00    -0.507 OA
ATOM     23  H   LIG    1       24.377 -10.909   2.800  0.00  0.00    +0.292 HD
ENDBRANCH  19  22
ENDBRANCH  15  16
BRANCH  15  24
ATOM     24  O   LIG    1       25.700 -17.592   3.334  0.00  0.00    -0.386 OA
ATOM     25  H   LIG    1       25.366 -17.578   2.413  0.00  0.00    +0.210 HD
ENDBRANCH  15  24
ENDBRANCH   1  15
TORSDOF 9
ENDMDL
MODEL 9
REMARK VINA RESULT:      -3.7      1.578      6.177
REMARK  Name = *****
REMARK                            x       y       z     vdW  Elec       q    Type
REMARK                         _______ _______ _______ _____ _____    ______ ____
ROOT
ATOM      1  C   LIG    1       23.046 -15.396   4.334  0.00  0.00    +0.084 C 
ATOM      2  C   LIG    1       22.826 -15.186   5.834  0.00  0.00    +0.027 C 
ENDROOT
BRANCH   1   3
ATOM      3  N   LIG    1       23.979 -16.536   4.060  0.00  0.00    -0.305 NA
ATOM      4  H   LIG    1       24.852 -16.371   4.565  0.00  0.00    +0.123 HD
BRANCH   3   6
ATOM      5  C   LIG    1       22.060 -18.055   3.761  0.00  0.00    +0.027 C 
ATOM      6  C   LIG    1       23.455 -17.891   4.378  0.00  0.00    +0.088 C 
BRANCH   6   7
ATOM      7  C   LIG    1       24.393 -18.998   3.806  0.00  0.00    +0.247 C 
BRANCH   7   8
ATOM      8  O   LIG    1       24.438 -20.165   4.657  0.00  0.00    -0.490 OA
BRANCH   8   9
ATOM      9  C   LIG    1       25.635 -20.403   5.297  0.00  0.00    +0.121 A 
ATOM     10  C   LIG    1       26.757 -19.684   4.853  0.00  0.00    +0.045 A 
ATOM     11  C   LIG    1       27.960 -19.756   5.560  0.00  0.00    +0.004 A 
ATOM     12  C   LIG    1       28.066 -20.577   6.686  0.00  0.00    +0.000 A 
ATOM     13  C   LIG    1       26.985 -21.366   7.062  0.00  0.00    +0.004 A 
ATOM     14  C   LIG    1       25.784 -21.295   6.354  0.00  0.00    +0.045 A 
ENDBRANCH   8   9
ENDBRANCH   7   8
ENDBRANCH   6   7
ENDBRANCH   3   6
ENDBRANCH   1   3
BRANCH   1  15
ATOM     15  C   LIG    1       23.645 -14.099   3.666  0.00  0.00    +0.161 C 
BRANCH  15  16
ATOM     16  C   LIG    1       25.159 -13.996   3.649  0.00  0.00    -0.018 A 
ATOM     17  C   LIG    1       25.875 -14.129   2.451  0.00  0.00    +0.010 A 
ATOM     18  C   LIG    1       27.271 -14.008   2.428  0.00  0.00    +0.046 A 
ATOM     19  C   LIG    1       27.960 -13.751   3.611  0.00  0.00    +0.117 A 
ATOM     20  C   LIG    1       27.275 -13.605   4.807  0.00  0.00    +0.046 A 
ATOM     21  C   LIG    1       25.879 -13.725   4.828  0.00  0.00    +0.010 A 
BRANCH  19  22
ATOM     22  O   LIG    1       29.315 -13.645   3.548  0.00  0.00    -0.507 OA
ATOM     23  H   LIG    1       29.566 -13.386   2.646  0.00  0.00    +0.292 HD
ENDBRANCH  19  22
ENDBRANCH  15  16
BRANCH  15  24
ATOM     24  O   LIG    1       23.144 -12.959   4.384  0.00  0.00    -0.386 OA
ATOM     25  H   LIG    1       23.950 -12.467   4.645  0.00  0.00    +0.210 HD
ENDBRANCH  15  24
ENDBRANCH   1  15
TORSDOF 9
ENDMDL
