MODEL 1
REMARK VINA RESULT:      -8.2      0.000      0.000
REMARK  Name = *****
REMARK                            x       y       z     vdW  Elec       q    Type
REMARK                         _______ _______ _______ _____ _____    ______ ____
ROOT
ATOM      1  S   LIG    1       26.010 -21.383   8.157  0.00  0.00    +0.075 S 
ATOM      2  O   LIG    1       25.706 -20.246   7.305  0.00  0.00    -0.150 OA
ATOM      3  O   LIG    1       25.575 -21.403   9.535  0.00  0.00    -0.150 OA
ENDROOT
BRANCH   1   4
ATOM      4  C   LIG    1       25.309 -22.813   7.351  0.00  0.00    +0.109 A 
ATOM      5  C   LIG    1       26.148 -23.848   6.931  0.00  0.00    +0.030 A 
ATOM      6  C   LIG    1       25.597 -24.972   6.312  0.00  0.00    +0.024 A 
ATOM      7  C   LIG    1       24.211 -25.108   6.175  0.00  0.00    +0.025 A 
ATOM      8  C   LIG    1       23.387 -24.049   6.575  0.00  0.00    +0.024 A 
ATOM      9  C   LIG    1       23.926 -22.914   7.186  0.00  0.00    +0.030 A 
BRANCH   7  10
ATOM     10  N   LIG    1       23.679 -26.179   5.448  0.00  0.00    -0.358 N 
ATOM     11  H   LIG    1       24.134 -26.329   4.553  0.00  0.00    +0.142 HD
ATOM     12  H   LIG    1       23.607 -27.039   5.984  0.00  0.00    +0.142 HD
ENDBRANCH   7  10
ENDBRANCH   1   4
BRANCH   1  13
ATOM     13  N   LIG    1       27.665 -21.602   8.048  0.00  0.00    -0.184 N 
ATOM     14  H   LIG    1       28.040 -21.880   8.946  0.00  0.00    +0.177 HD
BRANCH  13  18
ATOM     15  C   LIG    1       30.242 -17.801   9.122  0.00  0.00    +0.066 C 
ATOM     16  C   LIG    1       29.658 -18.699   8.074  0.00  0.00    +0.043 A 
ATOM     17  N   LIG    1       28.918 -19.740   8.510  0.00  0.00    -0.218 NA
ATOM     18  C   LIG    1       28.377 -20.509   7.563  0.00  0.00    +0.235 A 
ATOM     19  N   LIG    1       28.502 -20.366   6.245  0.00  0.00    -0.222 NA
ATOM     20  C   LIG    1       29.291 -19.351   5.854  0.00  0.00    +0.116 A 
ATOM     21  C   LIG    1       29.906 -18.483   6.732  0.00  0.00    +0.043 A 
ENDBRANCH  13  18
ENDBRANCH   1  13
TORSDOF 4
ENDMDL
MODEL 2
REMARK VINA RESULT:      -7.8      2.984      3.514
REMARK  Name = *****
REMARK                            x       y       z     vdW  Elec       q    Type
REMARK                         _______ _______ _______ _____ _____    ______ ____
ROOT
ATOM      1  S   LIG    1       26.667 -21.309   7.122  0.00  0.00    +0.075 S 
ATOM      2  O   LIG    1       26.703 -20.615   8.399  0.00  0.00    -0.150 OA
ATOM      3  O   LIG    1       26.602 -22.752   7.074  0.00  0.00    -0.150 OA
ENDROOT
BRANCH   1   4
ATOM      4  C   LIG    1       25.244 -20.676   6.251  0.00  0.00    +0.109 A 
ATOM      5  C   LIG    1       25.388 -20.210   4.941  0.00  0.00    +0.030 A 
ATOM      6  C   LIG    1       24.270 -19.728   4.256  0.00  0.00    +0.024 A 
ATOM      7  C   LIG    1       22.999 -19.774   4.836  0.00  0.00    +0.025 A 
ATOM      8  C   LIG    1       22.876 -20.217   6.158  0.00  0.00    +0.024 A 
ATOM      9  C   LIG    1       23.988 -20.693   6.859  0.00  0.00    +0.030 A 
BRANCH   7  10
ATOM     10  N   LIG    1       21.909 -19.179   4.189  0.00  0.00    -0.358 N 
ATOM     11  H   LIG    1       22.119 -18.268   3.793  0.00  0.00    +0.142 HD
ATOM     12  H   LIG    1       21.454 -19.788   3.514  0.00  0.00    +0.142 HD
ENDBRANCH   7  10
ENDBRANCH   1   4
BRANCH   1  13
ATOM     13  N   LIG    1       27.982 -20.739   6.258  0.00  0.00    -0.184 N 
ATOM     14  H   LIG    1       28.301 -21.442   5.604  0.00  0.00    +0.177 HD
BRANCH  13  18
ATOM     15  C   LIG    1       31.392 -21.940   9.288  0.00  0.00    +0.066 C 
ATOM     16  C   LIG    1       30.728 -20.883   8.458  0.00  0.00    +0.043 A 
ATOM     17  N   LIG    1       29.653 -21.262   7.737  0.00  0.00    -0.218 NA
ATOM     18  C   LIG    1       29.054 -20.301   7.032  0.00  0.00    +0.235 A 
ATOM     19  N   LIG    1       29.411 -19.021   6.955  0.00  0.00    -0.222 NA
ATOM     20  C   LIG    1       30.518 -18.696   7.645  0.00  0.00    +0.116 A 
ATOM     21  C   LIG    1       31.227 -19.595   8.414  0.00  0.00    +0.043 A 
ENDBRANCH  13  18
ENDBRANCH   1  13
TORSDOF 4
ENDMDL
MODEL 3
REMARK VINA RESULT:      -7.7      1.803      6.641
REMARK  Name = *****
REMARK                            x       y       z     vdW  Elec       q    Type
REMARK                         _______ _______ _______ _____ _____    ______ ____
ROOT
ATOM      1  S   LIG    1       26.265 -21.212   6.950  0.00  0.00    +0.075 S 
ATOM      2  O   LIG    1       25.474 -20.420   7.877  0.00  0.00    -0.150 OA
ATOM      3  O   LIG    1       25.917 -21.263   5.548  0.00  0.00    -0.150 OA
ENDROOT
BRANCH   1   4
ATOM      4  C   LIG    1       27.936 -20.597   7.068  0.00  0.00    +0.109 A 
ATOM      5  C   LIG    1       28.825 -21.183   7.973  0.00  0.00    +0.030 A 
ATOM      6  C   LIG    1       30.137 -20.710   8.054  0.00  0.00    +0.024 A 
ATOM      7  C   LIG    1       30.592 -19.708   7.190  0.00  0.00    +0.025 A 
ATOM      8  C   LIG    1       29.681 -19.112   6.310  0.00  0.00    +0.024 A 
ATOM      9  C   LIG    1       28.363 -19.568   6.226  0.00  0.00    +0.030 A 
BRANCH   7  10
ATOM     10  N   LIG    1       31.868 -19.160   7.362  0.00  0.00    -0.358 N 
ATOM     11  H   LIG    1       32.024 -18.314   6.822  0.00  0.00    +0.142 HD
ATOM     12  H   LIG    1       32.133 -19.040   8.335  0.00  0.00    +0.142 HD
ENDBRANCH   7  10
ENDBRANCH   1   4
BRANCH   1  13
ATOM     13  N   LIG    1       26.331 -22.750   7.607  0.00  0.00    -0.184 N 
ATOM     14  H   LIG    1       27.287 -23.081   7.623  0.00  0.00    +0.177 HD
BRANCH  13  18
ATOM     15  C   LIG    1       26.144 -26.821   5.235  0.00  0.00    +0.066 C 
ATOM     16  C   LIG    1       25.419 -25.681   5.881  0.00  0.00    +0.043 A 
ATOM     17  N   LIG    1       26.179 -24.720   6.447  0.00  0.00    -0.218 NA
ATOM     18  C   LIG    1       25.518 -23.694   6.986  0.00  0.00    +0.235 A 
ATOM     19  N   LIG    1       24.198 -23.528   7.039  0.00  0.00    -0.222 NA
ATOM     20  C   LIG    1       23.476 -24.533   6.513  0.00  0.00    +0.116 A 
ATOM     21  C   LIG    1       24.038 -25.646   5.923  0.00  0.00    +0.043 A 
ENDBRANCH  13  18
ENDBRANCH   1  13
TORSDOF 4
ENDMDL
MODEL 4
REMARK VINA RESULT:      -7.6      4.543      8.473
REMARK  Name = *****
REMARK                            x       y       z     vdW  Elec       q    Type
REMARK                         _______ _______ _______ _____ _____    ______ ____
ROOT
ATOM      1  S   LIG    1       25.571 -26.601   6.098  0.00  0.00    +0.075 S 
ATOM      2  O   LIG    1       26.150 -26.436   4.775  0.00  0.00    -0.150 OA
ATOM      3  O   LIG    1       26.377 -27.084   7.196  0.00  0.00    -0.150 OA
ENDROOT
BRANCH   1   4
ATOM      4  C   LIG    1       24.927 -25.003   6.564  0.00  0.00    +0.109 A 
ATOM      5  C   LIG    1       25.803 -24.011   7.013  0.00  0.00    +0.030 A 
ATOM      6  C   LIG    1       25.299 -22.756   7.364  0.00  0.00    +0.024 A 
ATOM      7  C   LIG    1       23.942 -22.458   7.203  0.00  0.00    +0.025 A 
ATOM      8  C   LIG    1       23.074 -23.472   6.779  0.00  0.00    +0.024 A 
ATOM      9  C   LIG    1       23.564 -24.735   6.434  0.00  0.00    +0.030 A 
BRANCH   7  10
ATOM     10  N   LIG    1       23.430 -21.242   7.670  0.00  0.00    -0.358 N 
ATOM     11  H   LIG    1       22.891 -21.330   8.527  0.00  0.00    +0.142 HD
ATOM     12  H   LIG    1       24.126 -20.505   7.735  0.00  0.00    +0.142 HD
ENDBRANCH   7  10
ENDBRANCH   1   4
BRANCH   1  13
ATOM     13  N   LIG    1       24.216 -27.559   5.883  0.00  0.00    -0.184 N 
ATOM     14  H   LIG    1       23.431 -27.172   6.391  0.00  0.00    +0.177 HD
BRANCH  13  18
ATOM     15  C   LIG    1       25.895 -31.768   4.576  0.00  0.00    +0.066 C 
ATOM     16  C   LIG    1       25.227 -30.922   5.617  0.00  0.00    +0.043 A 
ATOM     17  N   LIG    1       25.006 -29.629   5.299  0.00  0.00    -0.218 NA
ATOM     18  C   LIG    1       24.378 -28.899   6.222  0.00  0.00    +0.235 A 
ATOM     19  N   LIG    1       23.964 -29.305   7.421  0.00  0.00    -0.222 NA
ATOM     20  C   LIG    1       24.252 -30.584   7.720  0.00  0.00    +0.116 A 
ATOM     21  C   LIG    1       24.893 -31.443   6.852  0.00  0.00    +0.043 A 
ENDBRANCH  13  18
ENDBRANCH   1  13
TORSDOF 4
ENDMDL
MODEL 5
REMARK VINA RESULT:      -7.5      3.802      5.480
REMARK  Name = *****
REMARK                            x       y       z     vdW  Elec       q    Type
REMARK                         _______ _______ _______ _____ _____    ______ ____
ROOT
ATOM      1  S   LIG    1       30.602 -19.178   8.535  0.00  0.00    +0.075 S 
ATOM      2  O   LIG    1       30.863 -20.314   9.403  0.00  0.00    -0.150 OA
ATOM      3  O   LIG    1       31.626 -18.689   7.641  0.00  0.00    -0.150 OA
ENDROOT
BRANCH   1   4
ATOM      4  C   LIG    1       29.188 -19.622   7.542  0.00  0.00    +0.109 A 
ATOM      5  C   LIG    1       29.151 -19.259   6.193  0.00  0.00    +0.030 A 
ATOM      6  C   LIG    1       28.049 -19.620   5.414  0.00  0.00    +0.024 A 
ATOM      7  C   LIG    1       27.019 -20.401   5.948  0.00  0.00    +0.025 A 
ATOM      8  C   LIG    1       27.057 -20.731   7.307  0.00  0.00    +0.024 A 
ATOM      9  C   LIG    1       28.149 -20.368   8.101  0.00  0.00    +0.030 A 
BRANCH   7  10
ATOM     10  N   LIG    1       25.866 -20.654   5.194  0.00  0.00    -0.358 N 
ATOM     11  H   LIG    1       25.076 -20.068   5.450  0.00  0.00    +0.142 HD
ATOM     12  H   LIG    1       26.027 -20.654   4.191  0.00  0.00    +0.142 HD
ENDBRANCH   7  10
ENDBRANCH   1   4
BRANCH   1  13
ATOM     13  N   LIG    1       30.051 -17.957   9.539  0.00  0.00    -0.184 N 
ATOM     14  H   LIG    1       29.352 -17.403   9.061  0.00  0.00    +0.177 HD
BRANCH  13  18
ATOM     15  C   LIG    1       32.309 -16.455  13.397  0.00  0.00    +0.066 C 
ATOM     16  C   LIG    1       32.162 -16.428  11.906  0.00  0.00    +0.043 A 
ATOM     17  N   LIG    1       31.178 -17.186  11.379  0.00  0.00    -0.218 NA
ATOM     18  C   LIG    1       31.039 -17.122  10.053  0.00  0.00    +0.235 A 
ATOM     19  N   LIG    1       31.772 -16.407   9.203  0.00  0.00    -0.222 NA
ATOM     20  C   LIG    1       32.775 -15.709   9.763  0.00  0.00    +0.116 A 
ATOM     21  C   LIG    1       33.024 -15.688  11.119  0.00  0.00    +0.043 A 
ENDBRANCH  13  18
ENDBRANCH   1  13
TORSDOF 4
ENDMDL
MODEL 6
REMARK VINA RESULT:      -7.5      4.153      4.796
REMARK  Name = *****
REMARK                            x       y       z     vdW  Elec       q    Type
REMARK                         _______ _______ _______ _____ _____    ______ ____
ROOT
ATOM      1  S   LIG    1       24.948 -23.013   6.149  0.00  0.00    +0.075 S 
ATOM      2  O   LIG    1       23.747 -22.897   6.958  0.00  0.00    -0.150 OA
ATOM      3  O   LIG    1       26.182 -22.392   6.574  0.00  0.00    -0.150 OA
ENDROOT
BRANCH   1   4
ATOM      4  C   LIG    1       25.260 -24.760   5.965  0.00  0.00    +0.109 A 
ATOM      5  C   LIG    1       25.076 -25.366   4.719  0.00  0.00    +0.030 A 
ATOM      6  C   LIG    1       25.334 -26.731   4.574  0.00  0.00    +0.024 A 
ATOM      7  C   LIG    1       25.843 -27.482   5.638  0.00  0.00    +0.025 A 
ATOM      8  C   LIG    1       25.994 -26.866   6.886  0.00  0.00    +0.024 A 
ATOM      9  C   LIG    1       25.730 -25.504   7.049  0.00  0.00    +0.030 A 
BRANCH   7  10
ATOM     10  N   LIG    1       25.983 -28.870   5.516  0.00  0.00    -0.358 N 
ATOM     11  H   LIG    1       26.876 -29.156   5.126  0.00  0.00    +0.142 HD
ATOM     12  H   LIG    1       25.762 -29.378   6.368  0.00  0.00    +0.142 HD
ENDBRANCH   7  10
ENDBRANCH   1   4
BRANCH   1  13
ATOM     13  N   LIG    1       24.514 -22.495   4.617  0.00  0.00    -0.184 N 
ATOM     14  H   LIG    1       25.278 -22.643   3.970  0.00  0.00    +0.177 HD
BRANCH  13  18
ATOM     15  C   LIG    1       25.562 -18.095   3.282  0.00  0.00    +0.066 C 
ATOM     16  C   LIG    1       24.567 -19.057   3.855  0.00  0.00    +0.043 A 
ATOM     17  N   LIG    1       24.970 -20.337   3.994  0.00  0.00    -0.218 NA
ATOM     18  C   LIG    1       24.084 -21.173   4.539  0.00  0.00    +0.235 A 
ATOM     19  N   LIG    1       22.849 -20.882   4.942  0.00  0.00    -0.222 NA
ATOM     20  C   LIG    1       22.467 -19.610   4.736  0.00  0.00    +0.116 A 
ATOM     21  C   LIG    1       23.289 -18.649   4.185  0.00  0.00    +0.043 A 
ENDBRANCH  13  18
ENDBRANCH   1  13
TORSDOF 4
ENDMDL
MODEL 7
REMARK VINA RESULT:      -7.5      2.797      3.305
REMARK  Name = *****
REMARK                            x       y       z     vdW  Elec       q    Type
REMARK                         _______ _______ _______ _____ _____    ______ ____
ROOT
ATOM      1  S   LIG    1       26.855 -21.253   7.413  0.00  0.00    +0.075 S 
ATOM      2  O   LIG    1       26.750 -20.658   8.734  0.00  0.00    -0.150 OA
ATOM      3  O   LIG    1       26.960 -22.686   7.261  0.00  0.00    -0.150 OA
ENDROOT
BRANCH   1   4
ATOM      4  C   LIG    1       25.412 -20.720   6.508  0.00  0.00    +0.109 A 
ATOM      5  C   LIG    1       25.544 -20.308   5.180  0.00  0.00    +0.030 A 
ATOM      6  C   LIG    1       24.411 -19.904   4.469  0.00  0.00    +0.024 A 
ATOM      7  C   LIG    1       23.139 -19.978   5.046  0.00  0.00    +0.025 A 
ATOM      8  C   LIG    1       23.027 -20.366   6.386  0.00  0.00    +0.024 A 
ATOM      9  C   LIG    1       24.154 -20.763   7.112  0.00  0.00    +0.030 A 
BRANCH   7  10
ATOM     10  N   LIG    1       22.029 -19.459   4.368  0.00  0.00    -0.358 N 
ATOM     11  H   LIG    1       21.199 -20.040   4.442  0.00  0.00    +0.142 HD
ATOM     12  H   LIG    1       21.832 -18.488   4.594  0.00  0.00    +0.142 HD
ENDBRANCH   7  10
ENDBRANCH   1   4
BRANCH   1  13
ATOM     13  N   LIG    1       28.135 -20.476   6.665  0.00  0.00    -0.184 N 
ATOM     14  H   LIG    1       28.421 -20.989   5.841  0.00  0.00    +0.177 HD
BRANCH  13  18
ATOM     15  C   LIG    1       30.640 -17.285   9.072  0.00  0.00    +0.066 C 
ATOM     16  C   LIG    1       30.427 -18.715   8.678  0.00  0.00    +0.043 A 
ATOM     17  N   LIG    1       29.395 -18.969   7.847  0.00  0.00    -0.218 NA
ATOM     18  C   LIG    1       29.241 -20.242   7.478  0.00  0.00    +0.235 A 
ATOM     19  N   LIG    1       29.985 -21.281   7.853  0.00  0.00    -0.222 NA
ATOM     20  C   LIG    1       30.969 -20.994   8.723  0.00  0.00    +0.116 A 
ATOM     21  C   LIG    1       31.233 -19.719   9.179  0.00  0.00    +0.043 A 
ENDBRANCH  13  18
ENDBRANCH   1  13
TORSDOF 4
ENDMDL
MODEL 8
REMARK VINA RESULT:      -7.5      2.906      6.390
REMARK  Name = *****
REMARK                            x       y       z     vdW  Elec       q    Type
REMARK                         _______ _______ _______ _____ _____    ______ ____
ROOT
ATOM      1  S   LIG    1       26.510 -21.417   7.162  0.00  0.00    +0.075 S 
ATOM      2  O   LIG    1       26.691 -22.858   7.217  0.00  0.00    -0.150 OA
ATOM      3  O   LIG    1       25.694 -20.743   8.145  0.00  0.00    -0.150 OA
ENDROOT
BRANCH   1   4
ATOM      4  C   LIG    1       28.145 -20.706   7.240  0.00  0.00    +0.109 A 
ATOM      5  C   LIG    1       29.092 -21.248   8.112  0.00  0.00    +0.030 A 
ATOM      6  C   LIG    1       30.375 -20.698   8.161  0.00  0.00    +0.024 A 
ATOM      7  C   LIG    1       30.745 -19.662   7.298  0.00  0.00    +0.025 A 
ATOM      8  C   LIG    1       29.776 -19.112   6.451  0.00  0.00    +0.024 A 
ATOM      9  C   LIG    1       28.485 -19.645   6.398  0.00  0.00    +0.030 A 
BRANCH   7  10
ATOM     10  N   LIG    1       31.992 -19.040   7.439  0.00  0.00    -0.358 N 
ATOM     11  H   LIG    1       32.373 -19.102   8.379  0.00  0.00    +0.142 HD
ATOM     12  H   LIG    1       32.669 -19.323   6.737  0.00  0.00    +0.142 HD
ENDBRANCH   7  10
ENDBRANCH   1   4
BRANCH   1  13
ATOM     13  N   LIG    1       25.976 -21.086   5.611  0.00  0.00    -0.184 N 
ATOM     14  H   LIG    1       26.424 -20.250   5.259  0.00  0.00    +0.177 HD
BRANCH  13  18
ATOM     15  C   LIG    1       22.381 -18.363   4.229  0.00  0.00    +0.066 C 
ATOM     16  C   LIG    1       22.861 -19.678   4.765  0.00  0.00    +0.043 A 
ATOM     17  N   LIG    1       24.189 -19.806   4.961  0.00  0.00    -0.218 NA
ATOM     18  C   LIG    1       24.595 -20.969   5.473  0.00  0.00    +0.235 A 
ATOM     19  N   LIG    1       23.834 -22.014   5.792  0.00  0.00    -0.222 NA
ATOM     20  C   LIG    1       22.524 -21.866   5.531  0.00  0.00    +0.116 A 
ATOM     21  C   LIG    1       21.978 -20.713   5.006  0.00  0.00    +0.043 A 
ENDBRANCH  13  18
ENDBRANCH   1  13
TORSDOF 4
ENDMDL
MODEL 9
REMARK VINA RESULT:      -7.5      4.526      8.341
REMARK  Name = *****
REMARK                            x       y       z     vdW  Elec       q    Type
REMARK                         _______ _______ _______ _____ _____    ______ ____
ROOT
ATOM      1  S   LIG    1       25.555 -26.483   6.009  0.00  0.00    +0.075 S 
ATOM      2  O   LIG    1       25.986 -26.314   4.632  0.00  0.00    -0.150 OA
ATOM      3  O   LIG    1       26.489 -26.919   7.021  0.00  0.00    -0.150 OA
ENDROOT
BRANCH   1   4
ATOM      4  C   LIG    1       24.900 -24.905   6.525  0.00  0.00    +0.109 A 
ATOM      5  C   LIG    1       25.772 -23.913   6.981  0.00  0.00    +0.030 A 
ATOM      6  C   LIG    1       25.260 -22.673   7.372  0.00  0.00    +0.024 A 
ATOM      7  C   LIG    1       23.897 -22.388   7.242  0.00  0.00    +0.025 A 
ATOM      8  C   LIG    1       23.034 -23.402   6.811  0.00  0.00    +0.024 A 
ATOM      9  C   LIG    1       23.531 -24.650   6.427  0.00  0.00    +0.030 A 
BRANCH   7  10
ATOM     10  N   LIG    1       23.378 -21.189   7.748  0.00  0.00    -0.358 N 
ATOM     11  H   LIG    1       22.815 -21.311   8.584  0.00  0.00    +0.142 HD
ATOM     12  H   LIG    1       24.077 -20.461   7.865  0.00  0.00    +0.142 HD
ENDBRANCH   7  10
ENDBRANCH   1   4
BRANCH   1  13
ATOM     13  N   LIG    1       24.223 -27.495   5.946  0.00  0.00    -0.184 N 
ATOM     14  H   LIG    1       23.505 -27.165   6.578  0.00  0.00    +0.177 HD
BRANCH  13  18
ATOM     15  C   LIG    1       23.711 -31.105   8.938  0.00  0.00    +0.066 C 
ATOM     16  C   LIG    1       24.204 -30.594   7.618  0.00  0.00    +0.043 A 
ATOM     17  N   LIG    1       24.011 -29.283   7.363  0.00  0.00    -0.218 NA
ATOM     18  C   LIG    1       24.488 -28.838   6.200  0.00  0.00    +0.235 A 
ATOM     19  N   LIG    1       25.116 -29.549   5.265  0.00  0.00    -0.222 NA
ATOM     20  C   LIG    1       25.240 -30.860   5.534  0.00  0.00    +0.116 A 
ATOM     21  C   LIG    1       24.792 -31.443   6.701  0.00  0.00    +0.043 A 
ENDBRANCH  13  18
ENDBRANCH   1  13
TORSDOF 4
ENDMDL
