MODEL 1
REMARK VINA RESULT:      -9.4      0.000      0.000
REMARK  Name = *****
REMARK                            x       y       z     vdW  Elec       q    Type
REMARK                         _______ _______ _______ _____ _____    ______ ____
ROOT
ATOM      1  N   LIG    1       25.267 -21.641   6.903  0.00  0.00    -0.267 N 
ATOM      2  N   LIG    1       25.120 -21.177   8.159  0.00  0.00    -0.179 NA
ATOM      3  C   LIG    1       26.261 -20.519   8.385  0.00  0.00    +0.144 A 
ATOM      4  C   LIG    1       27.158 -20.587   7.296  0.00  0.00    +0.038 A 
ATOM      5  C   LIG    1       26.465 -21.302   6.341  0.00  0.00    +0.118 A 
ENDROOT
BRANCH   4   6
ATOM      6  C   LIG    1       28.491 -20.063   7.120  0.00  0.00    +0.086 A 
ATOM      7  C   LIG    1       29.587 -20.589   7.814  0.00  0.00    +0.045 A 
ATOM      8  C   LIG    1       30.809 -19.987   7.548  0.00  0.00    +0.142 A 
ATOM      9  N   LIG    1       31.766 -20.607   8.305  0.00  0.00    -0.346 N 
ATOM     10  H   LIG    1       32.740 -20.344   8.303  0.00  0.00    +0.167 HD
ATOM     11  C   LIG    1       31.194 -21.607   9.048  0.00  0.00    +0.085 A 
ATOM     12  N   LIG    1       31.046 -18.970   6.708  0.00  0.00    -0.218 NA
ATOM     13  C   LIG    1       29.920 -18.558   6.100  0.00  0.00    +0.224 A 
ATOM     14  C   LIG    1       29.846 -21.623   8.759  0.00  0.00    +0.031 A 
ATOM     15  N   LIG    1       28.673 -19.043   6.244  0.00  0.00    -0.235 NA
ENDBRANCH   4   6
BRANCH   1  16
ATOM     16  C   LIG    1       24.188 -22.407   6.272  0.00  0.00    +0.124 C 
BRANCH  16  17
ATOM     17  C   LIG    1       23.290 -21.496   5.393  0.00  0.00    +0.015 C 
ATOM     18  C   LIG    1       22.880 -20.187   6.087  0.00  0.00    +0.006 C 
ATOM     19  C   LIG    1       22.580 -19.234   4.946  0.00  0.00    +0.000 C 
ATOM     20  C   LIG    1       23.697 -19.529   3.962  0.00  0.00    +0.000 C 
ATOM     21  C   LIG    1       23.907 -21.042   4.050  0.00  0.00    +0.006 C 
ENDBRANCH  16  17
BRANCH  16  22
ATOM     22  C   LIG    1       24.751 -23.594   5.463  0.00  0.00    +0.145 C 
BRANCH  22  24
ATOM     23  N   LIG    1       23.901 -25.923   6.343  0.00  0.00    -0.197 NA
ATOM     24  C   LIG    1       24.265 -24.882   5.972  0.00  0.00    +0.065 C 
ENDBRANCH  22  24
ENDBRANCH  16  22
ENDBRANCH   1  16
TORSDOF 5
ENDMDL
MODEL 2
REMARK VINA RESULT:      -9.2      1.886      3.724
REMARK  Name = *****
REMARK                            x       y       z     vdW  Elec       q    Type
REMARK                         _______ _______ _______ _____ _____    ______ ____
ROOT
ATOM      1  N   LIG    1       26.301 -21.223   6.504  0.00  0.00    -0.267 N 
ATOM      2  N   LIG    1       26.719 -20.268   5.649  0.00  0.00    -0.179 NA
ATOM      3  C   LIG    1       27.962 -20.002   6.060  0.00  0.00    +0.144 A 
ATOM      4  C   LIG    1       28.336 -20.752   7.196  0.00  0.00    +0.038 A 
ATOM      5  C   LIG    1       27.240 -21.554   7.439  0.00  0.00    +0.118 A 
ENDROOT
BRANCH   4   6
ATOM      6  C   LIG    1       29.547 -20.761   7.981  0.00  0.00    +0.086 A 
ATOM      7  C   LIG    1       30.210 -19.577   8.326  0.00  0.00    +0.045 A 
ATOM      8  C   LIG    1       31.363 -19.735   9.082  0.00  0.00    +0.142 A 
ATOM      9  N   LIG    1       31.890 -18.496   9.326  0.00  0.00    -0.346 N 
ATOM     10  H   LIG    1       32.740 -18.340   9.846  0.00  0.00    +0.167 HD
ATOM     11  C   LIG    1       31.096 -17.534   8.755  0.00  0.00    +0.085 A 
ATOM     12  N   LIG    1       31.901 -20.887   9.510  0.00  0.00    -0.218 NA
ATOM     13  C   LIG    1       31.172 -21.948   9.121  0.00  0.00    +0.224 A 
ATOM     14  C   LIG    1       30.045 -18.175   8.134  0.00  0.00    +0.031 A 
ATOM     15  N   LIG    1       30.036 -21.955   8.400  0.00  0.00    -0.235 NA
ENDBRANCH   4   6
BRANCH   1  16
ATOM     16  C   LIG    1       24.965 -21.806   6.358  0.00  0.00    +0.124 C 
BRANCH  16  17
ATOM     17  C   LIG    1       24.937 -23.281   6.846  0.00  0.00    +0.015 C 
ATOM     18  C   LIG    1       23.613 -24.000   6.545  0.00  0.00    +0.006 C 
ATOM     19  C   LIG    1       23.984 -25.471   6.513  0.00  0.00    +0.000 C 
ATOM     20  C   LIG    1       25.304 -25.466   5.766  0.00  0.00    +0.000 C 
ATOM     21  C   LIG    1       26.022 -24.204   6.247  0.00  0.00    +0.006 C 
ENDBRANCH  16  17
BRANCH  16  22
ATOM     22  C   LIG    1       23.905 -20.953   7.084  0.00  0.00    +0.145 C 
BRANCH  22  24
ATOM     23  N   LIG    1       22.468 -19.556   5.379  0.00  0.00    -0.197 NA
ATOM     24  C   LIG    1       23.084 -20.183   6.142  0.00  0.00    +0.065 C 
ENDBRANCH  22  24
ENDBRANCH  16  22
ENDBRANCH   1  16
TORSDOF 5
ENDMDL
MODEL 3
REMARK VINA RESULT:      -9.1      1.280      3.188
REMARK  Name = *****
REMARK                            x       y       z     vdW  Elec       q    Type
REMARK                         _______ _______ _______ _____ _____    ______ ____
ROOT
ATOM      1  N   LIG    1       25.356 -21.748   6.959  0.00  0.00    -0.267 N 
ATOM      2  N   LIG    1       25.167 -21.208   8.179  0.00  0.00    -0.179 NA
ATOM      3  C   LIG    1       26.287 -20.511   8.390  0.00  0.00    +0.144 A 
ATOM      4  C   LIG    1       27.213 -20.627   7.331  0.00  0.00    +0.038 A 
ATOM      5  C   LIG    1       26.561 -21.417   6.407  0.00  0.00    +0.118 A 
ENDROOT
BRANCH   4   6
ATOM      6  C   LIG    1       28.539 -20.085   7.155  0.00  0.00    +0.086 A 
ATOM      7  C   LIG    1       29.643 -20.600   7.844  0.00  0.00    +0.045 A 
ATOM      8  C   LIG    1       30.856 -19.980   7.579  0.00  0.00    +0.142 A 
ATOM      9  N   LIG    1       31.823 -20.591   8.330  0.00  0.00    -0.346 N 
ATOM     10  H   LIG    1       32.794 -20.315   8.327  0.00  0.00    +0.167 HD
ATOM     11  C   LIG    1       31.266 -21.603   9.069  0.00  0.00    +0.085 A 
ATOM     12  N   LIG    1       31.078 -18.954   6.744  0.00  0.00    -0.218 NA
ATOM     13  C   LIG    1       29.945 -18.554   6.141  0.00  0.00    +0.224 A 
ATOM     14  C   LIG    1       29.918 -21.636   8.783  0.00  0.00    +0.031 A 
ATOM     15  N   LIG    1       28.705 -19.057   6.285  0.00  0.00    -0.235 NA
ENDBRANCH   4   6
BRANCH   1  16
ATOM     16  C   LIG    1       24.311 -22.578   6.352  0.00  0.00    +0.124 C 
BRANCH  16  17
ATOM     17  C   LIG    1       24.400 -24.046   6.849  0.00  0.00    +0.015 C 
ATOM     18  C   LIG    1       23.673 -25.046   5.936  0.00  0.00    +0.006 C 
ATOM     19  C   LIG    1       24.359 -26.371   6.208  0.00  0.00    +0.000 C 
ATOM     20  C   LIG    1       25.822 -25.980   6.286  0.00  0.00    +0.000 C 
ATOM     21  C   LIG    1       25.827 -24.621   6.989  0.00  0.00    +0.006 C 
ENDBRANCH  16  17
BRANCH  16  22
ATOM     22  C   LIG    1       22.912 -21.980   6.606  0.00  0.00    +0.145 C 
BRANCH  22  24
ATOM     23  N   LIG    1       22.486 -19.828   5.153  0.00  0.00    -0.197 NA
ATOM     24  C   LIG    1       22.666 -20.794   5.778  0.00  0.00    +0.065 C 
ENDBRANCH  22  24
ENDBRANCH  16  22
ENDBRANCH   1  16
TORSDOF 5
ENDMDL
MODEL 4
REMARK VINA RESULT:      -8.9      0.900      1.980
REMARK  Name = *****
REMARK                            x       y       z     vdW  Elec       q    Type
REMARK                         _______ _______ _______ _____ _____    ______ ____
ROOT
ATOM      1  N   LIG    1       25.344 -22.314   7.192  0.00  0.00    -0.267 N 
ATOM      2  N   LIG    1       25.048 -21.779   8.393  0.00  0.00    -0.179 NA
ATOM      3  C   LIG    1       26.201 -21.227   8.782  0.00  0.00    +0.144 A 
ATOM      4  C   LIG    1       27.247 -21.433   7.857  0.00  0.00    +0.038 A 
ATOM      5  C   LIG    1       26.645 -22.120   6.823  0.00  0.00    +0.118 A 
ENDROOT
BRANCH   4   6
ATOM      6  C   LIG    1       28.639 -21.052   7.885  0.00  0.00    +0.086 A 
ATOM      7  C   LIG    1       29.153 -20.077   7.022  0.00  0.00    +0.045 A 
ATOM      8  C   LIG    1       30.509 -19.812   7.158  0.00  0.00    +0.142 A 
ATOM      9  N   LIG    1       30.852 -18.851   6.246  0.00  0.00    -0.346 N 
ATOM     10  H   LIG    1       31.788 -18.492   6.135  0.00  0.00    +0.167 HD
ATOM     11  C   LIG    1       29.745 -18.476   5.529  0.00  0.00    +0.085 A 
ATOM     12  N   LIG    1       31.365 -20.385   8.017  0.00  0.00    -0.218 NA
ATOM     13  C   LIG    1       30.752 -21.297   8.792  0.00  0.00    +0.224 A 
ATOM     14  C   LIG    1       28.677 -19.215   5.993  0.00  0.00    +0.031 A 
ATOM     15  N   LIG    1       29.455 -21.654   8.786  0.00  0.00    -0.235 NA
ENDBRANCH   4   6
BRANCH   1  16
ATOM     16  C   LIG    1       24.305 -22.999   6.417  0.00  0.00    +0.124 C 
BRANCH  16  17
ATOM     17  C   LIG    1       23.486 -21.994   5.561  0.00  0.00    +0.015 C 
ATOM     18  C   LIG    1       23.025 -20.755   6.345  0.00  0.00    +0.006 C 
ATOM     19  C   LIG    1       22.825 -19.691   5.283  0.00  0.00    +0.000 C 
ATOM     20  C   LIG    1       24.019 -19.902   4.371  0.00  0.00    +0.000 C 
ATOM     21  C   LIG    1       24.215 -21.418   4.326  0.00  0.00    +0.006 C 
ENDBRANCH  16  17
BRANCH  16  22
ATOM     22  C   LIG    1       24.910 -24.118   5.547  0.00  0.00    +0.145 C 
BRANCH  22  24
ATOM     23  N   LIG    1       24.031 -26.509   6.206  0.00  0.00    -0.197 NA
ATOM     24  C   LIG    1       24.414 -25.444   5.936  0.00  0.00    +0.065 C 
ENDBRANCH  22  24
ENDBRANCH  16  22
ENDBRANCH   1  16
TORSDOF 5
ENDMDL
MODEL 5
REMARK VINA RESULT:      -8.9      1.914      6.982
REMARK  Name = *****
REMARK                            x       y       z     vdW  Elec       q    Type
REMARK                         _______ _______ _______ _____ _____    ______ ____
ROOT
ATOM      1  N   LIG    1       28.159 -20.867   6.936  0.00  0.00    -0.267 N 
ATOM      2  N   LIG    1       27.679 -20.022   6.004  0.00  0.00    -0.179 NA
ATOM      3  C   LIG    1       26.437 -20.464   5.790  0.00  0.00    +0.144 A 
ATOM      4  C   LIG    1       26.125 -21.612   6.551  0.00  0.00    +0.038 A 
ATOM      5  C   LIG    1       27.260 -21.827   7.304  0.00  0.00    +0.118 A 
ENDROOT
BRANCH   4   6
ATOM      6  C   LIG    1       24.936 -22.428   6.609  0.00  0.00    +0.086 A 
ATOM      7  C   LIG    1       24.987 -23.816   6.443  0.00  0.00    +0.045 A 
ATOM      8  C   LIG    1       23.768 -24.474   6.521  0.00  0.00    +0.142 A 
ATOM      9  N   LIG    1       23.988 -25.812   6.331  0.00  0.00    -0.346 N 
ATOM     10  H   LIG    1       23.257 -26.506   6.328  0.00  0.00    +0.167 HD
ATOM     11  C   LIG    1       25.328 -26.039   6.143  0.00  0.00    +0.085 A 
ATOM     12  N   LIG    1       22.563 -23.926   6.736  0.00  0.00    -0.218 NA
ATOM     13  C   LIG    1       22.646 -22.592   6.885  0.00  0.00    +0.224 A 
ATOM     14  C   LIG    1       25.972 -24.821   6.214  0.00  0.00    +0.031 A 
ATOM     15  N   LIG    1       23.747 -21.819   6.845  0.00  0.00    -0.235 NA
ENDBRANCH   4   6
BRANCH   1  16
ATOM     16  C   LIG    1       29.516 -20.687   7.462  0.00  0.00    +0.124 C 
BRANCH  16  17
ATOM     17  C   LIG    1       29.875 -19.182   7.589  0.00  0.00    +0.015 C 
ATOM     18  C   LIG    1       29.513 -18.580   8.956  0.00  0.00    +0.006 C 
ATOM     19  C   LIG    1       30.445 -17.392   9.102  0.00  0.00    +0.000 C 
ATOM     20  C   LIG    1       31.759 -17.931   8.570  0.00  0.00    +0.000 C 
ATOM     21  C   LIG    1       31.368 -18.831   7.397  0.00  0.00    +0.006 C 
ENDBRANCH  16  17
BRANCH  16  22
ATOM     22  C   LIG    1       29.691 -21.424   8.806  0.00  0.00    +0.145 C 
BRANCH  22  24
ATOM     23  N   LIG    1       32.205 -22.101   9.187  0.00  0.00    -0.197 NA
ATOM     24  C   LIG    1       31.087 -21.815   9.037  0.00  0.00    +0.065 C 
ENDBRANCH  22  24
ENDBRANCH  16  22
ENDBRANCH   1  16
TORSDOF 5
ENDMDL
MODEL 6
REMARK VINA RESULT:      -8.8      1.467      2.547
REMARK  Name = *****
REMARK                            x       y       z     vdW  Elec       q    Type
REMARK                         _______ _______ _______ _____ _____    ______ ____
ROOT
ATOM      1  N   LIG    1       26.489 -20.893   6.470  0.00  0.00    -0.267 N 
ATOM      2  N   LIG    1       27.040 -20.160   5.482  0.00  0.00    -0.179 NA
ATOM      3  C   LIG    1       28.306 -20.003   5.880  0.00  0.00    +0.144 A 
ATOM      4  C   LIG    1       28.565 -20.597   7.133  0.00  0.00    +0.038 A 
ATOM      5  C   LIG    1       27.367 -21.189   7.473  0.00  0.00    +0.118 A 
ENDROOT
BRANCH   4   6
ATOM      6  C   LIG    1       29.759 -20.641   7.944  0.00  0.00    +0.086 A 
ATOM      7  C   LIG    1       30.391 -19.474   8.387  0.00  0.00    +0.045 A 
ATOM      8  C   LIG    1       31.531 -19.666   9.157  0.00  0.00    +0.142 A 
ATOM      9  N   LIG    1       32.028 -18.438   9.500  0.00  0.00    -0.346 N 
ATOM     10  H   LIG    1       32.864 -18.305  10.050  0.00  0.00    +0.167 HD
ATOM     11  C   LIG    1       31.229 -17.452   8.981  0.00  0.00    +0.085 A 
ATOM     12  N   LIG    1       32.081 -20.835   9.513  0.00  0.00    -0.218 NA
ATOM     13  C   LIG    1       31.381 -21.878   9.033  0.00  0.00    +0.224 A 
ATOM     14  C   LIG    1       30.204 -18.065   8.292  0.00  0.00    +0.031 A 
ATOM     15  N   LIG    1       30.261 -21.853   8.287  0.00  0.00    -0.235 NA
ENDBRANCH   4   6
BRANCH   1  16
ATOM     16  C   LIG    1       25.084 -21.303   6.383  0.00  0.00    +0.124 C 
BRANCH  16  17
ATOM     17  C   LIG    1       24.198 -20.161   5.816  0.00  0.00    +0.015 C 
ATOM     18  C   LIG    1       24.343 -19.971   4.298  0.00  0.00    +0.006 C 
ATOM     19  C   LIG    1       23.043 -19.314   3.875  0.00  0.00    +0.000 C 
ATOM     20  C   LIG    1       22.008 -20.070   4.687  0.00  0.00    +0.000 C 
ATOM     21  C   LIG    1       22.677 -20.319   6.040  0.00  0.00    +0.006 C 
ENDBRANCH  16  17
BRANCH  16  22
ATOM     22  C   LIG    1       24.935 -22.596   5.556  0.00  0.00    +0.145 C 
BRANCH  22  24
ATOM     23  N   LIG    1       23.357 -24.357   6.709  0.00  0.00    -0.197 NA
ATOM     24  C   LIG    1       24.065 -23.574   6.220  0.00  0.00    +0.065 C 
ENDBRANCH  22  24
ENDBRANCH  16  22
ENDBRANCH   1  16
TORSDOF 5
ENDMDL
MODEL 7
REMARK VINA RESULT:      -8.7      1.879      3.658
REMARK  Name = *****
REMARK                            x       y       z     vdW  Elec       q    Type
REMARK                         _______ _______ _______ _____ _____    ______ ____
ROOT
ATOM      1  N   LIG    1       26.308 -20.737   6.290  0.00  0.00    -0.267 N 
ATOM      2  N   LIG    1       25.721 -20.430   7.464  0.00  0.00    -0.179 NA
ATOM      3  C   LIG    1       26.752 -20.306   8.306  0.00  0.00    +0.144 A 
ATOM      4  C   LIG    1       27.996 -20.567   7.691  0.00  0.00    +0.038 A 
ATOM      5  C   LIG    1       27.668 -20.818   6.375  0.00  0.00    +0.118 A 
ENDROOT
BRANCH   4   6
ATOM      6  C   LIG    1       29.339 -20.585   8.219  0.00  0.00    +0.086 A 
ATOM      7  C   LIG    1       30.047 -19.405   8.470  0.00  0.00    +0.045 A 
ATOM      8  C   LIG    1       31.329 -19.572   8.975  0.00  0.00    +0.142 A 
ATOM      9  N   LIG    1       31.884 -18.334   9.156  0.00  0.00    -0.346 N 
ATOM     10  H   LIG    1       32.820 -18.183   9.503  0.00  0.00    +0.167 HD
ATOM     11  C   LIG    1       30.985 -17.365   8.792  0.00  0.00    +0.085 A 
ATOM     12  N   LIG    1       31.951 -20.729   9.244  0.00  0.00    -0.218 NA
ATOM     13  C   LIG    1       31.168 -21.787   8.967  0.00  0.00    +0.224 A 
ATOM     14  C   LIG    1       29.836 -17.999   8.369  0.00  0.00    +0.031 A 
ATOM     15  N   LIG    1       29.911 -21.786   8.486  0.00  0.00    -0.235 NA
ENDBRANCH   4   6
BRANCH   1  16
ATOM     16  C   LIG    1       25.490 -20.929   5.089  0.00  0.00    +0.124 C 
BRANCH  16  17
ATOM     17  C   LIG    1       24.582 -22.182   5.220  0.00  0.00    +0.015 C 
ATOM     18  C   LIG    1       25.211 -23.308   6.056  0.00  0.00    +0.006 C 
ATOM     19  C   LIG    1       24.024 -24.105   6.565  0.00  0.00    +0.000 C 
ATOM     20  C   LIG    1       23.032 -23.022   6.943  0.00  0.00    +0.000 C 
ATOM     21  C   LIG    1       23.201 -21.944   5.871  0.00  0.00    +0.006 C 
ENDBRANCH  16  17
BRANCH  16  22
ATOM     22  C   LIG    1       24.663 -19.665   4.774  0.00  0.00    +0.145 C 
BRANCH  22  24
ATOM     23  N   LIG    1       25.876 -18.052   3.087  0.00  0.00    -0.197 NA
ATOM     24  C   LIG    1       25.353 -18.784   3.825  0.00  0.00    +0.065 C 
ENDBRANCH  22  24
ENDBRANCH  16  22
ENDBRANCH   1  16
TORSDOF 5
ENDMDL
MODEL 8
REMARK VINA RESULT:      -8.6      2.084      7.312
REMARK  Name = *****
REMARK                            x       y       z     vdW  Elec       q    Type
REMARK                         _______ _______ _______ _____ _____    ______ ____
ROOT
ATOM      1  N   LIG    1       29.398 -19.759   7.307  0.00  0.00    -0.267 N 
ATOM      2  N   LIG    1       29.356 -19.264   6.055  0.00  0.00    -0.179 NA
ATOM      3  C   LIG    1       28.129 -19.582   5.634  0.00  0.00    +0.144 A 
ATOM      4  C   LIG    1       27.392 -20.311   6.592  0.00  0.00    +0.038 A 
ATOM      5  C   LIG    1       28.241 -20.382   7.677  0.00  0.00    +0.118 A 
ENDROOT
BRANCH   4   6
ATOM      6  C   LIG    1       26.066 -20.878   6.551  0.00  0.00    +0.086 A 
ATOM      7  C   LIG    1       25.245 -20.752   5.425  0.00  0.00    +0.045 A 
ATOM      8  C   LIG    1       23.994 -21.346   5.526  0.00  0.00    +0.142 A 
ATOM      9  N   LIG    1       23.319 -21.126   4.355  0.00  0.00    -0.346 N 
ATOM     10  H   LIG    1       22.379 -21.447   4.181  0.00  0.00    +0.167 HD
ATOM     11  C   LIG    1       24.109 -20.413   3.491  0.00  0.00    +0.085 A 
ATOM     12  N   LIG    1       23.498 -22.018   6.574  0.00  0.00    -0.218 NA
ATOM     13  C   LIG    1       24.380 -22.076   7.588  0.00  0.00    +0.224 A 
ATOM     14  C   LIG    1       25.310 -20.173   4.125  0.00  0.00    +0.031 A 
ATOM     15  N   LIG    1       25.623 -21.562   7.636  0.00  0.00    -0.235 NA
ENDBRANCH   4   6
BRANCH   1  16
ATOM     16  C   LIG    1       30.600 -19.581   8.127  0.00  0.00    +0.124 C 
BRANCH  16  17
ATOM     17  C   LIG    1       30.758 -18.105   8.583  0.00  0.00    +0.015 C 
ATOM     18  C   LIG    1       30.048 -17.796   9.911  0.00  0.00    +0.006 C 
ATOM     19  C   LIG    1       30.791 -16.595  10.464  0.00  0.00    +0.000 C 
ATOM     20  C   LIG    1       32.240 -16.934  10.168  0.00  0.00    +0.000 C 
ATOM     21  C   LIG    1       32.210 -17.623   8.802  0.00  0.00    +0.006 C 
ENDBRANCH  16  17
BRANCH  16  22
ATOM     22  C   LIG    1       30.598 -20.546   9.330  0.00  0.00    +0.145 C 
BRANCH  22  24
ATOM     23  N   LIG    1       31.988 -22.727   8.847  0.00  0.00    -0.197 NA
ATOM     24  C   LIG    1       31.354 -21.772   9.050  0.00  0.00    +0.065 C 
ENDBRANCH  22  24
ENDBRANCH  16  22
ENDBRANCH   1  16
TORSDOF 5
ENDMDL
MODEL 9
REMARK VINA RESULT:      -8.5      1.589      3.875
REMARK  Name = *****
REMARK                            x       y       z     vdW  Elec       q    Type
REMARK                         _______ _______ _______ _____ _____    ______ ____
ROOT
ATOM      1  N   LIG    1       25.551 -22.647   7.147  0.00  0.00    -0.267 N 
ATOM      2  N   LIG    1       25.213 -22.160   8.357  0.00  0.00    -0.179 NA
ATOM      3  C   LIG    1       26.302 -21.485   8.737  0.00  0.00    +0.144 A 
ATOM      4  C   LIG    1       27.352 -21.564   7.797  0.00  0.00    +0.038 A 
ATOM      5  C   LIG    1       26.816 -22.305   6.764  0.00  0.00    +0.118 A 
ENDROOT
BRANCH   4   6
ATOM      6  C   LIG    1       28.692 -21.028   7.811  0.00  0.00    +0.086 A 
ATOM      7  C   LIG    1       29.099 -20.038   6.911  0.00  0.00    +0.045 A 
ATOM      8  C   LIG    1       30.416 -19.617   7.038  0.00  0.00    +0.142 A 
ATOM      9  N   LIG    1       30.656 -18.661   6.088  0.00  0.00    -0.346 N 
ATOM     10  H   LIG    1       31.546 -18.205   5.964  0.00  0.00    +0.167 HD
ATOM     11  C   LIG    1       29.518 -18.442   5.355  0.00  0.00    +0.085 A 
ATOM     12  N   LIG    1       31.325 -20.055   7.921  0.00  0.00    -0.218 NA
ATOM     13  C   LIG    1       30.814 -20.998   8.732  0.00  0.00    +0.224 A 
ATOM     14  C   LIG    1       28.536 -19.276   5.846  0.00  0.00    +0.031 A 
ATOM     15  N   LIG    1       29.564 -21.499   8.738  0.00  0.00    -0.235 NA
ENDBRANCH   4   6
BRANCH   1  16
ATOM     16  C   LIG    1       24.585 -23.438   6.378  0.00  0.00    +0.124 C 
BRANCH  16  17
ATOM     17  C   LIG    1       24.759 -24.957   6.649  0.00  0.00    +0.015 C 
ATOM     18  C   LIG    1       23.767 -25.835   5.870  0.00  0.00    +0.006 C 
ATOM     19  C   LIG    1       24.454 -27.184   5.772  0.00  0.00    +0.000 C 
ATOM     20  C   LIG    1       25.892 -26.804   5.473  0.00  0.00    +0.000 C 
ATOM     21  C   LIG    1       26.146 -25.544   6.302  0.00  0.00    +0.006 C 
ENDBRANCH  16  17
BRANCH  16  22
ATOM     22  C   LIG    1       23.141 -22.977   6.662  0.00  0.00    +0.145 C 
BRANCH  22  24
ATOM     23  N   LIG    1       22.641 -20.597   5.656  0.00  0.00    -0.197 NA
ATOM     24  C   LIG    1       22.863 -21.659   6.079  0.00  0.00    +0.065 C 
ENDBRANCH  22  24
ENDBRANCH  16  22
ENDBRANCH   1  16
TORSDOF 5
ENDMDL
