MODEL 1
REMARK VINA RESULT:       8.2      0.000      0.000
REMARK  Name = *****
REMARK                            x       y       z     vdW  Elec       q    Type
REMARK                         _______ _______ _______ _____ _____    ______ ____
ROOT
ATOM      1  C   LIG    1       27.994 -17.351   4.152  0.00  0.00    +0.124 A 
ATOM      2  C   LIG    1       27.001 -17.559   3.174  0.00  0.00    -0.001 A 
ATOM      3  C   LIG    1       26.447 -16.422   2.553  0.00  0.00    +0.008 A 
ATOM      4  C   LIG    1       26.857 -15.129   2.882  0.00  0.00    +0.013 A 
ATOM      5  C   LIG    1       27.822 -14.932   3.873  0.00  0.00    +0.041 A 
ATOM      6  C   LIG    1       28.338 -16.044   4.532  0.00  0.00    +0.059 A 
ENDROOT
BRANCH   1   8
ATOM      7  C   LIG    1       29.012 -18.240   6.102  0.00  0.00    +0.277 C 
ATOM      8  O   LIG    1       28.571 -18.445   4.752  0.00  0.00    -0.495 OA
ENDBRANCH   1   8
BRANCH   5   9
ATOM      9  C   LIG    1       28.243 -13.564   4.262  0.00  0.00    +0.239 C 
ATOM     10  N   LIG    1       27.677 -12.620   4.921  0.00  0.00    -0.091 NA
BRANCH  10  11
ATOM     11  S   LIG    1       26.241 -12.644   5.625  0.00  0.00    +0.102 S 
ATOM     12  O   LIG    1       26.075 -11.548   6.556  0.00  0.00    -0.146 OA
ATOM     13  O   LIG    1       25.966 -14.008   6.070  0.00  0.00    -0.146 OA
BRANCH  11  14
ATOM     14  C   LIG    1       25.128 -12.311   4.249  0.00  0.00    +0.116 A 
ATOM     15  C   LIG    1       23.842 -11.761   4.448  0.00  0.00    -0.024 A 
ATOM     16  C   LIG    1       23.261 -11.452   5.800  0.00  0.00    +0.046 C 
ATOM     17  C   LIG    1       23.054 -11.498   3.313  0.00  0.00    +0.005 A 
ATOM     18  C   LIG    1       23.526 -11.764   2.026  0.00  0.00    +0.000 A 
ATOM     19  C   LIG    1       24.796 -12.303   1.845  0.00  0.00    +0.002 A 
ATOM     20  C   LIG    1       25.596 -12.577   2.952  0.00  0.00    +0.029 A 
ENDBRANCH  11  14
ENDBRANCH  10  11
BRANCH   9  21
ATOM     21  O   LIG    1       29.475 -13.267   3.786  0.00  0.00    -0.491 OA
ATOM     22  H   LIG    1       29.509 -12.497   3.200  0.00  0.00    +0.294 HD
ENDBRANCH   9  21
ENDBRANCH   5   9
BRANCH   2  23
ATOM     23  C   LIG    1       26.536 -18.940   2.743  0.00  0.00    +0.076 C 
BRANCH  23  24
ATOM     24  C   LIG    1       26.209 -19.709   3.991  0.00  0.00    -0.018 C 
ATOM     25  C   LIG    1       24.921 -20.179   4.436  0.00  0.00    +0.005 C 
ATOM     26  C   LIG    1       25.124 -20.816   5.662  0.00  0.00    +0.049 C 
ATOM     27  C   LIG    1       24.081 -21.353   6.406  0.00  0.00    +0.028 C 
ATOM     28  C   LIG    1       22.795 -21.225   5.895  0.00  0.00    +0.025 C 
ATOM     29  C   LIG    1       22.518 -20.597   4.682  0.00  0.00    +0.037 C 
ATOM     30  N   LIG    1       26.473 -20.800   5.921  0.00  0.00    -0.349 NA
ATOM     31  C   LIG    1       27.097 -21.437   7.060  0.00  0.00    +0.149 C 
ATOM     32  C   LIG    1       23.593 -20.096   3.931  0.00  0.00    +0.033 C 
ATOM     33  C   LIG    1       27.130 -20.115   4.943  0.00  0.00    +0.090 C 
BRANCH  29  34
ATOM     34  N   LIG    1       21.201 -20.415   4.177  0.00  0.00    -0.251 N 
ATOM     35  H   LIG    1       20.792 -21.165   3.638  0.00  0.00    +0.158 HD
ATOM     36  C   LIG    1       20.428 -19.285   4.205  0.00  0.00    +0.405 C 
ATOM     37  O   LIG    1       19.360 -19.207   3.583  0.00  0.00    -0.226 OA
BRANCH  36  38
ATOM     38  O   LIG    1       20.954 -18.278   4.916  0.00  0.00    -0.447 OA
BRANCH  38  39
ATOM     39  C   LIG    1       21.689 -17.250   4.278  0.00  0.00    +0.178 C 
ATOM     40  C   LIG    1       21.972 -16.155   5.300  0.00  0.00    +0.045 C 
ATOM     41  C   LIG    1       23.188 -15.438   4.740  0.00  0.00    +0.004 C 
ATOM     42  C   LIG    1       23.942 -16.480   3.912  0.00  0.00    +0.004 C 
ATOM     43  C   LIG    1       23.089 -17.740   3.932  0.00  0.00    +0.045 C 
ENDBRANCH  38  39
ENDBRANCH  36  38
ENDBRANCH  29  34
ENDBRANCH  23  24
ENDBRANCH   2  23
TORSDOF 10
ENDMDL
MODEL 2
REMARK VINA RESULT:      11.0      2.202      5.488
REMARK  Name = *****
REMARK                            x       y       z     vdW  Elec       q    Type
REMARK                         _______ _______ _______ _____ _____    ______ ____
ROOT
ATOM      1  C   LIG    1       23.834 -19.692   3.588  0.00  0.00    +0.124 A 
ATOM      2  C   LIG    1       23.929 -20.251   4.878  0.00  0.00    -0.001 A 
ATOM      3  C   LIG    1       23.122 -19.696   5.891  0.00  0.00    +0.008 A 
ATOM      4  C   LIG    1       22.255 -18.632   5.643  0.00  0.00    +0.013 A 
ATOM      5  C   LIG    1       22.188 -18.066   4.367  0.00  0.00    +0.041 A 
ATOM      6  C   LIG    1       23.019 -18.570   3.370  0.00  0.00    +0.059 A 
ENDROOT
BRANCH   1   8
ATOM      7  C   LIG    1       24.206 -21.556   2.167  0.00  0.00    +0.277 C 
ATOM      8  O   LIG    1       24.590 -20.234   2.575  0.00  0.00    -0.495 OA
ENDBRANCH   1   8
BRANCH   5   9
ATOM      9  C   LIG    1       21.300 -16.911   4.094  0.00  0.00    +0.239 C 
ATOM     10  N   LIG    1       21.311 -15.681   4.461  0.00  0.00    -0.091 NA
BRANCH  10  11
ATOM     11  S   LIG    1       22.403 -14.942   5.367  0.00  0.00    +0.102 S 
ATOM     12  O   LIG    1       23.376 -15.869   5.907  0.00  0.00    -0.146 OA
ATOM     13  O   LIG    1       21.713 -14.023   6.268  0.00  0.00    -0.146 OA
BRANCH  11  14
ATOM     14  C   LIG    1       23.282 -13.930   4.164  0.00  0.00    +0.116 A 
ATOM     15  C   LIG    1       24.110 -12.855   4.560  0.00  0.00    -0.024 A 
ATOM     16  C   LIG    1       24.298 -12.421   5.987  0.00  0.00    +0.046 C 
ATOM     17  C   LIG    1       24.790 -12.141   3.556  0.00  0.00    +0.005 A 
ATOM     18  C   LIG    1       24.659 -12.485   2.209  0.00  0.00    +0.000 A 
ATOM     19  C   LIG    1       23.843 -13.547   1.835  0.00  0.00    +0.002 A 
ATOM     20  C   LIG    1       23.155 -14.269   2.808  0.00  0.00    +0.029 A 
ENDBRANCH  11  14
ENDBRANCH  10  11
BRANCH   9  21
ATOM     21  O   LIG    1       20.252 -17.261   3.311  0.00  0.00    -0.491 OA
ATOM     22  H   LIG    1       20.492 -17.574   2.427  0.00  0.00    +0.294 HD
ENDBRANCH   9  21
ENDBRANCH   5   9
BRANCH   2  23
ATOM     23  C   LIG    1       24.825 -21.434   5.207  0.00  0.00    +0.076 C 
BRANCH  23  24
ATOM     24  C   LIG    1       26.195 -20.887   5.492  0.00  0.00    -0.018 C 
ATOM     25  C   LIG    1       26.761 -19.634   5.060  0.00  0.00    +0.005 C 
ATOM     26  C   LIG    1       28.066 -19.588   5.555  0.00  0.00    +0.049 C 
ATOM     27  C   LIG    1       28.929 -18.532   5.288  0.00  0.00    +0.028 C 
ATOM     28  C   LIG    1       28.454 -17.503   4.483  0.00  0.00    +0.025 C 
ATOM     29  C   LIG    1       27.167 -17.486   3.950  0.00  0.00    +0.037 C 
ATOM     30  N   LIG    1       28.266 -20.718   6.309  0.00  0.00    -0.349 NA
ATOM     31  C   LIG    1       29.468 -21.000   7.062  0.00  0.00    +0.149 C 
ATOM     32  C   LIG    1       26.303 -18.545   4.266  0.00  0.00    +0.033 C 
ATOM     33  C   LIG    1       27.163 -21.518   6.256  0.00  0.00    +0.090 C 
BRANCH  29  34
ATOM     34  N   LIG    1       26.692 -16.463   3.084  0.00  0.00    -0.251 N 
ATOM     35  H   LIG    1       26.147 -16.737   2.279  0.00  0.00    +0.158 HD
ATOM     36  C   LIG    1       26.983 -15.124   3.109  0.00  0.00    +0.405 C 
ATOM     37  O   LIG    1       26.636 -14.362   2.197  0.00  0.00    -0.226 OA
BRANCH  36  38
ATOM     38  O   LIG    1       27.707 -14.740   4.170  0.00  0.00    -0.447 OA
BRANCH  38  39
ATOM     39  C   LIG    1       27.848 -13.368   4.489  0.00  0.00    +0.178 C 
ATOM     40  C   LIG    1       27.615 -13.197   5.987  0.00  0.00    +0.045 C 
ATOM     41  C   LIG    1       28.329 -11.898   6.321  0.00  0.00    +0.004 C 
ATOM     42  C   LIG    1       29.457 -11.767   5.297  0.00  0.00    +0.004 C 
ATOM     43  C   LIG    1       29.301 -12.938   4.336  0.00  0.00    +0.045 C 
ENDBRANCH  38  39
ENDBRANCH  36  38
ENDBRANCH  29  34
ENDBRANCH  23  24
ENDBRANCH   2  23
TORSDOF 10
ENDMDL
