MODEL 1
REMARK VINA RESULT:      -2.3      0.000      0.000
REMARK  Name = *****
REMARK                            x       y       z     vdW  Elec       q    Type
REMARK                         _______ _______ _______ _____ _____    ______ ____
ROOT
ATOM      1  N   LIG    1       23.172 -20.772   4.810  0.00  0.00    -0.109 NA
ATOM      2  C   LIG    1       23.199 -19.516   4.526  0.00  0.00    +0.201 C 
ATOM      3  N   LIG    1       24.302 -18.904   3.935  0.00  0.00    -0.326 N 
ATOM      4  H   LIG    1       25.190 -19.368   3.869  0.00  0.00    +0.169 HD
ATOM      5  C   LIG    1       24.131 -17.518   3.965  0.00  0.00    +0.066 A 
ATOM      6  C   LIG    1       22.842 -17.267   4.474  0.00  0.00    +0.065 A 
ATOM      7  C   LIG    1       22.329 -15.995   4.530  0.00  0.00    +0.028 A 
ATOM      8  C   LIG    1       23.152 -14.951   4.077  0.00  0.00    +0.014 A 
ATOM      9  C   LIG    1       24.454 -15.199   3.569  0.00  0.00    +0.024 A 
ATOM     10  C   LIG    1       24.937 -16.513   3.484  0.00  0.00    +0.039 A 
ATOM     11  N   LIG    1       22.265 -18.505   4.747  0.00  0.00    -0.326 N 
ATOM     12  H   LIG    1       21.421 -18.662   5.280  0.00  0.00    +0.169 HD
ENDROOT
BRANCH   1  13
ATOM     13  C   LIG    1       22.056 -21.258   5.428  0.00  0.00    +0.427 C 
ATOM     14  O   LIG    1       20.953 -21.423   4.927  0.00  0.00    -0.224 OA
BRANCH  13  16
ATOM     15  C   LIG    1       23.745 -21.572   7.002  0.00  0.00    +0.282 C 
ATOM     16  O   LIG    1       22.347 -21.515   6.733  0.00  0.00    -0.452 OA
ENDBRANCH  13  16
ENDBRANCH   1  13
BRANCH   9  17
ATOM     17  C   LIG    1       25.256 -14.040   3.070  0.00  0.00    +0.193 C 
ATOM     18  O   LIG    1       24.981 -13.553   1.976  0.00  0.00    -0.287 OA
BRANCH  17  19
ATOM     19  C   LIG    1       26.381 -13.452   3.856  0.00  0.00    +0.022 A 
ATOM     20  C   LIG    1       27.501 -12.899   3.220  0.00  0.00    +0.014 A 
ATOM     21  C   LIG    1       28.544 -12.358   3.976  0.00  0.00    +0.039 A 
ATOM     22  C   LIG    1       28.473 -12.380   5.365  0.00  0.00    +0.123 A 
ATOM     23  F   LIG    1       29.474 -11.857   6.083  0.00  0.00    -0.205 F 
ATOM     24  C   LIG    1       27.385 -12.952   6.014  0.00  0.00    +0.039 A 
ATOM     25  C   LIG    1       26.344 -13.505   5.260  0.00  0.00    +0.014 A 
ENDBRANCH  17  19
ENDBRANCH   9  17
TORSDOF 4
ENDMDL
