MODEL 1
REMARK VINA RESULT:      40.3      0.000      0.000
REMARK  Name = *****
REMARK                            x       y       z     vdW  Elec       q    Type
REMARK                         _______ _______ _______ _____ _____    ______ ____
ROOT
ATOM      1  C   LIG    1       21.804 -31.381   9.508  0.00  0.00    +0.014 C 
ATOM      2  C   LIG    1       23.116 -31.868  10.131  0.00  0.00    +0.037 C 
ATOM      3  C   LIG    1       22.880 -32.772  11.379  0.00  0.00    +0.127 C 
ATOM      4  C   LIG    1       22.257 -32.132  12.657  0.00  0.00    +0.056 C 
ATOM      5  C   LIG    1       20.723 -32.068  12.600  0.00  0.00    +0.014 C 
ATOM      6  C   LIG    1       22.850 -30.786  13.176  0.00  0.00    +0.179 C 
ATOM      7  C   LIG    1       24.369 -30.778  13.350  0.00  0.00    +0.052 C 
ATOM      8  O   LIG    1       22.250 -29.640  12.512  0.00  0.00    -0.461 OA
ATOM      9  C   LIG    1       22.952 -28.644  11.925  0.00  0.00    +0.310 C 
ATOM     10  O   LIG    1       24.121 -28.695  11.561  0.00  0.00    -0.251 OA
ATOM     11  C   LIG    1       22.082 -27.453  11.641  0.00  0.00    +0.152 C 
ATOM     12  C   LIG    1       21.370 -26.888  12.863  0.00  0.00    +0.128 C 
ATOM     13  C   LIG    1       22.186 -25.869  13.676  0.00  0.00    +0.063 C 
ATOM     14  C   LIG    1       23.350 -26.393  14.526  0.00  0.00    +0.119 C 
ATOM     15  C   LIG    1       24.738 -26.183  13.889  0.00  0.00    +0.062 C 
ATOM     16  C   LIG    1       25.868 -26.472  14.894  0.00  0.00    +0.117 C 
ATOM     17  C   LIG    1       27.280 -26.193  14.363  0.00  0.00    +0.034 C 
ATOM     18  C   LIG    1       28.009 -27.324  13.616  0.00  0.00    +0.036 C 
ATOM     19  C   LIG    1       27.419 -27.744  12.259  0.00  0.00    +0.143 C 
ATOM     20  C   LIG    1       28.456 -28.575  11.450  0.00  0.00    +0.150 C 
ATOM     21  C   LIG    1       28.277 -28.612   9.924  0.00  0.00    +0.108 C 
ATOM     22  C   LIG    1       26.962 -29.208   9.473  0.00  0.00    +0.138 C 
ATOM     23  O   LIG    1       26.301 -29.937  10.216  0.00  0.00    -0.297 OA
ATOM     24  C   LIG    1       26.561 -29.017   8.018  0.00  0.00    +0.106 C 
ATOM     25  C   LIG    1       25.074 -28.725   7.735  0.00  0.00    +0.138 C 
ATOM     26  C   LIG    1       24.717 -27.251   7.422  0.00  0.00    +0.155 C 
ATOM     27  C   LIG    1       24.791 -26.300   8.627  0.00  0.00    +0.134 C 
ATOM     28  C   LIG    1       24.438 -24.800   8.412  0.00  0.00    +0.068 C 
ATOM     29  C   LIG    1       25.520 -23.860   7.811  0.00  0.00    +0.147 C 
ATOM     30  C   LIG    1       25.773 -24.294   6.384  0.00  0.00    +0.004 C 
ATOM     31  C   LIG    1       26.901 -24.853   5.908  0.00  0.00    -0.002 C 
ATOM     32  C   LIG    1       26.830 -25.707   4.735  0.00  0.00    -0.000 C 
ATOM     33  C   LIG    1       27.546 -26.844   4.697  0.00  0.00    +0.000 C 
ATOM     34  C   LIG    1       27.123 -27.986   3.910  0.00  0.00    +0.000 C 
ATOM     35  C   LIG    1       27.508 -29.231   4.233  0.00  0.00    -0.000 C 
ATOM     36  C   LIG    1       26.899 -30.418   3.675  0.00  0.00    -0.004 C 
ATOM     37  C   LIG    1       27.183 -31.650   4.126  0.00  0.00    -0.026 C 
ATOM     38  C   LIG    1       26.501 -32.899   3.635  0.00  0.00    +0.031 C 
ATOM     39  C   LIG    1       26.022 -33.825   4.766  0.00  0.00    +0.031 C 
ATOM     40  C   LIG    1       24.921 -33.248   5.620  0.00  0.00    -0.026 C 
ATOM     41  C   LIG    1       24.989 -33.173   6.959  0.00  0.00    -0.005 C 
ATOM     42  C   LIG    1       23.930 -32.639   7.790  0.00  0.00    -0.004 C 
ATOM     43  C   LIG    1       24.074 -32.500   9.119  0.00  0.00    -0.021 C 
ENDROOT
BRANCH   3  44
ATOM     44  O   LIG    1       24.109 -33.395  11.801  0.00  0.00    -0.391 OA
ATOM     45  H   LIG    1       24.019 -33.655  12.734  0.00  0.00    +0.210 HD
ENDBRANCH   3  44
BRANCH  12  46
ATOM     46  O   LIG    1       20.217 -26.171  12.379  0.00  0.00    -0.391 OA
ATOM     47  H   LIG    1       19.694 -25.902  13.156  0.00  0.00    +0.210 HD
ENDBRANCH  12  46
BRANCH  14  48
ATOM     48  O   LIG    1       23.143 -27.764  14.843  0.00  0.00    -0.392 OA
ATOM     49  H   LIG    1       23.921 -28.040  15.377  0.00  0.00    +0.210 HD
ENDBRANCH  14  48
BRANCH  16  50
ATOM     50  O   LIG    1       25.759 -27.809  15.380  0.00  0.00    -0.392 OA
ATOM     51  H   LIG    1       24.816 -28.055  15.336  0.00  0.00    +0.210 HD
ENDBRANCH  16  50
BRANCH  19  52
ATOM     52  O   LIG    1       27.054 -26.559  11.564  0.00  0.00    -0.389 OA
ATOM     53  H   LIG    1       26.597 -26.846  10.737  0.00  0.00    +0.210 HD
ENDBRANCH  19  52
BRANCH  20  54
ATOM     54  O   LIG    1       28.525 -29.907  11.965  0.00  0.00    -0.389 OA
ATOM     55  H   LIG    1       27.634 -30.115  12.314  0.00  0.00    +0.210 HD
ENDBRANCH  20  54
BRANCH  25  56
ATOM     56  O   LIG    1       24.159 -29.184   8.734  0.00  0.00    -0.391 OA
ATOM     57  H   LIG    1       23.237 -29.097   8.391  0.00  0.00    +0.210 HD
ENDBRANCH  25  56
BRANCH  26  58
ATOM     58  C   LIG    1       23.336 -27.174   6.797  0.00  0.00    +0.313 C 
ATOM     59  O   LIG    1       22.680 -28.167   6.510  0.00  0.00    -0.251 OA
BRANCH  58  60
ATOM     60  O   LIG    1       22.911 -25.926   6.497  0.00  0.00    -0.480 OA
ATOM     61  H   LIG    1       23.074 -25.289   7.240  0.00  0.00    +0.295 HD
ENDBRANCH  58  60
ENDBRANCH  26  58
BRANCH  27  62
ATOM     62  O   LIG    1       26.080 -26.426   9.226  0.00  0.00    -0.391 OA
ATOM     63  H   LIG    1       26.396 -27.342   9.057  0.00  0.00    +0.210 HD
ENDBRANCH  27  62
BRANCH  29  64
ATOM     64  O   LIG    1       26.760 -23.872   8.528  0.00  0.00    -0.341 OA
BRANCH  64  65
ATOM     65  C   LIG    1       27.019 -22.721   9.352  0.00  0.00    +0.281 C 
ATOM     66  C   LIG    1       28.300 -22.000   8.863  0.00  0.00    +0.189 C 
ATOM     67  C   LIG    1       28.056 -21.152   7.608  0.00  0.00    +0.116 C 
ATOM     68  C   LIG    1       26.862 -20.225   7.868  0.00  0.00    +0.162 C 
ATOM     69  C   LIG    1       25.621 -20.954   8.422  0.00  0.00    +0.148 C 
ATOM     70  C   LIG    1       24.775 -21.630   7.348  0.00  0.00    +0.040 C 
ATOM     71  O   LIG    1       25.899 -21.858   9.500  0.00  0.00    -0.343 OA
BRANCH  67  72
ATOM     72  N   LIG    1       27.944 -21.966   6.380  0.00  0.00    -0.323 NA
ATOM     73  H   LIG    1       26.995 -21.803   6.024  0.00  0.00    +0.119 HD
ATOM     74  H   LIG    1       28.517 -21.528   5.652  0.00  0.00    +0.119 HD
ENDBRANCH  67  72
BRANCH  66  75
ATOM     75  O   LIG    1       29.374 -22.920   8.598  0.00  0.00    -0.385 OA
ATOM     76  H   LIG    1       29.353 -23.545   9.356  0.00  0.00    +0.210 HD
ENDBRANCH  66  75
BRANCH  68  77
ATOM     77  O   LIG    1       27.270 -19.243   8.846  0.00  0.00    -0.388 OA
ATOM     78  H   LIG    1       27.735 -19.721   9.555  0.00  0.00    +0.210 HD
ENDBRANCH  68  77
ENDBRANCH  64  65
ENDBRANCH  29  64
TORSDOF 15
ENDMDL
