MODEL 1
REMARK VINA RESULT:      -6.0      0.000      0.000
REMARK  Name = *****
REMARK                            x       y       z     vdW  Elec       q    Type
REMARK                         _______ _______ _______ _____ _____    ______ ____
ROOT
ATOM      1  C   LIG    1       22.443 -18.040   4.404  0.00  0.00    +0.120 A 
ATOM      2  C   LIG    1       23.695 -18.073   3.790  0.00  0.00    +0.046 A 
ATOM      3  C   LIG    1       24.431 -16.893   3.640  0.00  0.00    +0.007 A 
ATOM      4  C   LIG    1       23.956 -15.681   4.163  0.00  0.00    -0.046 A 
ATOM      5  C   LIG    1       22.715 -15.663   4.803  0.00  0.00    +0.007 A 
ATOM      6  C   LIG    1       21.978 -16.834   4.933  0.00  0.00    +0.046 A 
ENDROOT
BRANCH   1   7
ATOM      7  O   LIG    1       21.709 -19.203   4.429  0.00  0.00    -0.492 OA
BRANCH   7   8
ATOM      8  C   LIG    1       22.521 -20.391   4.351  0.00  0.00    +0.235 C 
BRANCH   8   9
ATOM      9  C   LIG    1       23.028 -20.827   5.717  0.00  0.00    +0.096 C 
BRANCH   9  13
ATOM     10  C   LIG    1       27.243 -20.617   6.165  0.00  0.00    -0.029 A 
ATOM     11  C   LIG    1       26.557 -19.996   5.128  0.00  0.00    +0.114 A 
ATOM     12  N   LIG    1       25.220 -20.075   4.951  0.00  0.00    -0.260 NA
ATOM     13  C   LIG    1       24.523 -20.829   5.835  0.00  0.00    +0.044 A 
ATOM     14  C   LIG    1       25.125 -21.497   6.894  0.00  0.00    +0.024 A 
ATOM     15  C   LIG    1       26.499 -21.384   7.062  0.00  0.00    +0.007 A 
BRANCH  10  17
ATOM     16  C   LIG    1       29.192 -19.073   5.869  0.00  0.00    +0.009 C 
ATOM     17  C   LIG    1       28.723 -20.439   6.347  0.00  0.00    +0.033 C 
ENDBRANCH  10  17
ENDBRANCH   9  13
ENDBRANCH   8   9
ENDBRANCH   7   8
ENDBRANCH   1   7
BRANCH   4  18
ATOM     18  C   LIG    1       24.828 -14.444   4.132  0.00  0.00    +0.059 C 
BRANCH  18  19
ATOM     19  C   LIG    1       25.967 -14.497   3.100  0.00  0.00    +0.146 C 
ATOM     20  C   LIG    1       27.131 -15.309   3.630  0.00  0.00    +0.234 C 
ATOM     21  O   LIG    1       27.101 -16.519   3.824  0.00  0.00    -0.274 OA
ATOM     22  N   LIG    1       28.200 -14.526   3.937  0.00  0.00    -0.246 N 
ATOM     23  H   LIG    1       29.010 -14.902   4.397  0.00  0.00    +0.158 HD
ATOM     24  C   LIG    1       28.157 -13.207   3.608  0.00  0.00    +0.279 C 
ATOM     25  O   LIG    1       29.015 -12.390   3.844  0.00  0.00    -0.263 OA
ATOM     26  S   LIG    1       26.687 -12.858   2.725  0.00  0.00    -0.054 S 
ENDBRANCH  18  19
ENDBRANCH   4  18
TORSDOF 7
ENDMDL
MODEL 2
REMARK VINA RESULT:      -4.5      1.830      2.521
REMARK  Name = *****
REMARK                            x       y       z     vdW  Elec       q    Type
REMARK                         _______ _______ _______ _____ _____    ______ ____
ROOT
ATOM      1  C   LIG    1       23.333 -17.256   4.259  0.00  0.00    +0.120 A 
ATOM      2  C   LIG    1       23.387 -15.867   4.382  0.00  0.00    +0.046 A 
ATOM      3  C   LIG    1       24.548 -15.179   4.014  0.00  0.00    +0.007 A 
ATOM      4  C   LIG    1       25.639 -15.860   3.454  0.00  0.00    -0.046 A 
ATOM      5  C   LIG    1       25.565 -17.247   3.308  0.00  0.00    +0.007 A 
ATOM      6  C   LIG    1       24.417 -17.930   3.692  0.00  0.00    +0.046 A 
ENDROOT
BRANCH   1   7
ATOM      7  O   LIG    1       22.216 -17.900   4.737  0.00  0.00    -0.492 OA
BRANCH   7   8
ATOM      8  C   LIG    1       21.716 -18.913   3.842  0.00  0.00    +0.235 C 
BRANCH   8   9
ATOM      9  C   LIG    1       21.719 -20.293   4.482  0.00  0.00    +0.096 C 
BRANCH   9  13
ATOM     10  C   LIG    1       25.487 -21.097   6.261  0.00  0.00    -0.029 A 
ATOM     11  C   LIG    1       25.223 -21.309   4.913  0.00  0.00    +0.114 A 
ATOM     12  N   LIG    1       24.022 -21.087   4.334  0.00  0.00    -0.260 NA
ATOM     13  C   LIG    1       23.020 -20.654   5.135  0.00  0.00    +0.044 A 
ATOM     14  C   LIG    1       23.188 -20.428   6.496  0.00  0.00    +0.024 A 
ATOM     15  C   LIG    1       24.437 -20.647   7.061  0.00  0.00    +0.007 A 
BRANCH  10  17
ATOM     16  C   LIG    1       27.866 -20.314   6.258  0.00  0.00    +0.009 C 
ATOM     17  C   LIG    1       26.860 -21.300   6.833  0.00  0.00    +0.033 C 
ENDBRANCH  10  17
ENDBRANCH   9  13
ENDBRANCH   8   9
ENDBRANCH   7   8
ENDBRANCH   1   7
BRANCH   4  18
ATOM     18  C   LIG    1       26.826 -15.088   2.919  0.00  0.00    +0.059 C 
BRANCH  18  19
ATOM     19  C   LIG    1       26.784 -13.578   3.209  0.00  0.00    +0.146 C 
ATOM     20  C   LIG    1       26.433 -13.322   4.660  0.00  0.00    +0.234 C 
ATOM     21  O   LIG    1       27.159 -13.597   5.608  0.00  0.00    -0.274 OA
ATOM     22  N   LIG    1       25.178 -12.814   4.797  0.00  0.00    -0.246 N 
ATOM     23  H   LIG    1       24.760 -12.689   5.703  0.00  0.00    +0.158 HD
ATOM     24  C   LIG    1       24.487 -12.472   3.677  0.00  0.00    +0.279 C 
ATOM     25  O   LIG    1       23.360 -12.039   3.645  0.00  0.00    -0.263 OA
ATOM     26  S   LIG    1       25.495 -12.691   2.263  0.00  0.00    -0.054 S 
ENDBRANCH  18  19
ENDBRANCH   4  18
TORSDOF 7
ENDMDL
MODEL 3
REMARK VINA RESULT:      -4.2      1.534      2.212
REMARK  Name = *****
REMARK                            x       y       z     vdW  Elec       q    Type
REMARK                         _______ _______ _______ _____ _____    ______ ____
ROOT
ATOM      1  C   LIG    1       23.224 -17.683   4.080  0.00  0.00    +0.120 A 
ATOM      2  C   LIG    1       22.326 -17.000   4.902  0.00  0.00    +0.046 A 
ATOM      3  C   LIG    1       22.490 -15.630   5.130  0.00  0.00    +0.007 A 
ATOM      4  C   LIG    1       23.510 -14.914   4.486  0.00  0.00    -0.046 A 
ATOM      5  C   LIG    1       24.387 -15.599   3.642  0.00  0.00    +0.007 A 
ATOM      6  C   LIG    1       24.232 -16.964   3.432  0.00  0.00    +0.046 A 
ENDROOT
BRANCH   1   7
ATOM      7  O   LIG    1       23.089 -19.047   3.975  0.00  0.00    -0.492 OA
BRANCH   7   8
ATOM      8  C   LIG    1       22.452 -19.646   5.120  0.00  0.00    +0.235 C 
BRANCH   8   9
ATOM      9  C   LIG    1       23.137 -20.936   5.545  0.00  0.00    +0.096 C 
BRANCH   9  13
ATOM     10  C   LIG    1       27.327 -20.716   6.182  0.00  0.00    -0.029 A 
ATOM     11  C   LIG    1       26.467 -21.411   7.024  0.00  0.00    +0.114 A 
ATOM     12  N   LIG    1       25.127 -21.469   6.854  0.00  0.00    -0.260 NA
ATOM     13  C   LIG    1       24.605 -20.782   5.810  0.00  0.00    +0.044 A 
ATOM     14  C   LIG    1       25.387 -20.049   4.925  0.00  0.00    +0.024 A 
ATOM     15  C   LIG    1       26.762 -20.021   5.112  0.00  0.00    +0.007 A 
BRANCH  10  17
ATOM     16  C   LIG    1       29.403 -19.341   6.453  0.00  0.00    +0.009 C 
ATOM     17  C   LIG    1       28.815 -20.743   6.384  0.00  0.00    +0.033 C 
ENDBRANCH  10  17
ENDBRANCH   9  13
ENDBRANCH   8   9
ENDBRANCH   7   8
ENDBRANCH   1   7
BRANCH   4  18
ATOM     18  C   LIG    1       23.584 -13.408   4.619  0.00  0.00    +0.059 C 
BRANCH  18  19
ATOM     19  C   LIG    1       24.977 -12.813   4.352  0.00  0.00    +0.146 C 
ATOM     20  C   LIG    1       25.326 -12.909   2.881  0.00  0.00    +0.234 C 
ATOM     21  O   LIG    1       24.764 -12.279   1.993  0.00  0.00    -0.274 OA
ATOM     22  N   LIG    1       26.294 -13.837   2.648  0.00  0.00    -0.246 N 
ATOM     23  H   LIG    1       26.559 -14.092   1.712  0.00  0.00    +0.158 HD
ATOM     24  C   LIG    1       26.905 -14.422   3.711  0.00  0.00    +0.279 C 
ATOM     25  O   LIG    1       27.756 -15.278   3.656  0.00  0.00    -0.263 OA
ATOM     26  S   LIG    1       26.326 -13.710   5.201  0.00  0.00    -0.054 S 
ENDBRANCH  18  19
ENDBRANCH   4  18
TORSDOF 7
ENDMDL
MODEL 4
REMARK VINA RESULT:      -3.8      2.066      4.439
REMARK  Name = *****
REMARK                            x       y       z     vdW  Elec       q    Type
REMARK                         _______ _______ _______ _____ _____    ______ ____
ROOT
ATOM      1  C   LIG    1       27.416 -18.311   4.430  0.00  0.00    +0.120 A 
ATOM      2  C   LIG    1       26.380 -17.920   3.581  0.00  0.00    +0.046 A 
ATOM      3  C   LIG    1       26.281 -16.587   3.169  0.00  0.00    +0.007 A 
ATOM      4  C   LIG    1       27.254 -15.647   3.542  0.00  0.00    -0.046 A 
ATOM      5  C   LIG    1       28.304 -16.054   4.368  0.00  0.00    +0.007 A 
ATOM      6  C   LIG    1       28.389 -17.375   4.791  0.00  0.00    +0.046 A 
ENDROOT
BRANCH   1   7
ATOM      7  O   LIG    1       27.409 -19.604   4.898  0.00  0.00    -0.492 OA
BRANCH   7   8
ATOM      8  C   LIG    1       27.616 -19.695   6.322  0.00  0.00    +0.235 C 
BRANCH   8   9
ATOM      9  C   LIG    1       26.702 -20.725   6.967  0.00  0.00    +0.096 C 
BRANCH   9  13
ATOM     10  C   LIG    1       22.881 -20.735   5.120  0.00  0.00    -0.029 A 
ATOM     11  C   LIG    1       23.082 -20.373   6.447  0.00  0.00    +0.114 A 
ATOM     12  N   LIG    1       24.286 -20.391   7.061  0.00  0.00    -0.260 NA
ATOM     13  C   LIG    1       25.346 -20.813   6.332  0.00  0.00    +0.044 A 
ATOM     14  C   LIG    1       25.238 -21.207   5.004  0.00  0.00    +0.024 A 
ATOM     15  C   LIG    1       23.992 -21.161   4.392  0.00  0.00    +0.007 A 
BRANCH  10  17
ATOM     16  C   LIG    1       21.230 -19.213   4.011  0.00  0.00    +0.009 C 
ATOM     17  C   LIG    1       21.530 -20.631   4.473  0.00  0.00    +0.033 C 
ENDBRANCH  10  17
ENDBRANCH   9  13
ENDBRANCH   8   9
ENDBRANCH   7   8
ENDBRANCH   1   7
BRANCH   4  18
ATOM     18  C   LIG    1       27.221 -14.248   2.965  0.00  0.00    +0.059 C 
BRANCH  18  19
ATOM     19  C   LIG    1       26.117 -13.348   3.544  0.00  0.00    +0.146 C 
ATOM     20  C   LIG    1       25.947 -13.598   5.029  0.00  0.00    +0.234 C 
ATOM     21  O   LIG    1       26.781 -13.311   5.880  0.00  0.00    -0.274 OA
ATOM     22  N   LIG    1       24.784 -14.248   5.305  0.00  0.00    -0.246 N 
ATOM     23  H   LIG    1       24.577 -14.578   6.232  0.00  0.00    +0.158 HD
ATOM     24  C   LIG    1       23.894 -14.448   4.298  0.00  0.00    +0.279 C 
ATOM     25  O   LIG    1       22.840 -15.031   4.389  0.00  0.00    -0.263 OA
ATOM     26  S   LIG    1       24.464 -13.676   2.834  0.00  0.00    -0.054 S 
ENDBRANCH  18  19
ENDBRANCH   4  18
TORSDOF 7
ENDMDL
MODEL 5
REMARK VINA RESULT:      -3.4      2.191      4.753
REMARK  Name = *****
REMARK                            x       y       z     vdW  Elec       q    Type
REMARK                         _______ _______ _______ _____ _____    ______ ____
ROOT
ATOM      1  C   LIG    1       28.102 -16.258   4.513  0.00  0.00    +0.120 A 
ATOM      2  C   LIG    1       27.054 -16.668   3.688  0.00  0.00    +0.046 A 
ATOM      3  C   LIG    1       26.232 -15.715   3.078  0.00  0.00    +0.007 A 
ATOM      4  C   LIG    1       26.489 -14.344   3.229  0.00  0.00    -0.046 A 
ATOM      5  C   LIG    1       27.558 -13.943   4.032  0.00  0.00    +0.007 A 
ATOM      6  C   LIG    1       28.362 -14.892   4.652  0.00  0.00    +0.046 A 
ENDROOT
BRANCH   1   7
ATOM      7  O   LIG    1       28.812 -17.228   5.179  0.00  0.00    -0.492 OA
BRANCH   7   8
ATOM      8  C   LIG    1       28.512 -18.564   4.729  0.00  0.00    +0.235 C 
BRANCH   8   9
ATOM      9  C   LIG    1       28.233 -19.509   5.887  0.00  0.00    +0.096 C 
BRANCH   9  13
ATOM     10  C   LIG    1       24.234 -20.930   5.937  0.00  0.00    -0.029 A 
ATOM     11  C   LIG    1       25.051 -20.921   7.062  0.00  0.00    +0.114 A 
ATOM     12  N   LIG    1       26.336 -20.500   7.060  0.00  0.00    -0.260 NA
ATOM     13  C   LIG    1       26.849 -20.087   5.877  0.00  0.00    +0.044 A 
ATOM     14  C   LIG    1       26.112 -20.075   4.699  0.00  0.00    +0.024 A 
ATOM     15  C   LIG    1       24.789 -20.496   4.733  0.00  0.00    +0.007 A 
BRANCH  10  17
ATOM     16  C   LIG    1       21.973 -20.768   4.873  0.00  0.00    +0.009 C 
ATOM     17  C   LIG    1       22.794 -21.347   6.015  0.00  0.00    +0.033 C 
ENDBRANCH  10  17
ENDBRANCH   9  13
ENDBRANCH   8   9
ENDBRANCH   7   8
ENDBRANCH   1   7
BRANCH   4  18
ATOM     18  C   LIG    1       25.689 -13.328   2.442  0.00  0.00    +0.059 C 
BRANCH  18  19
ATOM     19  C   LIG    1       24.304 -13.015   3.032  0.00  0.00    +0.146 C 
ATOM     20  C   LIG    1       24.390 -12.849   4.536  0.00  0.00    +0.234 C 
ATOM     21  O   LIG    1       24.963 -11.924   5.100  0.00  0.00    -0.274 OA
ATOM     22  N   LIG    1       23.815 -13.891   5.196  0.00  0.00    -0.246 N 
ATOM     23  H   LIG    1       23.883 -13.979   6.195  0.00  0.00    +0.158 HD
ATOM     24  C   LIG    1       23.138 -14.824   4.476  0.00  0.00    +0.279 C 
ATOM     25  O   LIG    1       22.604 -15.812   4.921  0.00  0.00    -0.263 OA
ATOM     26  S   LIG    1       23.088 -14.358   2.789  0.00  0.00    -0.054 S 
ENDBRANCH  18  19
ENDBRANCH   4  18
TORSDOF 7
ENDMDL
