MODEL 1
REMARK VINA RESULT:      -7.7      0.000      0.000
REMARK  Name = *****
REMARK                            x       y       z     vdW  Elec       q    Type
REMARK                         _______ _______ _______ _____ _____    ______ ____
ROOT
ATOM      1  N   LIG    1       26.164 -21.503   7.246  0.00  0.00    -0.226 N 
ATOM      2  C   LIG    1       27.412 -21.250   7.818  0.00  0.00    +0.275 C 
ATOM      3  O   LIG    1       27.806 -21.754   8.877  0.00  0.00    -0.266 OA
ATOM      4  C   LIG    1       28.294 -20.319   7.102  0.00  0.00    +0.050 A 
ATOM      5  C   LIG    1       27.880 -19.760   5.896  0.00  0.00    +0.011 A 
ATOM      6  C   LIG    1       28.740 -18.892   5.210  0.00  0.00    +0.010 A 
ATOM      7  C   LIG    1       29.996 -18.578   5.740  0.00  0.00    +0.001 A 
ATOM      8  C   LIG    1       30.400 -19.124   6.953  0.00  0.00    +0.001 A 
ATOM      9  C   LIG    1       26.535 -20.138   5.405  0.00  0.00    +0.074 C 
ATOM     10  C   LIG    1       29.552 -19.998   7.634  0.00  0.00    +0.014 A 
ATOM     11  N   LIG    1       25.755 -20.956   6.054  0.00  0.00    -0.172 NA
ENDROOT
BRANCH   1  16
ATOM     12  C   LIG    1       25.270 -25.606   4.655  0.00  0.00    +0.105 C 
ATOM     13  N   LIG    1       24.813 -24.899   5.860  0.00  0.00    -0.305 NA
ATOM     14  C   LIG    1       25.983 -24.522   6.662  0.00  0.00    +0.086 C 
ATOM     15  C   LIG    1       25.681 -23.867   8.008  0.00  0.00    +0.042 C 
ATOM     16  C   LIG    1       25.222 -22.404   7.958  0.00  0.00    +0.112 C 
ATOM     17  C   LIG    1       23.752 -22.211   7.555  0.00  0.00    +0.028 C 
ATOM     18  C   LIG    1       23.117 -23.221   6.604  0.00  0.00    +0.017 C 
ATOM     19  C   LIG    1       23.979 -23.756   5.465  0.00  0.00    +0.084 C 
ENDBRANCH   1  16
BRANCH   9  20
ATOM     20  C   LIG    1       26.009 -19.569   4.086  0.00  0.00    +0.092 C 
BRANCH  20  21
ATOM     21  C   LIG    1       24.505 -19.391   4.054  0.00  0.00    -0.041 A 
ATOM     22  C   LIG    1       23.950 -18.116   3.867  0.00  0.00    +0.005 A 
ATOM     23  C   LIG    1       22.563 -17.942   3.822  0.00  0.00    +0.020 A 
ATOM     24  C   LIG    1       21.720 -19.042   3.964  0.00  0.00    +0.041 A 
ATOM     25 CL   LIG    1       20.014 -18.834   3.873  0.00  0.00    -0.084 Cl
ATOM     26  C   LIG    1       22.253 -20.310   4.177  0.00  0.00    +0.020 A 
ATOM     27  C   LIG    1       23.640 -20.483   4.228  0.00  0.00    +0.005 A 
ENDBRANCH  20  21
ENDBRANCH   9  20
TORSDOF 3
ENDMDL
MODEL 2
REMARK VINA RESULT:      -7.5      6.834     10.232
REMARK  Name = *****
REMARK                            x       y       z     vdW  Elec       q    Type
REMARK                         _______ _______ _______ _____ _____    ______ ____
ROOT
ATOM      1  N   LIG    1       25.883 -31.178   8.974  0.00  0.00    -0.226 N 
ATOM      2  C   LIG    1       26.643 -32.213   8.428  0.00  0.00    +0.275 C 
ATOM      3  O   LIG    1       27.314 -33.009   9.097  0.00  0.00    -0.266 OA
ATOM      4  C   LIG    1       26.635 -32.344   6.966  0.00  0.00    +0.050 A 
ATOM      5  C   LIG    1       25.867 -31.474   6.195  0.00  0.00    +0.011 A 
ATOM      6  C   LIG    1       25.848 -31.624   4.803  0.00  0.00    +0.010 A 
ATOM      7  C   LIG    1       26.606 -32.628   4.190  0.00  0.00    +0.001 A 
ATOM      8  C   LIG    1       27.385 -33.485   4.960  0.00  0.00    +0.001 A 
ATOM      9  C   LIG    1       25.099 -30.436   6.918  0.00  0.00    +0.074 C 
ATOM     10  C   LIG    1       27.399 -33.347   6.348  0.00  0.00    +0.014 A 
ATOM     11  N   LIG    1       25.121 -30.320   8.216  0.00  0.00    -0.172 NA
ENDROOT
BRANCH   1  16
ATOM     12  C   LIG    1       21.462 -32.089  10.967  0.00  0.00    +0.105 C 
ATOM     13  N   LIG    1       22.784 -31.554  11.325  0.00  0.00    -0.305 NA
ATOM     14  C   LIG    1       23.817 -32.482  10.849  0.00  0.00    +0.086 C 
ATOM     15  C   LIG    1       25.253 -32.130  11.231  0.00  0.00    +0.042 C 
ATOM     16  C   LIG    1       25.897 -30.980  10.445  0.00  0.00    +0.112 C 
ATOM     17  C   LIG    1       25.453 -29.578  10.890  0.00  0.00    +0.028 C 
ATOM     18  C   LIG    1       24.043 -29.399  11.443  0.00  0.00    +0.017 C 
ATOM     19  C   LIG    1       22.921 -30.195  10.785  0.00  0.00    +0.084 C 
ENDBRANCH   1  16
BRANCH   9  20
ATOM     20  C   LIG    1       24.228 -29.444   6.144  0.00  0.00    +0.092 C 
BRANCH  20  21
ATOM     21  C   LIG    1       24.676 -28.003   6.278  0.00  0.00    -0.041 A 
ATOM     22  C   LIG    1       23.973 -26.983   5.620  0.00  0.00    +0.005 A 
ATOM     23  C   LIG    1       24.369 -25.648   5.748  0.00  0.00    +0.020 A 
ATOM     24  C   LIG    1       25.471 -25.323   6.534  0.00  0.00    +0.041 A 
ATOM     25 CL   LIG    1       25.938 -23.677   6.722  0.00  0.00    -0.084 Cl
ATOM     26  C   LIG    1       26.196 -26.325   7.173  0.00  0.00    +0.020 A 
ATOM     27  C   LIG    1       25.803 -27.661   7.041  0.00  0.00    +0.005 A 
ENDBRANCH  20  21
ENDBRANCH   9  20
TORSDOF 3
ENDMDL
MODEL 3
REMARK VINA RESULT:      -7.4      7.533     10.727
REMARK  Name = *****
REMARK                            x       y       z     vdW  Elec       q    Type
REMARK                         _______ _______ _______ _____ _____    ______ ____
ROOT
ATOM      1  N   LIG    1       24.709 -31.187   8.058  0.00  0.00    -0.226 N 
ATOM      2  C   LIG    1       24.237 -30.457   6.966  0.00  0.00    +0.275 C 
ATOM      3  O   LIG    1       23.440 -30.897   6.128  0.00  0.00    -0.266 OA
ATOM      4  C   LIG    1       24.736 -29.083   6.820  0.00  0.00    +0.050 A 
ATOM      5  C   LIG    1       25.614 -28.560   7.765  0.00  0.00    +0.011 A 
ATOM      6  C   LIG    1       26.064 -27.240   7.628  0.00  0.00    +0.010 A 
ATOM      7  C   LIG    1       25.648 -26.461   6.543  0.00  0.00    +0.001 A 
ATOM      8  C   LIG    1       24.784 -26.992   5.591  0.00  0.00    +0.001 A 
ATOM      9  C   LIG    1       26.012 -29.449   8.879  0.00  0.00    +0.074 C 
ATOM     10  C   LIG    1       24.324 -28.301   5.730  0.00  0.00    +0.014 A 
ATOM     11  N   LIG    1       25.573 -30.671   8.994  0.00  0.00    -0.172 NA
ENDROOT
BRANCH   1  16
ATOM     12  C   LIG    1       22.478 -31.893  12.402  0.00  0.00    +0.105 C 
ATOM     13  N   LIG    1       22.977 -32.647  11.243  0.00  0.00    -0.305 NA
ATOM     14  C   LIG    1       22.479 -32.015  10.015  0.00  0.00    +0.086 C 
ATOM     15  C   LIG    1       22.819 -32.736   8.712  0.00  0.00    +0.042 C 
ATOM     16  C   LIG    1       24.266 -32.594   8.221  0.00  0.00    +0.112 C 
ATOM     17  C   LIG    1       25.278 -33.485   8.957  0.00  0.00    +0.028 C 
ATOM     18  C   LIG    1       25.022 -33.824  10.422  0.00  0.00    +0.017 C 
ATOM     19  C   LIG    1       24.442 -32.728  11.310  0.00  0.00    +0.084 C 
ENDBRANCH   1  16
BRANCH   9  20
ATOM     20  C   LIG    1       26.970 -28.947   9.961  0.00  0.00    +0.092 C 
BRANCH  20  21
ATOM     21  C   LIG    1       26.272 -28.360  11.171  0.00  0.00    -0.041 A 
ATOM     22  C   LIG    1       26.806 -27.234  11.815  0.00  0.00    +0.005 A 
ATOM     23  C   LIG    1       26.163 -26.675  12.924  0.00  0.00    +0.020 A 
ATOM     24  C   LIG    1       24.981 -27.239  13.397  0.00  0.00    +0.041 A 
ATOM     25 CL   LIG    1       24.168 -26.531  14.739  0.00  0.00    -0.084 Cl
ATOM     26  C   LIG    1       24.451 -28.372  12.787  0.00  0.00    +0.020 A 
ATOM     27  C   LIG    1       25.097 -28.934  11.681  0.00  0.00    +0.005 A 
ENDBRANCH  20  21
ENDBRANCH   9  20
TORSDOF 3
ENDMDL
MODEL 4
REMARK VINA RESULT:      -7.3      1.568      2.066
REMARK  Name = *****
REMARK                            x       y       z     vdW  Elec       q    Type
REMARK                         _______ _______ _______ _____ _____    ______ ____
ROOT
ATOM      1  N   LIG    1       25.930 -21.349   7.083  0.00  0.00    -0.226 N 
ATOM      2  C   LIG    1       27.151 -21.001   7.661  0.00  0.00    +0.275 C 
ATOM      3  O   LIG    1       27.540 -21.410   8.763  0.00  0.00    -0.266 OA
ATOM      4  C   LIG    1       28.011 -20.086   6.899  0.00  0.00    +0.050 A 
ATOM      5  C   LIG    1       27.604 -19.634   5.646  0.00  0.00    +0.011 A 
ATOM      6  C   LIG    1       28.444 -18.782   4.917  0.00  0.00    +0.010 A 
ATOM      7  C   LIG    1       29.672 -18.375   5.450  0.00  0.00    +0.001 A 
ATOM      8  C   LIG    1       30.068 -18.815   6.708  0.00  0.00    +0.001 A 
ATOM      9  C   LIG    1       26.289 -20.105   5.155  0.00  0.00    +0.074 C 
ATOM     10  C   LIG    1       29.241 -19.673   7.433  0.00  0.00    +0.014 A 
ATOM     11  N   LIG    1       25.528 -20.907   5.845  0.00  0.00    -0.172 NA
ENDROOT
BRANCH   1  16
ATOM     12  C   LIG    1       25.259 -25.656   4.768  0.00  0.00    +0.105 C 
ATOM     13  N   LIG    1       24.747 -24.886   5.911  0.00  0.00    -0.305 NA
ATOM     14  C   LIG    1       25.882 -24.407   6.708  0.00  0.00    +0.086 C 
ATOM     15  C   LIG    1       25.526 -23.673   7.999  0.00  0.00    +0.042 C 
ATOM     16  C   LIG    1       25.010 -22.236   7.837  0.00  0.00    +0.112 C 
ATOM     17  C   LIG    1       23.542 -22.134   7.393  0.00  0.00    +0.028 C 
ATOM     18  C   LIG    1       22.969 -23.232   6.503  0.00  0.00    +0.017 C 
ATOM     19  C   LIG    1       23.877 -23.809   5.422  0.00  0.00    +0.084 C 
ENDBRANCH   1  16
BRANCH   9  20
ATOM     20  C   LIG    1       25.773 -19.656   3.787  0.00  0.00    +0.092 C 
BRANCH  20  21
ATOM     21  C   LIG    1       25.287 -18.221   3.758  0.00  0.00    -0.041 A 
ATOM     22  C   LIG    1       23.962 -17.919   4.110  0.00  0.00    +0.005 A 
ATOM     23  C   LIG    1       23.506 -16.597   4.101  0.00  0.00    +0.020 A 
ATOM     24  C   LIG    1       24.371 -15.567   3.740  0.00  0.00    +0.041 A 
ATOM     25 CL   LIG    1       23.822 -13.936   3.764  0.00  0.00    -0.084 Cl
ATOM     26  C   LIG    1       25.681 -15.851   3.363  0.00  0.00    +0.020 A 
ATOM     27  C   LIG    1       26.135 -17.174   3.367  0.00  0.00    +0.005 A 
ENDBRANCH  20  21
ENDBRANCH   9  20
TORSDOF 3
ENDMDL
MODEL 5
REMARK VINA RESULT:      -6.9      7.116     10.358
REMARK  Name = *****
REMARK                            x       y       z     vdW  Elec       q    Type
REMARK                         _______ _______ _______ _____ _____    ______ ____
ROOT
ATOM      1  N   LIG    1       24.615 -30.769   7.568  0.00  0.00    -0.226 N 
ATOM      2  C   LIG    1       24.156 -29.874   6.601  0.00  0.00    +0.275 C 
ATOM      3  O   LIG    1       23.329 -30.161   5.726  0.00  0.00    -0.266 OA
ATOM      4  C   LIG    1       24.707 -28.513   6.640  0.00  0.00    +0.050 A 
ATOM      5  C   LIG    1       25.620 -28.162   7.630  0.00  0.00    +0.011 A 
ATOM      6  C   LIG    1       26.120 -26.854   7.672  0.00  0.00    +0.010 A 
ATOM      7  C   LIG    1       25.718 -25.914   6.718  0.00  0.00    +0.001 A 
ATOM      8  C   LIG    1       24.819 -26.272   5.719  0.00  0.00    +0.001 A 
ATOM      9  C   LIG    1       25.999 -29.216   8.599  0.00  0.00    +0.074 C 
ATOM     10  C   LIG    1       24.309 -27.569   5.680  0.00  0.00    +0.014 A 
ATOM     11  N   LIG    1       25.514 -30.424   8.550  0.00  0.00    -0.172 NA
ENDROOT
BRANCH   1  16
ATOM     12  C   LIG    1       27.920 -33.825   5.544  0.00  0.00    +0.105 C 
ATOM     13  N   LIG    1       26.530 -33.807   6.024  0.00  0.00    -0.305 NA
ATOM     14  C   LIG    1       26.496 -33.200   7.360  0.00  0.00    +0.086 C 
ATOM     15  C   LIG    1       25.135 -33.197   8.053  0.00  0.00    +0.042 C 
ATOM     16  C   LIG    1       24.119 -32.168   7.540  0.00  0.00    +0.112 C 
ATOM     17  C   LIG    1       23.428 -32.558   6.224  0.00  0.00    +0.028 C 
ATOM     18  C   LIG    1       24.199 -33.405   5.217  0.00  0.00    +0.017 C 
ATOM     19  C   LIG    1       25.686 -33.113   5.042  0.00  0.00    +0.084 C 
ENDBRANCH   1  16
BRANCH   9  20
ATOM     20  C   LIG    1       26.994 -28.908   9.721  0.00  0.00    +0.092 C 
BRANCH  20  21
ATOM     21  C   LIG    1       26.343 -28.406  10.993  0.00  0.00    -0.041 A 
ATOM     22  C   LIG    1       26.937 -27.367  11.725  0.00  0.00    +0.005 A 
ATOM     23  C   LIG    1       26.338 -26.886  12.894  0.00  0.00    +0.020 A 
ATOM     24  C   LIG    1       25.141 -27.440  13.339  0.00  0.00    +0.041 A 
ATOM     25 CL   LIG    1       24.384 -26.824  14.757  0.00  0.00    -0.084 Cl
ATOM     26  C   LIG    1       24.551 -28.489  12.639  0.00  0.00    +0.020 A 
ATOM     27  C   LIG    1       25.153 -28.974  11.474  0.00  0.00    +0.005 A 
ENDBRANCH  20  21
ENDBRANCH   9  20
TORSDOF 3
ENDMDL
MODEL 6
REMARK VINA RESULT:      -6.6      2.696      6.251
REMARK  Name = *****
REMARK                            x       y       z     vdW  Elec       q    Type
REMARK                         _______ _______ _______ _____ _____    ______ ____
ROOT
ATOM      1  N   LIG    1       27.103 -19.728   5.367  0.00  0.00    -0.226 N 
ATOM      2  C   LIG    1       26.213 -19.108   4.490  0.00  0.00    +0.275 C 
ATOM      3  O   LIG    1       26.552 -18.325   3.593  0.00  0.00    -0.266 OA
ATOM      4  C   LIG    1       24.787 -19.414   4.664  0.00  0.00    +0.050 A 
ATOM      5  C   LIG    1       24.385 -20.310   5.650  0.00  0.00    +0.011 A 
ATOM      6  C   LIG    1       23.024 -20.613   5.791  0.00  0.00    +0.010 A 
ATOM      7  C   LIG    1       22.077 -20.008   4.958  0.00  0.00    +0.001 A 
ATOM      8  C   LIG    1       22.479 -19.100   3.985  0.00  0.00    +0.001 A 
ATOM      9  C   LIG    1       25.447 -20.904   6.494  0.00  0.00    +0.074 C 
ATOM     10  C   LIG    1       23.833 -18.804   3.834  0.00  0.00    +0.014 A 
ATOM     11  N   LIG    1       26.709 -20.617   6.339  0.00  0.00    -0.172 NA
ENDROOT
BRANCH   1  16
ATOM     12  C   LIG    1       29.642 -21.507   9.206  0.00  0.00    +0.105 C 
ATOM     13  N   LIG    1       29.815 -20.644   8.029  0.00  0.00    -0.305 NA
ATOM     14  C   LIG    1       29.274 -21.333   6.851  0.00  0.00    +0.086 C 
ATOM     15  C   LIG    1       29.467 -20.617   5.516  0.00  0.00    +0.042 C 
ATOM     16  C   LIG    1       28.550 -19.414   5.257  0.00  0.00    +0.112 C 
ATOM     17  C   LIG    1       28.966 -18.128   5.986  0.00  0.00    +0.028 C 
ATOM     18  C   LIG    1       29.669 -18.248   7.335  0.00  0.00    +0.017 C 
ATOM     19  C   LIG    1       29.190 -19.340   8.286  0.00  0.00    +0.084 C 
ENDBRANCH   1  16
BRANCH   9  20
ATOM     20  C   LIG    1       25.088 -21.901   7.597  0.00  0.00    +0.092 C 
BRANCH  20  21
ATOM     21  C   LIG    1       24.930 -23.325   7.104  0.00  0.00    -0.041 A 
ATOM     22  C   LIG    1       26.054 -24.156   6.979  0.00  0.00    +0.005 A 
ATOM     23  C   LIG    1       25.918 -25.476   6.539  0.00  0.00    +0.020 A 
ATOM     24  C   LIG    1       24.658 -25.976   6.221  0.00  0.00    +0.041 A 
ATOM     25 CL   LIG    1       24.486 -27.612   5.714  0.00  0.00    -0.084 Cl
ATOM     26  C   LIG    1       23.535 -25.158   6.314  0.00  0.00    +0.020 A 
ATOM     27  C   LIG    1       23.671 -23.836   6.749  0.00  0.00    +0.005 A 
ENDBRANCH  20  21
ENDBRANCH   9  20
TORSDOF 3
ENDMDL
MODEL 7
REMARK VINA RESULT:      -6.6      2.569      4.984
REMARK  Name = *****
REMARK                            x       y       z     vdW  Elec       q    Type
REMARK                         _______ _______ _______ _____ _____    ______ ____
ROOT
ATOM      1  N   LIG    1       26.141 -19.822   5.187  0.00  0.00    -0.226 N 
ATOM      2  C   LIG    1       27.440 -19.318   5.240  0.00  0.00    +0.275 C 
ATOM      3  O   LIG    1       27.877 -18.443   4.481  0.00  0.00    -0.266 OA
ATOM      4  C   LIG    1       28.330 -19.879   6.265  0.00  0.00    +0.050 A 
ATOM      5  C   LIG    1       27.852 -20.846   7.145  0.00  0.00    +0.011 A 
ATOM      6  C   LIG    1       28.703 -21.356   8.134  0.00  0.00    +0.010 A 
ATOM      7  C   LIG    1       30.025 -20.909   8.226  0.00  0.00    +0.001 A 
ATOM      8  C   LIG    1       30.506 -19.955   7.336  0.00  0.00    +0.001 A 
ATOM      9  C   LIG    1       26.443 -21.270   6.978  0.00  0.00    +0.074 C 
ATOM     10  C   LIG    1       29.659 -19.436   6.357  0.00  0.00    +0.014 A 
ATOM     11  N   LIG    1       25.665 -20.775   6.057  0.00  0.00    -0.172 NA
ENDROOT
BRANCH   1  16
ATOM     12  C   LIG    1       21.678 -21.900   5.538  0.00  0.00    +0.105 C 
ATOM     13  N   LIG    1       22.461 -21.026   4.651  0.00  0.00    -0.305 NA
ATOM     14  C   LIG    1       23.075 -19.962   5.454  0.00  0.00    +0.086 C 
ATOM     15  C   LIG    1       23.842 -18.899   4.672  0.00  0.00    +0.042 C 
ATOM     16  C   LIG    1       25.220 -19.317   4.139  0.00  0.00    +0.112 C 
ATOM     17  C   LIG    1       25.175 -20.189   2.875  0.00  0.00    +0.028 C 
ATOM     18  C   LIG    1       23.987 -21.125   2.675  0.00  0.00    +0.017 C 
ATOM     19  C   LIG    1       23.433 -21.835   3.906  0.00  0.00    +0.084 C 
ENDBRANCH   1  16
BRANCH   9  20
ATOM     20  C   LIG    1       25.842 -22.326   7.908  0.00  0.00    +0.092 C 
BRANCH  20  21
ATOM     21  C   LIG    1       25.438 -23.603   7.200  0.00  0.00    -0.041 A 
ATOM     22  C   LIG    1       26.418 -24.514   6.777  0.00  0.00    +0.005 A 
ATOM     23  C   LIG    1       26.056 -25.703   6.136  0.00  0.00    +0.020 A 
ATOM     24  C   LIG    1       24.712 -25.990   5.913  0.00  0.00    +0.041 A 
ATOM     25 CL   LIG    1       24.264 -27.470   5.157  0.00  0.00    -0.084 Cl
ATOM     26  C   LIG    1       23.728 -25.086   6.302  0.00  0.00    +0.020 A 
ATOM     27  C   LIG    1       24.090 -23.895   6.938  0.00  0.00    +0.005 A 
ENDBRANCH  20  21
ENDBRANCH   9  20
TORSDOF 3
ENDMDL
MODEL 8
REMARK VINA RESULT:      -6.6      2.781      6.108
REMARK  Name = *****
REMARK                            x       y       z     vdW  Elec       q    Type
REMARK                         _______ _______ _______ _____ _____    ______ ____
ROOT
ATOM      1  N   LIG    1       28.681 -19.133   6.611  0.00  0.00    -0.226 N 
ATOM      2  C   LIG    1       28.172 -18.761   5.367  0.00  0.00    +0.275 C 
ATOM      3  O   LIG    1       28.750 -18.004   4.577  0.00  0.00    -0.266 OA
ATOM      4  C   LIG    1       26.862 -19.312   4.993  0.00  0.00    +0.050 A 
ATOM      5  C   LIG    1       26.205 -20.185   5.856  0.00  0.00    +0.011 A 
ATOM      6  C   LIG    1       24.968 -20.724   5.478  0.00  0.00    +0.010 A 
ATOM      7  C   LIG    1       24.391 -20.374   4.252  0.00  0.00    +0.001 A 
ATOM      8  C   LIG    1       25.041 -19.488   3.400  0.00  0.00    +0.001 A 
ATOM      9  C   LIG    1       26.879 -20.501   7.136  0.00  0.00    +0.074 C 
ATOM     10  C   LIG    1       26.278 -18.959   3.767  0.00  0.00    +0.014 A 
ATOM     11  N   LIG    1       28.036 -19.998   7.463  0.00  0.00    -0.172 NA
ENDROOT
BRANCH   1  16
ATOM     12  C   LIG    1       31.014 -22.152   9.741  0.00  0.00    +0.105 C 
ATOM     13  N   LIG    1       31.112 -20.795   9.182  0.00  0.00    -0.305 NA
ATOM     14  C   LIG    1       30.968 -20.872   7.723  0.00  0.00    +0.086 C 
ATOM     15  C   LIG    1       31.150 -19.557   6.968  0.00  0.00    +0.042 C 
ATOM     16  C   LIG    1       29.981 -18.566   7.050  0.00  0.00    +0.112 C 
ATOM     17  C   LIG    1       29.905 -17.778   8.367  0.00  0.00    +0.028 C 
ATOM     18  C   LIG    1       30.403 -18.445   9.646  0.00  0.00    +0.017 C 
ATOM     19  C   LIG    1       30.114 -19.931   9.826  0.00  0.00    +0.084 C 
ENDBRANCH   1  16
BRANCH   9  20
ATOM     20  C   LIG    1       26.224 -21.456   8.136  0.00  0.00    +0.092 C 
BRANCH  20  21
ATOM     21  C   LIG    1       25.645 -22.703   7.499  0.00  0.00    -0.041 A 
ATOM     22  C   LIG    1       26.497 -23.702   7.004  0.00  0.00    +0.005 A 
ATOM     23  C   LIG    1       25.973 -24.863   6.427  0.00  0.00    +0.020 A 
ATOM     24  C   LIG    1       24.594 -25.035   6.341  0.00  0.00    +0.041 A 
ATOM     25 CL   LIG    1       23.949 -26.480   5.665  0.00  0.00    -0.084 Cl
ATOM     26  C   LIG    1       23.734 -24.042   6.804  0.00  0.00    +0.020 A 
ATOM     27  C   LIG    1       24.258 -22.879   7.375  0.00  0.00    +0.005 A 
ENDBRANCH  20  21
ENDBRANCH   9  20
TORSDOF 3
ENDMDL
MODEL 9
REMARK VINA RESULT:      -6.5      8.719     10.789
REMARK  Name = *****
REMARK                            x       y       z     vdW  Elec       q    Type
REMARK                         _______ _______ _______ _____ _____    ______ ____
ROOT
ATOM      1  N   LIG    1       22.621 -28.263  13.255  0.00  0.00    -0.226 N 
ATOM      2  C   LIG    1       22.969 -27.053  13.855  0.00  0.00    +0.275 C 
ATOM      3  O   LIG    1       22.201 -26.375  14.549  0.00  0.00    -0.266 OA
ATOM      4  C   LIG    1       24.338 -26.570  13.632  0.00  0.00    +0.050 A 
ATOM      5  C   LIG    1       25.227 -27.329  12.875  0.00  0.00    +0.011 A 
ATOM      6  C   LIG    1       26.537 -26.870  12.689  0.00  0.00    +0.010 A 
ATOM      7  C   LIG    1       26.945 -25.653  13.245  0.00  0.00    +0.001 A 
ATOM      8  C   LIG    1       26.051 -24.888  13.986  0.00  0.00    +0.001 A 
ATOM      9  C   LIG    1       24.718 -28.602  12.316  0.00  0.00    +0.074 C 
ATOM     10  C   LIG    1       24.748 -25.347  14.184  0.00  0.00    +0.014 A 
ATOM     11  N   LIG    1       23.497 -29.016  12.511  0.00  0.00    -0.172 NA
ENDROOT
BRANCH   1  16
ATOM     12  C   LIG    1       22.548 -32.704  15.404  0.00  0.00    +0.105 C 
ATOM     13  N   LIG    1       21.652 -31.746  14.740  0.00  0.00    -0.305 NA
ATOM     14  C   LIG    1       21.863 -30.416  15.324  0.00  0.00    +0.086 C 
ATOM     15  C   LIG    1       20.933 -29.314  14.819  0.00  0.00    +0.042 C 
ATOM     16  C   LIG    1       21.234 -28.768  13.417  0.00  0.00    +0.112 C 
ATOM     17  C   LIG    1       20.761 -29.670  12.267  0.00  0.00    +0.028 C 
ATOM     18  C   LIG    1       20.737 -31.180  12.485  0.00  0.00    +0.017 C 
ATOM     19  C   LIG    1       21.877 -31.794  13.290  0.00  0.00    +0.084 C 
ENDBRANCH   1  16
BRANCH   9  20
ATOM     20  C   LIG    1       25.633 -29.495  11.477  0.00  0.00    +0.092 C 
BRANCH  20  21
ATOM     21  C   LIG    1       25.474 -29.300   9.983  0.00  0.00    -0.041 A 
ATOM     22  C   LIG    1       24.490 -30.014   9.280  0.00  0.00    +0.005 A 
ATOM     23  C   LIG    1       24.324 -29.832   7.904  0.00  0.00    +0.020 A 
ATOM     24  C   LIG    1       25.140 -28.935   7.219  0.00  0.00    +0.041 A 
ATOM     25 CL   LIG    1       24.913 -28.683   5.532  0.00  0.00    -0.084 Cl
ATOM     26  C   LIG    1       26.138 -28.238   7.895  0.00  0.00    +0.020 A 
ATOM     27  C   LIG    1       26.307 -28.424   9.270  0.00  0.00    +0.005 A 
ENDBRANCH  20  21
ENDBRANCH   9  20
TORSDOF 3
ENDMDL
