MODEL 1
REMARK VINA RESULT:      -5.1      0.000      0.000
REMARK  Name = *****
REMARK                            x       y       z     vdW  Elec       q    Type
REMARK                         _______ _______ _______ _____ _____    ______ ____
ROOT
ATOM      1  C   LIG    1       27.391 -17.664   4.127  0.00  0.00    -0.000 C 
ENDROOT
BRANCH   1   2
ATOM      2  C   LIG    1       27.044 -16.277   3.546  0.00  0.00    -0.000 C 
BRANCH   2   3
ATOM      3  C   LIG    1       27.533 -15.041   4.350  0.00  0.00    -0.000 C 
BRANCH   3   4
ATOM      4  C   LIG    1       28.064 -13.840   3.536  0.00  0.00    -0.000 C 
BRANCH   4   5
ATOM      5  C   LIG    1       26.960 -12.804   3.209  0.00  0.00    -0.000 C 
BRANCH   5   6
ATOM      6  C   LIG    1       25.923 -13.228   2.141  0.00  0.00    -0.000 C 
BRANCH   6   7
ATOM      7  C   LIG    1       24.454 -13.040   2.547  0.00  0.00    -0.000 C 
BRANCH   7   8
ATOM      8  C   LIG    1       24.289 -12.604   4.018  0.00  0.00    -0.000 C 
BRANCH   8   9
ATOM      9  C   LIG    1       23.850 -13.776   4.911  0.00  0.00    -0.000 C 
BRANCH   9  11
ATOM     10  C   LIG    1       22.550 -15.946   4.846  0.00  0.00    +0.004 C 
ATOM     11  C   LIG    1       23.529 -15.041   4.107  0.00  0.00    -0.003 C 
ENDBRANCH   9  11
ENDBRANCH   8   9
ENDBRANCH   7   8
ENDBRANCH   6   7
ENDBRANCH   5   6
ENDBRANCH   4   5
ENDBRANCH   3   4
ENDBRANCH   2   3
ENDBRANCH   1   2
BRANCH   1  12
ATOM     12  C   LIG    1       28.686 -17.721   5.000  0.00  0.00    -0.000 C 
BRANCH  12  13
ATOM     13  C   LIG    1       29.022 -19.155   5.441  0.00  0.00    +0.000 C 
BRANCH  13  14
ATOM     14  C   LIG    1       28.643 -19.617   6.862  0.00  0.00    +0.006 C 
BRANCH  14  15
ATOM     15  C   LIG    1       27.287 -20.345   7.057  0.00  0.00    +0.072 C 
BRANCH  15  16
ATOM     16  C   LIG    1       26.679 -20.914   5.771  0.00  0.00    +0.356 C 
BRANCH  16  17
ATOM     17  N   LIG    1       25.251 -20.531   5.431  0.00  0.00    -0.204 N 
ATOM     18  C   LIG    1       24.307 -20.737   6.412  0.00  0.00    +0.309 A 
ATOM     19  C   LIG    1       22.990 -20.322   6.243  0.00  0.00    +0.070 A 
ATOM     20  C   LIG    1       22.600 -19.716   5.069  0.00  0.00    +0.012 A 
ATOM     21  C   LIG    1       23.551 -19.539   4.060  0.00  0.00    +0.070 A 
ATOM     22  C   LIG    1       24.872 -19.969   4.269  0.00  0.00    +0.309 A 
ENDBRANCH  16  17
ENDBRANCH  15  16
ENDBRANCH  14  15
ENDBRANCH  13  14
ENDBRANCH  12  13
ENDBRANCH   1  12
TORSDOF 15
ENDMDL
MODEL 2
REMARK VINA RESULT:      -4.8      2.037      7.601
REMARK  Name = *****
REMARK                            x       y       z     vdW  Elec       q    Type
REMARK                         _______ _______ _______ _____ _____    ______ ____
ROOT
ATOM      1  C   LIG    1       21.775 -19.306   4.137  0.00  0.00    -0.000 C 
ENDROOT
BRANCH   1   2
ATOM      2  C   LIG    1       21.487 -20.699   4.734  0.00  0.00    -0.000 C 
BRANCH   2   3
ATOM      3  C   LIG    1       22.706 -21.485   5.294  0.00  0.00    -0.000 C 
BRANCH   3   4
ATOM      4  C   LIG    1       23.012 -21.322   6.799  0.00  0.00    -0.000 C 
BRANCH   4   5
ATOM      5  C   LIG    1       24.361 -20.608   7.061  0.00  0.00    -0.000 C 
BRANCH   5   6
ATOM      6  C   LIG    1       25.625 -21.320   6.518  0.00  0.00    -0.000 C 
BRANCH   6   7
ATOM      7  C   LIG    1       26.897 -20.458   6.489  0.00  0.00    -0.000 C 
BRANCH   7   8
ATOM      8  C   LIG    1       27.000 -19.583   5.224  0.00  0.00    -0.000 C 
BRANCH   8   9
ATOM      9  C   LIG    1       26.014 -20.039   4.136  0.00  0.00    -0.000 C 
BRANCH   9  11
ATOM     10  C   LIG    1       26.124 -17.635   3.356  0.00  0.00    +0.004 C 
ATOM     11  C   LIG    1       25.245 -18.870   3.511  0.00  0.00    -0.003 C 
ENDBRANCH   9  11
ENDBRANCH   8   9
ENDBRANCH   7   8
ENDBRANCH   6   7
ENDBRANCH   5   6
ENDBRANCH   4   5
ENDBRANCH   3   4
ENDBRANCH   2   3
ENDBRANCH   1   2
BRANCH   1  12
ATOM     12  C   LIG    1       22.476 -18.294   5.102  0.00  0.00    -0.000 C 
BRANCH  12  13
ATOM     13  C   LIG    1       22.058 -16.843   4.817  0.00  0.00    +0.000 C 
BRANCH  13  14
ATOM     14  C   LIG    1       23.018 -15.918   4.044  0.00  0.00    +0.006 C 
BRANCH  14  15
ATOM     15  C   LIG    1       23.313 -14.513   4.633  0.00  0.00    +0.072 C 
BRANCH  15  16
ATOM     16  C   LIG    1       24.122 -13.594   3.712  0.00  0.00    +0.356 C 
BRANCH  16  17
ATOM     17  N   LIG    1       25.628 -13.562   3.885  0.00  0.00    -0.204 N 
ATOM     18  C   LIG    1       26.383 -13.624   2.734  0.00  0.00    +0.309 A 
ATOM     19  C   LIG    1       27.767 -13.494   2.773  0.00  0.00    +0.070 A 
ATOM     20  C   LIG    1       28.413 -13.326   3.978  0.00  0.00    +0.012 A 
ATOM     21  C   LIG    1       27.650 -13.300   5.147  0.00  0.00    +0.070 A 
ATOM     22  C   LIG    1       26.254 -13.431   5.069  0.00  0.00    +0.309 A 
ENDBRANCH  16  17
ENDBRANCH  15  16
ENDBRANCH  14  15
ENDBRANCH  13  14
ENDBRANCH  12  13
ENDBRANCH   1  12
TORSDOF 15
ENDMDL
MODEL 3
REMARK VINA RESULT:      -4.6      1.809      6.330
REMARK  Name = *****
REMARK                            x       y       z     vdW  Elec       q    Type
REMARK                         _______ _______ _______ _____ _____    ______ ____
ROOT
ATOM      1  C   LIG    1       28.766 -19.872   5.698  0.00  0.00    -0.000 C 
ENDROOT
BRANCH   1   2
ATOM      2  C   LIG    1       28.079 -20.099   7.061  0.00  0.00    -0.000 C 
BRANCH   2   3
ATOM      3  C   LIG    1       26.643 -20.694   7.029  0.00  0.00    -0.000 C 
BRANCH   3   4
ATOM      4  C   LIG    1       26.095 -21.127   5.650  0.00  0.00    -0.000 C 
BRANCH   4   5
ATOM      5  C   LIG    1       24.613 -21.571   5.709  0.00  0.00    -0.000 C 
BRANCH   5   6
ATOM      6  C   LIG    1       23.724 -21.137   4.518  0.00  0.00    -0.000 C 
BRANCH   6   7
ATOM      7  C   LIG    1       24.393 -20.178   3.521  0.00  0.00    -0.000 C 
BRANCH   7   8
ATOM      8  C   LIG    1       23.737 -18.782   3.498  0.00  0.00    -0.000 C 
BRANCH   8   9
ATOM      9  C   LIG    1       22.721 -18.614   4.639  0.00  0.00    -0.000 C 
BRANCH   9  11
ATOM     10  C   LIG    1       22.745 -16.086   4.737  0.00  0.00    +0.004 C 
ATOM     11  C   LIG    1       21.895 -17.330   4.508  0.00  0.00    -0.003 C 
ENDBRANCH   9  11
ENDBRANCH   8   9
ENDBRANCH   7   8
ENDBRANCH   6   7
ENDBRANCH   5   6
ENDBRANCH   4   5
ENDBRANCH   3   4
ENDBRANCH   2   3
ENDBRANCH   1   2
BRANCH   1  12
ATOM     12  C   LIG    1       28.677 -18.417   5.135  0.00  0.00    -0.000 C 
BRANCH  12  13
ATOM     13  C   LIG    1       27.387 -18.188   4.331  0.00  0.00    +0.000 C 
BRANCH  13  14
ATOM     14  C   LIG    1       27.092 -16.788   3.759  0.00  0.00    +0.006 C 
BRANCH  14  15
ATOM     15  C   LIG    1       27.865 -15.579   4.349  0.00  0.00    +0.072 C 
BRANCH  15  16
ATOM     16  C   LIG    1       27.733 -14.284   3.543  0.00  0.00    +0.356 C 
BRANCH  16  17
ATOM     17  N   LIG    1       26.377 -13.604   3.508  0.00  0.00    -0.204 N 
ATOM     18  C   LIG    1       25.870 -13.302   2.263  0.00  0.00    +0.309 A 
ATOM     19  C   LIG    1       24.590 -12.777   2.115  0.00  0.00    +0.070 A 
ATOM     20  C   LIG    1       23.813 -12.525   3.223  0.00  0.00    +0.012 A 
ATOM     21  C   LIG    1       24.341 -12.800   4.487  0.00  0.00    +0.070 A 
ATOM     22  C   LIG    1       25.636 -13.332   4.597  0.00  0.00    +0.309 A 
ENDBRANCH  16  17
ENDBRANCH  15  16
ENDBRANCH  14  15
ENDBRANCH  13  14
ENDBRANCH  12  13
ENDBRANCH   1  12
TORSDOF 15
ENDMDL
MODEL 4
REMARK VINA RESULT:      -4.4      0.905      4.623
REMARK  Name = *****
REMARK                            x       y       z     vdW  Elec       q    Type
REMARK                         _______ _______ _______ _____ _____    ______ ____
ROOT
ATOM      1  C   LIG    1       23.842 -14.248   5.077  0.00  0.00    -0.000 C 
ENDROOT
BRANCH   1   2
ATOM      2  C   LIG    1       23.973 -12.813   4.524  0.00  0.00    -0.000 C 
BRANCH   2   3
ATOM      3  C   LIG    1       23.846 -12.644   2.984  0.00  0.00    -0.000 C 
BRANCH   3   4
ATOM      4  C   LIG    1       25.150 -12.386   2.197  0.00  0.00    -0.000 C 
BRANCH   4   5
ATOM      5  C   LIG    1       26.156 -13.558   2.305  0.00  0.00    -0.000 C 
BRANCH   5   6
ATOM      6  C   LIG    1       27.142 -13.501   3.496  0.00  0.00    -0.000 C 
BRANCH   6   7
ATOM      7  C   LIG    1       27.612 -14.867   4.020  0.00  0.00    -0.000 C 
BRANCH   7   8
ATOM      8  C   LIG    1       26.830 -16.047   3.407  0.00  0.00    -0.000 C 
BRANCH   8   9
ATOM      9  C   LIG    1       27.242 -17.388   4.035  0.00  0.00    -0.000 C 
BRANCH   9  11
ATOM     10  C   LIG    1       28.920 -18.559   5.524  0.00  0.00    +0.004 C 
ATOM     11  C   LIG    1       28.650 -17.347   4.639  0.00  0.00    -0.003 C 
ENDBRANCH   9  11
ENDBRANCH   8   9
ENDBRANCH   7   8
ENDBRANCH   6   7
ENDBRANCH   5   6
ENDBRANCH   4   5
ENDBRANCH   3   4
ENDBRANCH   2   3
ENDBRANCH   1   2
BRANCH   1  12
ATOM     12  C   LIG    1       23.472 -15.342   4.024  0.00  0.00    -0.000 C 
BRANCH  12  13
ATOM     13  C   LIG    1       22.540 -16.415   4.611  0.00  0.00    +0.000 C 
BRANCH  13  14
ATOM     14  C   LIG    1       22.798 -17.899   4.287  0.00  0.00    +0.006 C 
BRANCH  14  15
ATOM     15  C   LIG    1       21.609 -18.890   4.401  0.00  0.00    +0.072 C 
BRANCH  15  16
ATOM     16  C   LIG    1       22.001 -20.309   4.824  0.00  0.00    +0.356 C 
BRANCH  16  17
ATOM     17  N   LIG    1       23.409 -20.532   5.342  0.00  0.00    -0.204 N 
ATOM     18  C   LIG    1       24.429 -20.425   4.423  0.00  0.00    +0.309 A 
ATOM     19  C   LIG    1       25.762 -20.504   4.813  0.00  0.00    +0.070 A 
ATOM     20  C   LIG    1       26.084 -20.720   6.135  0.00  0.00    +0.012 A 
ATOM     21  C   LIG    1       25.048 -20.865   7.060  0.00  0.00    +0.070 A 
ATOM     22  C   LIG    1       23.715 -20.775   6.630  0.00  0.00    +0.309 A 
ENDBRANCH  16  17
ENDBRANCH  15  16
ENDBRANCH  14  15
ENDBRANCH  13  14
ENDBRANCH  12  13
ENDBRANCH   1  12
TORSDOF 15
ENDMDL
MODEL 5
REMARK VINA RESULT:      -4.4      0.882      5.135
REMARK  Name = *****
REMARK                            x       y       z     vdW  Elec       q    Type
REMARK                         _______ _______ _______ _____ _____    ______ ____
ROOT
ATOM      1  C   LIG    1       24.313 -12.782   3.683  0.00  0.00    -0.000 C 
ENDROOT
BRANCH   1   2
ATOM      2  C   LIG    1       24.818 -13.155   2.273  0.00  0.00    -0.000 C 
BRANCH   2   3
ATOM      3  C   LIG    1       26.128 -13.988   2.198  0.00  0.00    -0.000 C 
BRANCH   3   4
ATOM      4  C   LIG    1       27.273 -13.580   3.151  0.00  0.00    -0.000 C 
BRANCH   4   5
ATOM      5  C   LIG    1       27.757 -14.752   4.041  0.00  0.00    -0.000 C 
BRANCH   5   6
ATOM      6  C   LIG    1       26.913 -16.048   3.977  0.00  0.00    -0.000 C 
BRANCH   6   7
ATOM      7  C   LIG    1       27.723 -17.354   3.954  0.00  0.00    -0.000 C 
BRANCH   7   8
ATOM      8  C   LIG    1       28.722 -17.462   5.125  0.00  0.00    -0.000 C 
BRANCH   8   9
ATOM      9  C   LIG    1       29.206 -18.907   5.325  0.00  0.00    -0.000 C 
BRANCH   9  11
ATOM     10  C   LIG    1       28.988 -20.893   6.878  0.00  0.00    +0.004 C 
ATOM     11  C   LIG    1       29.078 -19.374   6.779  0.00  0.00    -0.003 C 
ENDBRANCH   9  11
ENDBRANCH   8   9
ENDBRANCH   7   8
ENDBRANCH   6   7
ENDBRANCH   5   6
ENDBRANCH   4   5
ENDBRANCH   3   4
ENDBRANCH   2   3
ENDBRANCH   1   2
BRANCH   1  12
ATOM     12  C   LIG    1       24.155 -13.978   4.677  0.00  0.00    -0.000 C 
BRANCH  12  13
ATOM     13  C   LIG    1       23.359 -15.140   4.060  0.00  0.00    +0.000 C 
BRANCH  13  14
ATOM     14  C   LIG    1       22.426 -15.977   4.955  0.00  0.00    +0.006 C 
BRANCH  14  15
ATOM     15  C   LIG    1       21.975 -17.370   4.441  0.00  0.00    +0.072 C 
BRANCH  15  16
ATOM     16  C   LIG    1       23.114 -18.262   3.936  0.00  0.00    +0.356 C 
BRANCH  16  17
ATOM     17  N   LIG    1       23.570 -19.403   4.824  0.00  0.00    -0.204 N 
ATOM     18  C   LIG    1       24.886 -19.791   4.705  0.00  0.00    +0.309 A 
ATOM     19  C   LIG    1       25.433 -20.753   5.548  0.00  0.00    +0.070 A 
ATOM     20  C   LIG    1       24.651 -21.359   6.507  0.00  0.00    +0.012 A 
ATOM     21  C   LIG    1       23.307 -20.990   6.603  0.00  0.00    +0.070 A 
ATOM     22  C   LIG    1       22.791 -20.012   5.737  0.00  0.00    +0.309 A 
ENDBRANCH  16  17
ENDBRANCH  15  16
ENDBRANCH  14  15
ENDBRANCH  13  14
ENDBRANCH  12  13
ENDBRANCH   1  12
TORSDOF 15
ENDMDL
MODEL 6
REMARK VINA RESULT:      -4.3      1.260      4.798
REMARK  Name = *****
REMARK                            x       y       z     vdW  Elec       q    Type
REMARK                         _______ _______ _______ _____ _____    ______ ____
ROOT
ATOM      1  C   LIG    1       23.337 -20.369   4.125  0.00  0.00    -0.000 C 
ENDROOT
BRANCH   1   2
ATOM      2  C   LIG    1       22.751 -19.075   3.521  0.00  0.00    -0.000 C 
BRANCH   2   3
ATOM      3  C   LIG    1       23.285 -17.733   4.093  0.00  0.00    -0.000 C 
BRANCH   3   4
ATOM      4  C   LIG    1       22.234 -16.722   4.605  0.00  0.00    -0.000 C 
BRANCH   4   5
ATOM      5  C   LIG    1       22.796 -15.283   4.723  0.00  0.00    -0.000 C 
BRANCH   5   6
ATOM      6  C   LIG    1       24.138 -15.015   3.998  0.00  0.00    -0.000 C 
BRANCH   6   7
ATOM      7  C   LIG    1       24.285 -13.608   3.399  0.00  0.00    -0.000 C 
BRANCH   7   8
ATOM      8  C   LIG    1       25.728 -13.070   3.477  0.00  0.00    -0.000 C 
BRANCH   8   9
ATOM      9  C   LIG    1       26.760 -14.164   3.157  0.00  0.00    -0.000 C 
BRANCH   9  11
ATOM     10  C   LIG    1       27.958 -12.956   5.030  0.00  0.00    +0.004 C 
ATOM     11  C   LIG    1       28.095 -13.941   3.875  0.00  0.00    -0.003 C 
ENDBRANCH   9  11
ENDBRANCH   8   9
ENDBRANCH   7   8
ENDBRANCH   6   7
ENDBRANCH   5   6
ENDBRANCH   4   5
ENDBRANCH   3   4
ENDBRANCH   2   3
ENDBRANCH   1   2
BRANCH   1  12
ATOM     12  C   LIG    1       22.460 -21.054   5.223  0.00  0.00    -0.000 C 
BRANCH  12  13
ATOM     13  C   LIG    1       22.879 -20.634   6.641  0.00  0.00    +0.000 C 
BRANCH  13  14
ATOM     14  C   LIG    1       24.370 -20.666   7.029  0.00  0.00    +0.006 C 
BRANCH  14  15
ATOM     15  C   LIG    1       25.327 -21.548   6.183  0.00  0.00    +0.072 C 
BRANCH  15  16
ATOM     16  C   LIG    1       26.776 -21.569   6.678  0.00  0.00    +0.356 C 
BRANCH  16  17
ATOM     17  N   LIG    1       27.675 -20.409   6.293  0.00  0.00    -0.204 N 
ATOM     18  C   LIG    1       27.318 -19.699   5.168  0.00  0.00    +0.309 A 
ATOM     19  C   LIG    1       28.011 -18.553   4.789  0.00  0.00    +0.070 A 
ATOM     20  C   LIG    1       29.092 -18.123   5.526  0.00  0.00    +0.012 A 
ATOM     21  C   LIG    1       29.475 -18.864   6.646  0.00  0.00    +0.070 A 
ATOM     22  C   LIG    1       28.749 -20.014   7.000  0.00  0.00    +0.309 A 
ENDBRANCH  16  17
ENDBRANCH  15  16
ENDBRANCH  14  15
ENDBRANCH  13  14
ENDBRANCH  12  13
ENDBRANCH   1  12
TORSDOF 15
ENDMDL
MODEL 7
REMARK VINA RESULT:      -4.3      1.972      7.739
REMARK  Name = *****
REMARK                            x       y       z     vdW  Elec       q    Type
REMARK                         _______ _______ _______ _____ _____    ______ ____
ROOT
ATOM      1  C   LIG    1       23.149 -15.258   4.306  0.00  0.00    -0.000 C 
ENDROOT
BRANCH   1   2
ATOM      2  C   LIG    1       22.321 -16.319   5.061  0.00  0.00    -0.000 C 
BRANCH   2   3
ATOM      3  C   LIG    1       21.968 -17.616   4.279  0.00  0.00    -0.000 C 
BRANCH   3   4
ATOM      4  C   LIG    1       22.964 -18.792   4.387  0.00  0.00    -0.000 C 
BRANCH   4   5
ATOM      5  C   LIG    1       22.352 -20.031   5.086  0.00  0.00    -0.000 C 
BRANCH   5   6
ATOM      6  C   LIG    1       23.355 -21.116   5.548  0.00  0.00    -0.000 C 
BRANCH   6   7
ATOM      7  C   LIG    1       23.952 -20.900   6.947  0.00  0.00    -0.000 C 
BRANCH   7   8
ATOM      8  C   LIG    1       25.435 -21.315   7.039  0.00  0.00    -0.000 C 
BRANCH   8   9
ATOM      9  C   LIG    1       26.340 -20.367   6.236  0.00  0.00    -0.000 C 
BRANCH   9  11
ATOM     10  C   LIG    1       28.710 -19.495   6.090  0.00  0.00    +0.004 C 
ATOM     11  C   LIG    1       27.828 -20.699   6.394  0.00  0.00    -0.003 C 
ENDBRANCH   9  11
ENDBRANCH   8   9
ENDBRANCH   7   8
ENDBRANCH   6   7
ENDBRANCH   5   6
ENDBRANCH   4   5
ENDBRANCH   3   4
ENDBRANCH   2   3
ENDBRANCH   1   2
BRANCH   1  12
ATOM     12  C   LIG    1       23.859 -14.195   5.205  0.00  0.00    -0.000 C 
BRANCH  12  13
ATOM     13  C   LIG    1       23.917 -12.815   4.530  0.00  0.00    +0.000 C 
BRANCH  13  14
ATOM     14  C   LIG    1       23.620 -12.698   3.023  0.00  0.00    +0.006 C 
BRANCH  14  15
ATOM     15  C   LIG    1       24.515 -11.758   2.172  0.00  0.00    +0.072 C 
BRANCH  15  16
ATOM     16  C   LIG    1       25.888 -12.336   1.817  0.00  0.00    +0.356 C 
BRANCH  16  17
ATOM     17  N   LIG    1       26.499 -13.349   2.766  0.00  0.00    -0.204 N 
ATOM     18  C   LIG    1       26.213 -14.674   2.522  0.00  0.00    +0.309 A 
ATOM     19  C   LIG    1       26.808 -15.689   3.266  0.00  0.00    +0.070 A 
ATOM     20  C   LIG    1       27.681 -15.379   4.285  0.00  0.00    +0.012 A 
ATOM     21  C   LIG    1       27.942 -14.034   4.555  0.00  0.00    +0.070 A 
ATOM     22  C   LIG    1       27.325 -13.037   3.781  0.00  0.00    +0.309 A 
ENDBRANCH  16  17
ENDBRANCH  15  16
ENDBRANCH  14  15
ENDBRANCH  13  14
ENDBRANCH  12  13
ENDBRANCH   1  12
TORSDOF 15
ENDMDL
MODEL 8
REMARK VINA RESULT:      -4.2      2.014      7.823
REMARK  Name = *****
REMARK                            x       y       z     vdW  Elec       q    Type
REMARK                         _______ _______ _______ _____ _____    ______ ____
ROOT
ATOM      1  C   LIG    1       22.822 -16.871   4.045  0.00  0.00    -0.000 C 
ENDROOT
BRANCH   1   2
ATOM      2  C   LIG    1       22.306 -18.100   4.822  0.00  0.00    -0.000 C 
BRANCH   2   3
ATOM      3  C   LIG    1       22.727 -19.495   4.281  0.00  0.00    -0.000 C 
BRANCH   3   4
ATOM      4  C   LIG    1       21.990 -20.723   4.860  0.00  0.00    -0.000 C 
BRANCH   4   5
ATOM      5  C   LIG    1       22.841 -21.499   5.895  0.00  0.00    -0.000 C 
BRANCH   5   6
ATOM      6  C   LIG    1       23.617 -20.637   6.921  0.00  0.00    -0.000 C 
BRANCH   6   7
ATOM      7  C   LIG    1       25.109 -20.976   7.062  0.00  0.00    -0.000 C 
BRANCH   7   8
ATOM      8  C   LIG    1       25.830 -21.091   5.703  0.00  0.00    -0.000 C 
BRANCH   8   9
ATOM      9  C   LIG    1       26.987 -20.086   5.588  0.00  0.00    -0.000 C 
BRANCH   9  11
ATOM     10  C   LIG    1       29.023 -20.983   6.795  0.00  0.00    +0.004 C 
ATOM     11  C   LIG    1       27.840 -20.023   6.860  0.00  0.00    -0.003 C 
ENDBRANCH   9  11
ENDBRANCH   8   9
ENDBRANCH   7   8
ENDBRANCH   6   7
ENDBRANCH   5   6
ENDBRANCH   4   5
ENDBRANCH   3   4
ENDBRANCH   2   3
ENDBRANCH   1   2
BRANCH   1  12
ATOM     12  C   LIG    1       22.812 -15.523   4.836  0.00  0.00    -0.000 C 
BRANCH  12  13
ATOM     13  C   LIG    1       23.942 -14.582   4.388  0.00  0.00    +0.000 C 
BRANCH  13  14
ATOM     14  C   LIG    1       23.612 -13.117   4.040  0.00  0.00    +0.006 C 
BRANCH  14  15
ATOM     15  C   LIG    1       23.792 -12.657   2.569  0.00  0.00    +0.072 C 
BRANCH  15  16
ATOM     16  C   LIG    1       25.232 -12.733   2.050  0.00  0.00    +0.356 C 
BRANCH  16  17
ATOM     17  N   LIG    1       26.230 -13.554   2.843  0.00  0.00    -0.204 N 
ATOM     18  C   LIG    1       26.945 -12.888   3.813  0.00  0.00    +0.309 A 
ATOM     19  C   LIG    1       27.807 -13.569   4.668  0.00  0.00    +0.070 A 
ATOM     20  C   LIG    1       27.979 -14.929   4.538  0.00  0.00    +0.012 A 
ATOM     21  C   LIG    1       27.279 -15.598   3.531  0.00  0.00    +0.070 A 
ATOM     22  C   LIG    1       26.416 -14.878   2.689  0.00  0.00    +0.309 A 
ENDBRANCH  16  17
ENDBRANCH  15  16
ENDBRANCH  14  15
ENDBRANCH  13  14
ENDBRANCH  12  13
ENDBRANCH   1  12
TORSDOF 15
ENDMDL
MODEL 9
REMARK VINA RESULT:      -4.0      1.009      1.669
REMARK  Name = *****
REMARK                            x       y       z     vdW  Elec       q    Type
REMARK                         _______ _______ _______ _____ _____    ______ ____
ROOT
ATOM      1  C   LIG    1       26.863 -16.746   3.684  0.00  0.00    -0.000 C 
ENDROOT
BRANCH   1   2
ATOM      2  C   LIG    1       26.880 -15.237   3.361  0.00  0.00    -0.000 C 
BRANCH   2   3
ATOM      3  C   LIG    1       27.991 -14.390   4.043  0.00  0.00    -0.000 C 
BRANCH   3   4
ATOM      4  C   LIG    1       27.548 -13.084   4.740  0.00  0.00    -0.000 C 
BRANCH   4   5
ATOM      5  C   LIG    1       26.131 -13.186   5.356  0.00  0.00    -0.000 C 
BRANCH   5   6
ATOM      6  C   LIG    1       25.242 -11.924   5.231  0.00  0.00    -0.000 C 
BRANCH   6   7
ATOM      7  C   LIG    1       23.872 -12.154   4.573  0.00  0.00    -0.000 C 
BRANCH   7   8
ATOM      8  C   LIG    1       23.963 -12.962   3.262  0.00  0.00    -0.000 C 
BRANCH   8   9
ATOM      9  C   LIG    1       23.121 -14.246   3.327  0.00  0.00    -0.000 C 
BRANCH   9  11
ATOM     10  C   LIG    1       22.375 -16.153   4.814  0.00  0.00    +0.004 C 
ATOM     11  C   LIG    1       23.449 -15.102   4.556  0.00  0.00    -0.003 C 
ENDBRANCH   9  11
ENDBRANCH   8   9
ENDBRANCH   7   8
ENDBRANCH   6   7
ENDBRANCH   5   6
ENDBRANCH   4   5
ENDBRANCH   3   4
ENDBRANCH   2   3
ENDBRANCH   1   2
BRANCH   1  12
ATOM     12  C   LIG    1       28.101 -17.277   4.476  0.00  0.00    -0.000 C 
BRANCH  12  13
ATOM     13  C   LIG    1       27.999 -18.784   4.763  0.00  0.00    +0.000 C 
BRANCH  13  14
ATOM     14  C   LIG    1       28.674 -19.362   6.022  0.00  0.00    +0.006 C 
BRANCH  14  15
ATOM     15  C   LIG    1       27.782 -20.094   7.059  0.00  0.00    +0.072 C 
BRANCH  15  16
ATOM     16  C   LIG    1       26.858 -21.161   6.463  0.00  0.00    +0.356 C 
BRANCH  16  17
ATOM     17  N   LIG    1       25.423 -20.771   6.165  0.00  0.00    -0.204 N 
ATOM     18  C   LIG    1       25.143 -20.391   4.871  0.00  0.00    +0.309 A 
ATOM     19  C   LIG    1       23.840 -20.118   4.467  0.00  0.00    +0.070 A 
ATOM     20  C   LIG    1       22.803 -20.199   5.371  0.00  0.00    +0.012 A 
ATOM     21  C   LIG    1       23.094 -20.549   6.691  0.00  0.00    +0.070 A 
ATOM     22  C   LIG    1       24.421 -20.820   7.062  0.00  0.00    +0.309 A 
ENDBRANCH  16  17
ENDBRANCH  15  16
ENDBRANCH  14  15
ENDBRANCH  13  14
ENDBRANCH  12  13
ENDBRANCH   1  12
TORSDOF 15
ENDMDL
