MODEL 1
REMARK VINA RESULT:      -1.8      0.000      0.000
REMARK  Name = *****
REMARK                            x       y       z     vdW  Elec       q    Type
REMARK                         _______ _______ _______ _____ _____    ______ ____
ROOT
ATOM      1  C   LIG    1       18.120 -33.358  10.253  0.00  0.00    +0.210 C 
ATOM      2  C   LIG    1       17.572 -32.016  10.901  0.00  0.00    +0.126 C 
ATOM      3  C   LIG    1       18.066 -30.759  10.167  0.00  0.00    +0.048 C 
ATOM      4  C   LIG    1       17.898 -31.996  12.435  0.00  0.00    +0.159 C 
ATOM      5  C   LIG    1       17.879 -30.626  13.153  0.00  0.00    +0.084 C 
ATOM      6  C   LIG    1       16.488 -30.020  13.279  0.00  0.00    +0.018 C 
ATOM      7  C   LIG    1       18.522 -30.833  14.537  0.00  0.00    +0.142 C 
ATOM      8  O   LIG    1       18.062 -31.687  15.304  0.00  0.00    -0.297 OA
ATOM      9  C   LIG    1       19.757 -29.997  14.941  0.00  0.00    +0.055 C 
ATOM     10  C   LIG    1       19.315 -28.541  15.010  0.00  0.00    +0.015 C 
ATOM     11  C   LIG    1       20.980 -30.370  14.043  0.00  0.00    +0.048 C 
ATOM     12  C   LIG    1       22.286 -29.476  13.989  0.00  0.00    +0.093 C 
ATOM     13  C   LIG    1       21.930 -28.077  13.417  0.00  0.00    +0.044 C 
ATOM     14  C   LIG    1       23.498 -30.122  13.037  0.00  0.00    +0.158 C 
ATOM     15  C   LIG    1       22.939 -30.448  11.602  0.00  0.00    +0.047 C 
ATOM     16  C   LIG    1       23.329 -29.520  10.443  0.00  0.00    +0.013 C 
ATOM     17  C   LIG    1       22.710 -32.007  11.253  0.00  0.00    +0.140 C 
ATOM     18  C   LIG    1       21.437 -32.035  10.376  0.00  0.00    +0.124 C 
ATOM     19  C   LIG    1       21.613 -31.857   8.870  0.00  0.00    +0.022 C 
ATOM     20  C   LIG    1       20.483 -33.155  10.754  0.00  0.00    +0.313 C 
ATOM     21  O   LIG    1       20.461 -33.744  11.804  0.00  0.00    -0.250 OA
ATOM     22  O   LIG    1       19.484 -33.149   9.837  0.00  0.00    -0.458 OA
ENDROOT
BRANCH   1  24
ATOM     23  C   LIG    1       18.229 -33.678   7.672  0.00  0.00    +0.007 C 
ATOM     24  C   LIG    1       17.430 -33.825   8.953  0.00  0.00    +0.044 C 
ENDBRANCH   1  24
BRANCH   2  25
ATOM     25  O   LIG    1       16.141 -31.976  10.813  0.00  0.00    -0.383 OA
ATOM     26  H   LIG    1       15.872 -31.310  11.483  0.00  0.00    +0.210 HD
ENDBRANCH   2  25
BRANCH   4  27
ATOM     27  O   LIG    1       16.959 -32.908  13.048  0.00  0.00    -0.388 OA
ATOM     28  H   LIG    1       16.806 -32.582  13.963  0.00  0.00    +0.210 HD
ENDBRANCH   4  27
BRANCH  12  29
ATOM     29  O   LIG    1       22.714 -29.181  15.334  0.00  0.00    -0.374 OA
ATOM     30  C   LIG    1       23.896 -28.420  15.499  0.00  0.00    +0.195 C 
ENDBRANCH  12  29
BRANCH  14  31
ATOM     31  O   LIG    1       24.563 -29.145  13.016  0.00  0.00    -0.342 OA
BRANCH  31  32
ATOM     32  C   LIG    1       25.917 -29.593  12.864  0.00  0.00    +0.281 C 
ATOM     33  C   LIG    1       26.699 -28.561  11.984  0.00  0.00    +0.187 C 
ATOM     34  C   LIG    1       27.809 -27.799  12.762  0.00  0.00    +0.092 C 
ATOM     35  C   LIG    1       28.661 -28.783  13.595  0.00  0.00    +0.053 C 
ATOM     36  C   LIG    1       27.947 -30.100  13.907  0.00  0.00    +0.120 C 
ATOM     37  C   LIG    1       28.518 -30.743  15.161  0.00  0.00    +0.038 C 
ATOM     38  O   LIG    1       26.554 -29.856  14.113  0.00  0.00    -0.346 OA
BRANCH  34  39
ATOM     39  N   LIG    1       27.324 -26.587  13.469  0.00  0.00    -0.303 NA
ATOM     40  C   LIG    1       25.924 -26.257  13.211  0.00  0.00    +0.105 C 
ATOM     41  C   LIG    1       27.557 -26.634  14.913  0.00  0.00    +0.105 C 
ENDBRANCH  34  39
BRANCH  33  42
ATOM     42  O   LIG    1       27.347 -29.275  10.894  0.00  0.00    -0.385 OA
ATOM     43  H   LIG    1       27.806 -30.036  11.294  0.00  0.00    +0.210 HD
ENDBRANCH  33  42
ENDBRANCH  31  32
ENDBRANCH  14  31
BRANCH  17  44
ATOM     44  O   LIG    1       23.826 -32.696  10.633  0.00  0.00    -0.347 OA
BRANCH  44  45
ATOM     45  C   LIG    1       24.154 -32.283   9.258  0.00  0.00    +0.254 C 
ATOM     46  O   LIG    1       24.868 -33.291   8.543  0.00  0.00    -0.346 OA
ATOM     47  C   LIG    1       25.234 -32.963   7.183  0.00  0.00    +0.150 C 
ATOM     48  C   LIG    1       24.051 -33.009   6.221  0.00  0.00    +0.040 C 
ATOM     49  C   LIG    1       26.064 -31.664   7.092  0.00  0.00    +0.175 C 
ATOM     50  C   LIG    1       25.446 -30.483   7.887  0.00  0.00    +0.099 C 
ATOM     51  C   LIG    1       24.248 -29.823   7.175  0.00  0.00    +0.044 C 
ATOM     52  C   LIG    1       25.006 -30.995   9.288  0.00  0.00    +0.098 C 
BRANCH  49  53
ATOM     53  O   LIG    1       27.377 -31.967   7.611  0.00  0.00    -0.386 OA
ATOM     54  H   LIG    1       27.393 -32.919   7.818  0.00  0.00    +0.210 HD
ENDBRANCH  49  53
BRANCH  50  55
ATOM     55  O   LIG    1       26.419 -29.433   8.136  0.00  0.00    -0.374 OA
ATOM     56  C   LIG    1       26.186 -28.169   7.518  0.00  0.00    +0.195 C 
ENDBRANCH  50  55
ENDBRANCH  44  45
ENDBRANCH  17  44
TORSDOF 12
ENDMDL
