MODEL 1
REMARK VINA RESULT:       3.2      0.000      0.000
REMARK  Name = *****
REMARK                            x       y       z     vdW  Elec       q    Type
REMARK                         _______ _______ _______ _____ _____    ______ ____
ROOT
ATOM      1  C   LIG    1       22.051 -21.565   5.202  0.00  0.00    +0.073 C 
ATOM      2  C   LIG    1       22.770 -20.224   5.103  0.00  0.00    +0.166 C 
ATOM      3  C   LIG    1       22.382 -19.311   6.260  0.00  0.00    +0.073 C 
ATOM      4  O   LIG    1       24.180 -20.447   5.138  0.00  0.00    -0.341 OA
ATOM      5  C   LIG    1       24.634 -20.283   3.792  0.00  0.00    +0.187 C 
ATOM      6  C   LIG    1       23.635 -19.326   3.181  0.00  0.00    +0.179 C 
ATOM      7  C   LIG    1       24.034 -17.854   3.361  0.00  0.00    +0.197 C 
ATOM      8  O   LIG    1       24.941 -17.659   4.449  0.00  0.00    -0.342 OA
ATOM      9  C   LIG    1       26.197 -18.334   4.296  0.00  0.00    +0.228 C 
ATOM     10  O   LIG    1       26.782 -18.545   5.586  0.00  0.00    -0.313 OA
ATOM     11  C   LIG    1       27.361 -19.851   5.580  0.00  0.00    +0.169 C 
ATOM     12  C   LIG    1       26.901 -20.608   6.823  0.00  0.00    +0.074 C 
ATOM     13  C   LIG    1       28.885 -19.729   5.608  0.00  0.00    +0.074 C 
ATOM     14  O   LIG    1       26.995 -20.563   4.394  0.00  0.00    -0.338 OA
ATOM     15  C   LIG    1       26.057 -19.735   3.700  0.00  0.00    +0.215 C 
ATOM     16  O   LIG    1       22.407 -19.607   3.863  0.00  0.00    -0.341 OA
ENDROOT
BRANCH   9  17
ATOM     17  C   LIG    1       27.159 -17.458   3.459  0.00  0.00    +0.262 C 
BRANCH  17  18
ATOM     18  O   LIG    1       26.437 -16.387   2.854  0.00  0.00    -0.220 OA
BRANCH  18  19
ATOM     19  S   LIG    1       26.826 -14.886   3.305  0.00  0.00    +0.149 S 
ATOM     20  O   LIG    1       26.856 -14.061   2.121  0.00  0.00    -0.130 OA
ATOM     21  O   LIG    1       27.934 -14.966   4.224  0.00  0.00    -0.130 OA
BRANCH  19  22
ATOM     22  N   LIG    1       25.485 -14.430   4.188  0.00  0.00    -0.183 NA
ATOM     23  H   LIG    1       25.739 -13.752   4.904  0.00  0.00    +0.146 HD
ATOM     24  H   LIG    1       24.741 -14.110   3.568  0.00  0.00    +0.146 HD
ENDBRANCH  19  22
ENDBRANCH  18  19
ENDBRANCH  17  18
ENDBRANCH   9  17
TORSDOF 4
ENDMDL
MODEL 2
REMARK VINA RESULT:       4.1      2.216      3.214
REMARK  Name = *****
REMARK                            x       y       z     vdW  Elec       q    Type
REMARK                         _______ _______ _______ _____ _____    ______ ____
ROOT
ATOM      1  C   LIG    1       24.779 -21.572   4.710  0.00  0.00    +0.073 C 
ATOM      2  C   LIG    1       24.278 -20.176   5.064  0.00  0.00    +0.166 C 
ATOM      3  C   LIG    1       24.348 -19.936   6.567  0.00  0.00    +0.073 C 
ATOM      4  O   LIG    1       25.089 -19.206   4.399  0.00  0.00    -0.341 OA
ATOM      5  C   LIG    1       24.303 -18.724   3.306  0.00  0.00    +0.187 C 
ATOM      6  C   LIG    1       22.875 -18.907   3.770  0.00  0.00    +0.179 C 
ATOM      7  C   LIG    1       22.336 -17.687   4.530  0.00  0.00    +0.197 C 
ATOM      8  O   LIG    1       23.377 -16.872   5.073  0.00  0.00    -0.342 OA
ATOM      9  C   LIG    1       24.251 -16.299   4.090  0.00  0.00    +0.228 C 
ATOM     10  O   LIG    1       25.511 -15.993   4.697  0.00  0.00    -0.313 OA
ATOM     11  C   LIG    1       26.529 -16.345   3.759  0.00  0.00    +0.169 C 
ATOM     12  C   LIG    1       27.584 -17.197   4.460  0.00  0.00    +0.074 C 
ATOM     13  C   LIG    1       27.190 -15.074   3.227  0.00  0.00    +0.074 C 
ATOM     14  O   LIG    1       25.972 -17.053   2.646  0.00  0.00    -0.338 OA
ATOM     15  C   LIG    1       24.592 -17.266   2.955  0.00  0.00    +0.215 C 
ATOM     16  O   LIG    1       22.921 -20.058   4.622  0.00  0.00    -0.341 OA
ENDROOT
BRANCH   9  17
ATOM     17  C   LIG    1       23.635 -14.988   3.549  0.00  0.00    +0.262 C 
BRANCH  17  18
ATOM     18  O   LIG    1       23.656 -13.987   4.566  0.00  0.00    -0.220 OA
BRANCH  18  19
ATOM     19  S   LIG    1       24.404 -12.599   4.221  0.00  0.00    +0.149 S 
ATOM     20  O   LIG    1       23.548 -11.517   4.646  0.00  0.00    -0.130 OA
ATOM     21  O   LIG    1       24.930 -12.692   2.882  0.00  0.00    -0.130 OA
BRANCH  19  22
ATOM     22  N   LIG    1       25.705 -12.636   5.266  0.00  0.00    -0.183 NA
ATOM     23  H   LIG    1       25.928 -11.699   5.596  0.00  0.00    +0.146 HD
ATOM     24  H   LIG    1       25.541 -13.305   6.017  0.00  0.00    +0.146 HD
ENDBRANCH  19  22
ENDBRANCH  18  19
ENDBRANCH  17  18
ENDBRANCH   9  17
TORSDOF 4
ENDMDL
MODEL 3
REMARK VINA RESULT:       4.5      4.152      7.134
REMARK  Name = *****
REMARK                            x       y       z     vdW  Elec       q    Type
REMARK                         _______ _______ _______ _____ _____    ______ ____
ROOT
ATOM      1  C   LIG    1       28.845 -12.311   3.187  0.00  0.00    +0.073 C 
ATOM      2  C   LIG    1       27.895 -13.385   3.705  0.00  0.00    +0.166 C 
ATOM      3  C   LIG    1       28.405 -13.981   5.011  0.00  0.00    +0.073 C 
ATOM      4  O   LIG    1       26.610 -12.803   3.927  0.00  0.00    -0.341 OA
ATOM      5  C   LIG    1       25.791 -13.237   2.838  0.00  0.00    +0.187 C 
ATOM      6  C   LIG    1       26.400 -14.558   2.423  0.00  0.00    +0.179 C 
ATOM      7  C   LIG    1       25.804 -15.752   3.181  0.00  0.00    +0.197 C 
ATOM      8  O   LIG    1       25.200 -15.373   4.419  0.00  0.00    -0.342 OA
ATOM      9  C   LIG    1       24.092 -14.471   4.283  0.00  0.00    +0.228 C 
ATOM     10  O   LIG    1       23.921 -13.742   5.503  0.00  0.00    -0.313 OA
ATOM     11  C   LIG    1       23.609 -12.393   5.150  0.00  0.00    +0.169 C 
ATOM     12  C   LIG    1       24.513 -11.447   5.935  0.00  0.00    +0.074 C 
ATOM     13  C   LIG    1       22.152 -12.100   5.508  0.00  0.00    +0.074 C 
ATOM     14  O   LIG    1       23.768 -12.187   3.742  0.00  0.00    -0.338 OA
ATOM     15  C   LIG    1       24.320 -13.397   3.218  0.00  0.00    +0.215 C 
ATOM     16  O   LIG    1       27.795 -14.415   2.715  0.00  0.00    -0.341 OA
ENDROOT
BRANCH   9  17
ATOM     17  C   LIG    1       22.800 -15.275   4.006  0.00  0.00    +0.262 C 
BRANCH  17  18
ATOM     18  O   LIG    1       22.748 -16.418   4.859  0.00  0.00    -0.220 OA
BRANCH  18  19
ATOM     19  S   LIG    1       22.474 -17.848   4.161  0.00  0.00    +0.149 S 
ATOM     20  O   LIG    1       23.679 -18.243   3.473  0.00  0.00    -0.130 OA
ATOM     21  O   LIG    1       21.190 -17.791   3.509  0.00  0.00    -0.130 OA
BRANCH  19  22
ATOM     22  N   LIG    1       22.312 -18.854   5.483  0.00  0.00    -0.183 NA
ATOM     23  H   LIG    1       23.220 -19.056   5.895  0.00  0.00    +0.146 HD
ATOM     24  H   LIG    1       21.640 -18.468   6.146  0.00  0.00    +0.146 HD
ENDBRANCH  19  22
ENDBRANCH  18  19
ENDBRANCH  17  18
ENDBRANCH   9  17
TORSDOF 4
ENDMDL
MODEL 4
REMARK VINA RESULT:       4.5      3.712      6.989
REMARK  Name = *****
REMARK                            x       y       z     vdW  Elec       q    Type
REMARK                         _______ _______ _______ _____ _____    ______ ____
ROOT
ATOM      1  C   LIG    1       29.287 -11.447   3.985  0.00  0.00    +0.073 C 
ATOM      2  C   LIG    1       28.532 -12.691   4.440  0.00  0.00    +0.166 C 
ATOM      3  C   LIG    1       28.343 -12.692   5.952  0.00  0.00    +0.073 C 
ATOM      4  O   LIG    1       27.250 -12.715   3.810  0.00  0.00    -0.341 OA
ATOM      5  C   LIG    1       27.342 -13.697   2.775  0.00  0.00    +0.187 C 
ATOM      6  C   LIG    1       28.398 -14.658   3.273  0.00  0.00    +0.179 C 
ATOM      7  C   LIG    1       27.814 -15.795   4.123  0.00  0.00    +0.197 C 
ATOM      8  O   LIG    1       26.541 -15.466   4.682  0.00  0.00    -0.342 OA
ATOM      9  C   LIG    1       25.518 -15.212   3.708  0.00  0.00    +0.228 C 
ATOM     10  O   LIG    1       24.501 -14.389   4.292  0.00  0.00    -0.313 OA
ATOM     11  C   LIG    1       24.106 -13.439   3.301  0.00  0.00    +0.169 C 
ATOM     12  C   LIG    1       24.119 -12.041   3.914  0.00  0.00    +0.074 C 
ATOM     13  C   LIG    1       22.688 -13.761   2.828  0.00  0.00    +0.074 C 
ATOM     14  O   LIG    1       24.976 -13.497   2.165  0.00  0.00    -0.338 OA
ATOM     15  C   LIG    1       26.020 -14.413   2.505  0.00  0.00    +0.215 C 
ATOM     16  O   LIG    1       29.285 -13.845   4.050  0.00  0.00    -0.341 OA
ENDROOT
BRANCH   9  17
ATOM     17  C   LIG    1       24.875 -16.549   3.269  0.00  0.00    +0.262 C 
BRANCH  17  18
ATOM     18  O   LIG    1       25.858 -17.584   3.275  0.00  0.00    -0.220 OA
BRANCH  18  19
ATOM     19  S   LIG    1       25.349 -19.084   3.583  0.00  0.00    +0.149 S 
ATOM     20  O   LIG    1       25.385 -19.827   2.347  0.00  0.00    -0.130 OA
ATOM     21  O   LIG    1       24.166 -18.997   4.403  0.00  0.00    -0.130 OA
BRANCH  19  22
ATOM     22  N   LIG    1       26.575 -19.676   4.548  0.00  0.00    -0.183 NA
ATOM     23  H   LIG    1       26.276 -19.727   5.519  0.00  0.00    +0.146 HD
ATOM     24  H   LIG    1       26.922 -20.561   4.181  0.00  0.00    +0.146 HD
ENDBRANCH  19  22
ENDBRANCH  18  19
ENDBRANCH  17  18
ENDBRANCH   9  17
TORSDOF 4
ENDMDL
MODEL 5
REMARK VINA RESULT:       5.0      3.055      5.400
REMARK  Name = *****
REMARK                            x       y       z     vdW  Elec       q    Type
REMARK                         _______ _______ _______ _____ _____    ______ ____
ROOT
ATOM      1  C   LIG    1       24.163 -12.924   2.521  0.00  0.00    +0.073 C 
ATOM      2  C   LIG    1       25.090 -13.652   3.488  0.00  0.00    +0.166 C 
ATOM      3  C   LIG    1       24.690 -13.383   4.933  0.00  0.00    +0.073 C 
ATOM      4  O   LIG    1       25.015 -15.056   3.238  0.00  0.00    -0.341 OA
ATOM      5  C   LIG    1       26.216 -15.392   2.538  0.00  0.00    +0.187 C 
ATOM      6  C   LIG    1       27.216 -14.358   3.005  0.00  0.00    +0.179 C 
ATOM      7  C   LIG    1       27.979 -14.795   4.264  0.00  0.00    +0.197 C 
ATOM      8  O   LIG    1       27.283 -15.797   5.009  0.00  0.00    -0.342 OA
ATOM      9  C   LIG    1       27.078 -17.024   4.296  0.00  0.00    +0.228 C 
ATOM     10  O   LIG    1       25.957 -17.717   4.858  0.00  0.00    -0.313 OA
ATOM     11  C   LIG    1       25.215 -18.273   3.771  0.00  0.00    +0.169 C 
ATOM     12  C   LIG    1       23.741 -17.912   3.935  0.00  0.00    +0.074 C 
ATOM     13  C   LIG    1       25.359 -19.795   3.784  0.00  0.00    +0.074 C 
ATOM     14  O   LIG    1       25.712 -17.792   2.517  0.00  0.00    -0.338 OA
ATOM     15  C   LIG    1       26.704 -16.810   2.828  0.00  0.00    +0.215 C 
ATOM     16  O   LIG    1       26.428 -13.191   3.266  0.00  0.00    -0.341 OA
ENDROOT
BRANCH   9  17
ATOM     17  C   LIG    1       28.329 -17.922   4.435  0.00  0.00    +0.262 C 
BRANCH  17  18
ATOM     18  O   LIG    1       28.530 -18.265   5.805  0.00  0.00    -0.220 OA
BRANCH  18  19
ATOM     19  S   LIG    1       28.239 -19.793   6.235  0.00  0.00    +0.149 S 
ATOM     20  O   LIG    1       27.030 -19.808   7.024  0.00  0.00    -0.130 OA
ATOM     21  O   LIG    1       29.475 -20.374   6.697  0.00  0.00    -0.130 OA
BRANCH  19  22
ATOM     22  N   LIG    1       27.877 -20.504   4.769  0.00  0.00    -0.183 NA
ATOM     23  H   LIG    1       28.206 -19.927   3.998  0.00  0.00    +0.146 HD
ATOM     24  H   LIG    1       28.226 -21.461   4.741  0.00  0.00    +0.146 HD
ENDBRANCH  19  22
ENDBRANCH  18  19
ENDBRANCH  17  18
ENDBRANCH   9  17
TORSDOF 4
ENDMDL
MODEL 6
REMARK VINA RESULT:       5.8      3.701      5.921
REMARK  Name = *****
REMARK                            x       y       z     vdW  Elec       q    Type
REMARK                         _______ _______ _______ _____ _____    ______ ____
ROOT
ATOM      1  C   LIG    1       22.966 -11.447   4.203  0.00  0.00    +0.073 C 
ATOM      2  C   LIG    1       23.543 -12.682   3.519  0.00  0.00    +0.166 C 
ATOM      3  C   LIG    1       23.483 -12.543   2.003  0.00  0.00    +0.073 C 
ATOM      4  O   LIG    1       24.904 -12.844   3.918  0.00  0.00    -0.341 OA
ATOM      5  C   LIG    1       24.908 -13.917   4.864  0.00  0.00    +0.187 C 
ATOM      6  C   LIG    1       23.717 -14.760   4.468  0.00  0.00    +0.179 C 
ATOM      7  C   LIG    1       24.068 -15.839   3.434  0.00  0.00    +0.197 C 
ATOM      8  O   LIG    1       25.255 -15.531   2.700  0.00  0.00    -0.342 OA
ATOM      9  C   LIG    1       26.438 -15.437   3.506  0.00  0.00    +0.228 C 
ATOM     10  O   LIG    1       27.406 -14.621   2.834  0.00  0.00    -0.313 OA
ATOM     11  C   LIG    1       28.026 -13.799   3.824  0.00  0.00    +0.169 C 
ATOM     12  C   LIG    1       28.018 -12.349   3.347  0.00  0.00    +0.074 C 
ATOM     13  C   LIG    1       29.474 -14.249   4.021  0.00  0.00    +0.074 C 
ATOM     14  O   LIG    1       27.350 -13.918   5.080  0.00  0.00    -0.338 OA
ATOM     15  C   LIG    1       26.199 -14.732   4.842  0.00  0.00    +0.215 C 
ATOM     16  O   LIG    1       22.779 -13.823   3.927  0.00  0.00    -0.341 OA
ENDROOT
BRANCH   9  17
ATOM     17  C   LIG    1       27.042 -16.846   3.710  0.00  0.00    +0.262 C 
BRANCH  17  18
ATOM     18  O   LIG    1       26.236 -17.819   3.048  0.00  0.00    -0.220 OA
BRANCH  18  19
ATOM     19  S   LIG    1       25.769 -19.102   3.910  0.00  0.00    +0.149 S 
ATOM     20  O   LIG    1       24.360 -18.962   4.184  0.00  0.00    -0.130 OA
ATOM     21  O   LIG    1       26.744 -19.325   4.948  0.00  0.00    -0.130 OA
BRANCH  19  22
ATOM     22  N   LIG    1       25.934 -20.342   2.805  0.00  0.00    -0.183 NA
ATOM     23  H   LIG    1       26.877 -20.724   2.830  0.00  0.00    +0.146 HD
ATOM     24  H   LIG    1       25.206 -21.042   2.943  0.00  0.00    +0.146 HD
ENDBRANCH  19  22
ENDBRANCH  18  19
ENDBRANCH  17  18
ENDBRANCH   9  17
TORSDOF 4
ENDMDL
