MODEL 1
REMARK VINA RESULT:      26.5      0.000      0.000
REMARK  Name = *****
REMARK                            x       y       z     vdW  Elec       q    Type
REMARK                         _______ _______ _______ _____ _____    ______ ____
ROOT
ATOM      1  C   LIG    1       25.588 -27.525   9.807  0.00  0.00    +0.186 C 
ATOM      2  O   LIG    1       25.353 -26.756  11.033  0.00  0.00    -0.459 OA
ATOM      3  C   LIG    1       26.378 -26.722  11.931  0.00  0.00    +0.328 C 
ATOM      4  O   LIG    1       27.460 -27.325  11.763  0.00  0.00    -0.249 OA
ATOM      5  C   LIG    1       26.196 -25.780  13.159  0.00  0.00    +0.185 C 
ATOM      6  N   LIG    1       24.890 -25.090  13.289  0.00  0.00    -0.281 N 
ATOM      7  C   LIG    1       24.836 -23.777  13.945  0.00  0.00    +0.109 C 
ATOM      8  C   LIG    1       26.046 -22.879  13.770  0.00  0.00    +0.019 C 
ATOM      9  C   LIG    1       27.310 -23.656  14.077  0.00  0.00    +0.004 C 
ATOM     10  C   LIG    1       23.737 -25.836  13.642  0.00  0.00    +0.288 C 
ATOM     11  O   LIG    1       22.587 -25.354  13.614  0.00  0.00    -0.267 OA
ATOM     12  C   LIG    1       23.924 -27.144  14.389  0.00  0.00    +0.276 C 
ATOM     13  O   LIG    1       24.473 -27.100  15.499  0.00  0.00    -0.281 OA
ATOM     14  C   LIG    1       23.390 -28.408  13.726  0.00  0.00    +0.240 C 
ATOM     15  O   LIG    1       24.487 -29.337  13.809  0.00  0.00    -0.339 OA
ATOM     16  C   LIG    1       24.190 -30.633  14.309  0.00  0.00    +0.125 C 
ATOM     17  C   LIG    1       22.950 -31.225  13.652  0.00  0.00    +0.032 C 
ATOM     18  C   LIG    1       21.736 -30.301  13.795  0.00  0.00    +0.011 C 
ATOM     19  C   LIG    1       25.409 -31.582  14.293  0.00  0.00    +0.067 C 
ATOM     20  C   LIG    1       26.403 -31.693  13.087  0.00  0.00    +0.146 C 
ATOM     21  C   LIG    1       25.929 -32.525  11.883  0.00  0.00    -0.044 C 
ATOM     22  C   LIG    1       25.254 -33.825  12.285  0.00  0.00    +0.041 C 
ATOM     23  C   LIG    1       26.078 -32.342  10.550  0.00  0.00    +0.001 C 
ATOM     24  C   LIG    1       26.784 -31.355   9.748  0.00  0.00    +0.000 C 
ATOM     25  C   LIG    1       26.485 -31.237   8.440  0.00  0.00    -0.000 C 
ATOM     26  C   LIG    1       27.192 -30.481   7.424  0.00  0.00    -0.004 C 
ATOM     27  C   LIG    1       26.642 -30.287   6.212  0.00  0.00    -0.024 C 
ATOM     28  C   LIG    1       27.398 -29.994   4.947  0.00  0.00    +0.009 C 
ATOM     29  C   LIG    1       26.736 -28.894   4.104  0.00  0.00    +0.012 C 
ATOM     30  C   LIG    1       27.613 -31.277   4.089  0.00  0.00    +0.018 C 
ATOM     31  C   LIG    1       27.161 -32.647   4.659  0.00  0.00    +0.056 C 
ATOM     32  C   LIG    1       27.769 -33.824   3.868  0.00  0.00    +0.015 C 
ATOM     33  C   LIG    1       25.678 -32.956   4.982  0.00  0.00    +0.167 C 
ATOM     34  O   LIG    1       25.456 -33.824   5.842  0.00  0.00    -0.294 OA
ATOM     35  C   LIG    1       24.479 -32.401   4.180  0.00  0.00    +0.216 C 
ATOM     36  C   LIG    1       23.381 -31.650   5.067  0.00  0.00    +0.176 C 
ATOM     37  C   LIG    1       23.189 -31.800   6.605  0.00  0.00    -0.045 C 
ATOM     38  C   LIG    1       22.774 -33.175   7.052  0.00  0.00    +0.041 C 
ATOM     39  C   LIG    1       23.237 -30.729   7.446  0.00  0.00    -0.015 C 
ATOM     40  C   LIG    1       22.866 -30.439   8.908  0.00  0.00    +0.075 C 
ATOM     41  C   LIG    1       22.291 -31.604   9.709  0.00  0.00    +0.019 C 
ATOM     42  C   LIG    1       23.928 -29.655   9.781  0.00  0.00    +0.143 C 
ATOM     43  O   LIG    1       24.244 -30.026  10.907  0.00  0.00    -0.297 OA
ATOM     44  C   LIG    1       22.096 -28.924  14.385  0.00  0.00    +0.054 C 
ATOM     45  C   LIG    1       20.898 -27.982  14.226  0.00  0.00    +0.013 C 
ATOM     46  C   LIG    1       27.402 -24.804  13.091  0.00  0.00    +0.034 C 
ATOM     47  C   LIG    1       24.316 -28.259   9.322  0.00  0.00    +0.119 C 
ENDROOT
BRANCH   1  48
ATOM     48  C   LIG    1       26.147 -26.565   8.665  0.00  0.00    +0.027 C 
ATOM     49  C   LIG    1       26.551 -25.182   9.216  0.00  0.00    +0.011 C 
BRANCH  48  50
ATOM     50  C   LIG    1       25.252 -26.270   7.417  0.00  0.00    +0.010 C 
BRANCH  50  55
ATOM     51  C   LIG    1       25.147 -22.737   5.650  0.00  0.00    +0.147 C 
ATOM     52  C   LIG    1       24.140 -22.171   6.680  0.00  0.00    +0.147 C 
ATOM     53  C   LIG    1       22.972 -23.171   6.834  0.00  0.00    +0.034 C 
ATOM     54  C   LIG    1       23.385 -24.640   6.594  0.00  0.00    +0.006 C 
ATOM     55  C   LIG    1       24.805 -24.831   7.128  0.00  0.00    -0.008 C 
ATOM     56  C   LIG    1       25.755 -24.078   6.163  0.00  0.00    +0.037 C 
BRANCH  51  58
ATOM     57  C   LIG    1       23.685 -21.876   3.958  0.00  0.00    +0.194 C 
ATOM     58  O   LIG    1       24.518 -22.958   4.369  0.00  0.00    -0.377 OA
ENDBRANCH  51  58
BRANCH  52  59
ATOM     59  O   LIG    1       24.719 -21.963   7.982  0.00  0.00    -0.372 OA
BRANCH  59  60
ATOM     60  C   LIG    1       25.448 -20.747   8.121  0.00  0.00    +0.188 C 
BRANCH  60  61
ATOM     61  C   LIG    1       26.875 -20.953   7.618  0.00  0.00    +0.184 C 
BRANCH  61  62
ATOM     62  O   LIG    1       27.722 -21.339   8.695  0.00  0.00    -0.393 OA
ATOM     63  H   LIG    1       27.158 -21.395   9.487  0.00  0.00    +0.209 HD
ENDBRANCH  61  62
ENDBRANCH  60  61
ENDBRANCH  59  60
ENDBRANCH  52  59
ENDBRANCH  50  55
ENDBRANCH  48  50
ENDBRANCH   1  48
BRANCH  20  64
ATOM     64  O   LIG    1       26.987 -30.448  12.708  0.00  0.00    -0.375 OA
ATOM     65  C   LIG    1       27.936 -29.945  13.645  0.00  0.00    +0.194 C 
ENDBRANCH  20  64
BRANCH  35  66
ATOM     66  O   LIG    1       24.748 -31.537   3.065  0.00  0.00    -0.369 OA
ATOM     67  C   LIG    1       25.476 -32.116   1.993  0.00  0.00    +0.195 C 
ENDBRANCH  35  66
BRANCH  36  68
ATOM     68  O   LIG    1       23.455 -30.238   4.758  0.00  0.00    -0.385 OA
ATOM     69  H   LIG    1       23.754 -29.812   5.587  0.00  0.00    +0.210 HD
ENDBRANCH  36  68
BRANCH  14  70
ATOM     70  O   LIG    1       23.156 -28.223  12.354  0.00  0.00    -0.358 OA
ATOM     71  H   LIG    1       23.992 -27.781  12.085  0.00  0.00    +0.213 HD
ENDBRANCH  14  70
TORSDOF 12
ENDMDL
