MODEL 1
REMARK VINA RESULT:      20.1      0.000      0.000
REMARK  Name = *****
REMARK                            x       y       z     vdW  Elec       q    Type
REMARK                         _______ _______ _______ _____ _____    ______ ____
ROOT
ATOM      1  C   LIG    1       27.257 -31.330  10.128  0.00  0.00    +0.150 C 
ATOM      2  C   LIG    1       25.689 -31.163   9.902  0.00  0.00    +0.060 C 
ATOM      3  C   LIG    1       25.205 -29.781  10.350  0.00  0.00    +0.014 C 
ATOM      4  C   LIG    1       24.878 -31.754   8.616  0.00  0.00    +0.187 C 
ATOM      5  C   LIG    1       23.705 -30.880   7.946  0.00  0.00    +0.056 C 
ATOM      6  C   LIG    1       22.372 -31.638   8.205  0.00  0.00    +0.014 C 
ATOM      7  C   LIG    1       23.648 -30.364   6.451  0.00  0.00    +0.126 C 
ATOM      8  C   LIG    1       24.717 -29.433   5.794  0.00  0.00    +0.044 C 
ATOM      9  C   LIG    1       25.448 -30.048   4.584  0.00  0.00    +0.013 C 
ATOM     10  C   LIG    1       25.632 -28.696   6.793  0.00  0.00    +0.126 C 
ATOM     11  C   LIG    1       25.110 -27.288   7.243  0.00  0.00    +0.037 C 
ATOM     12  C   LIG    1       23.629 -27.211   7.616  0.00  0.00    +0.014 C 
ATOM     13  C   LIG    1       26.015 -26.738   8.337  0.00  0.00    -0.021 C 
ATOM     14  C   LIG    1       25.704 -26.337   9.585  0.00  0.00    -0.003 C 
ATOM     15  C   LIG    1       26.738 -25.814  10.439  0.00  0.00    +0.008 C 
ATOM     16  C   LIG    1       26.672 -25.261  11.659  0.00  0.00    +0.011 C 
ATOM     17  C   LIG    1       27.925 -24.583  12.166  0.00  0.00    +0.049 C 
ATOM     18  C   LIG    1       25.469 -25.073  12.541  0.00  0.00    +0.244 C 
ATOM     19  O   LIG    1       25.130 -23.950  12.912  0.00  0.00    -0.270 OA
ATOM     20  N   LIG    1       24.969 -26.200  13.182  0.00  0.00    -0.278 N 
ATOM     21  H   LIG    1       24.672 -26.932  12.544  0.00  0.00    +0.155 HD
ATOM     22  C   LIG    1       25.663 -26.734  14.336  0.00  0.00    +0.089 A 
ATOM     23  C   LIG    1       26.643 -25.984  14.992  0.00  0.00    +0.150 A 
ATOM     24  C   LIG    1       27.853 -26.606  15.345  0.00  0.00    +0.071 A 
ATOM     25  C   LIG    1       27.891 -28.028  15.360  0.00  0.00    +0.046 A 
ATOM     26  C   LIG    1       26.704 -28.753  15.169  0.00  0.00    +0.136 A 
ATOM     27  C   LIG    1       29.146 -28.625  15.316  0.00  0.00    +0.079 A 
ATOM     28  C   LIG    1       29.523 -29.983  14.926  0.00  0.00    +0.251 C 
ATOM     29  C   LIG    1       30.404 -29.777  13.713  0.00  0.00    +0.314 C 
ATOM     30  O   LIG    1       31.137 -28.562  14.149  0.00  0.00    -0.444 OA
ATOM     31  C   LIG    1       31.454 -30.835  13.434  0.00  0.00    +0.114 C 
ATOM     32  O   LIG    1       29.554 -29.499  12.571  0.00  0.00    -0.453 OA
ATOM     33  C   LIG    1       28.744 -30.511  12.089  0.00  0.00    +0.190 C 
ATOM     34  O   LIG    1       29.279 -31.005  15.500  0.00  0.00    -0.284 OA
ATOM     35  C   LIG    1       30.241 -27.868  14.943  0.00  0.00    +0.143 A 
ATOM     36  C   LIG    1       30.290 -26.495  15.118  0.00  0.00    +0.034 A 
ATOM     37  C   LIG    1       31.503 -25.689  14.766  0.00  0.00    +0.051 C 
ATOM     38  C   LIG    1       29.072 -25.876  15.407  0.00  0.00    +0.135 A 
ATOM     39  C   LIG    1       25.605 -28.107  14.602  0.00  0.00    +0.061 A 
ATOM     40  C   LIG    1       27.912 -30.287  11.056  0.00  0.00    +0.042 C 
ENDROOT
BRANCH   1  42
ATOM     41  C   LIG    1       27.800 -32.432   8.083  0.00  0.00    +0.194 C 
ATOM     42  O   LIG    1       27.984 -31.256   8.890  0.00  0.00    -0.375 OA
ENDBRANCH   1  42
BRANCH   7  43
ATOM     43  O   LIG    1       23.259 -31.373   5.525  0.00  0.00    -0.391 OA
ATOM     44  H   LIG    1       22.900 -32.135   6.012  0.00  0.00    +0.210 HD
ENDBRANCH   7  43
BRANCH  10  45
ATOM     45  O   LIG    1       26.930 -28.488   6.208  0.00  0.00    -0.391 OA
ATOM     46  H   LIG    1       26.860 -28.740   5.268  0.00  0.00    +0.210 HD
ENDBRANCH  10  45
BRANCH  26  47
ATOM     47  O   LIG    1       26.710 -30.091  15.440  0.00  0.00    -0.505 OA
ATOM     48  H   LIG    1       27.608 -30.468  15.338  0.00  0.00    +0.292 HD
ENDBRANCH  26  47
BRANCH  38  49
ATOM     49  O   LIG    1       29.083 -24.505  15.493  0.00  0.00    -0.506 OA
ATOM     50  H   LIG    1       28.152 -24.201  15.453  0.00  0.00    +0.292 HD
ENDBRANCH  38  49
BRANCH  23  51
ATOM     51  O   LIG    1       26.551 -24.617  15.089  0.00  0.00    -0.504 OA
ATOM     52  H   LIG    1       25.625 -24.335  14.903  0.00  0.00    +0.292 HD
ENDBRANCH  23  51
BRANCH  39  53
ATOM     53  C   LIG    1       24.384 -28.842  14.260  0.00  0.00    +0.143 C 
ATOM     54  N   LIG    1       23.204 -28.321  14.395  0.00  0.00    -0.192 NA
BRANCH  54  55
ATOM     55  N   LIG    1       22.190 -29.120  13.943  0.00  0.00    -0.253 N 
ATOM     56  C   LIG    1       20.877 -28.930  14.609  0.00  0.00    +0.141 C 
ATOM     57  C   LIG    1       19.753 -29.776  14.004  0.00  0.00    +0.105 C 
ATOM     58  N   LIG    1       20.057 -31.209  14.124  0.00  0.00    -0.296 NA
ATOM     59  C   LIG    1       21.358 -31.476  13.474  0.00  0.00    +0.105 C 
ATOM     60  C   LIG    1       22.503 -30.572  13.986  0.00  0.00    +0.141 C 
BRANCH  58  61
ATOM     61  C   LIG    1       18.983 -32.052  13.584  0.00  0.00    +0.057 C 
ATOM     62  C   LIG    1       17.821 -31.254  12.977  0.00  0.00    +0.019 C 
ATOM     63  C   LIG    1       17.111 -32.284  12.118  0.00  0.00    +0.002 C 
ATOM     64  C   LIG    1       18.251 -33.027  11.443  0.00  0.00    +0.002 C 
ATOM     65  C   LIG    1       19.410 -32.999  12.440  0.00  0.00    +0.019 C 
ENDBRANCH  58  61
ENDBRANCH  54  55
ENDBRANCH  39  53
BRANCH   4  66
ATOM     66  O   LIG    1       25.606 -32.455   7.602  0.00  0.00    -0.461 OA
BRANCH  66  67
ATOM     67  C   LIG    1       24.847 -33.420   6.984  0.00  0.00    +0.304 C 
ATOM     68  O   LIG    1       23.751 -33.801   7.384  0.00  0.00    -0.251 OA
ATOM     69  C   LIG    1       25.405 -33.818   5.651  0.00  0.00    +0.136 C 
ENDBRANCH  66  67
ENDBRANCH   4  66
TORSDOF 11
ENDMDL
