MODEL 1
REMARK VINA RESULT:      -2.9      0.000      0.000
REMARK  Name = *****
REMARK                            x       y       z     vdW  Elec       q    Type
REMARK                         _______ _______ _______ _____ _____    ______ ____
ROOT
ATOM      1  C   LIG    1       25.017 -16.995   3.767  0.00  0.00    +0.110 A 
ATOM      2  S   LIG    1       23.349 -16.893   4.186  0.00  0.00    -0.067 S 
ATOM      3  C   LIG    1       23.222 -18.607   4.178  0.00  0.00    +0.043 A 
ATOM      4  C   LIG    1       24.465 -19.148   3.856  0.00  0.00    +0.079 A 
ATOM      5  C   LIG    1       24.600 -20.551   3.789  0.00  0.00    +0.032 A 
ATOM      6  C   LIG    1       23.495 -21.371   4.046  0.00  0.00    +0.047 A 
ATOM      7  C   LIG    1       22.272 -20.798   4.364  0.00  0.00    +0.118 A 
ATOM      8  C   LIG    1       22.104 -19.416   4.438  0.00  0.00    +0.062 A 
ATOM      9  N   LIG    1       25.470 -18.226   3.626  0.00  0.00    -0.239 NA
ENDROOT
BRANCH   1  14
ATOM     10  C   LIG    1       27.392 -13.415   3.171  0.00  0.00    +0.063 A 
ATOM     11  C   LIG    1       26.016 -13.465   2.902  0.00  0.00    +0.145 A 
ATOM     12  F   LIG    1       25.400 -12.369   2.428  0.00  0.00    -0.203 F 
ATOM     13  C   LIG    1       25.262 -14.623   3.088  0.00  0.00    +0.050 A 
ATOM     14  C   LIG    1       25.857 -15.792   3.583  0.00  0.00    +0.010 A 
ATOM     15  C   LIG    1       27.228 -15.741   3.887  0.00  0.00    +0.012 A 
ATOM     16  C   LIG    1       27.977 -14.569   3.695  0.00  0.00    +0.026 A 
BRANCH  10  18
ATOM     17  C   LIG    1       29.110 -11.856   3.993  0.00  0.00    +0.125 C 
ATOM     18  N   LIG    1       28.076 -12.197   3.034  0.00  0.00    -0.345 N 
ATOM     19  H   LIG    1       28.362 -12.057   2.064  0.00  0.00    +0.146 HD
ENDBRANCH  10  18
ENDBRANCH   1  14
BRANCH   7  20
ATOM     20  O   LIG    1       21.176 -21.572   4.619  0.00  0.00    -0.507 OA
ATOM     21  H   LIG    1       21.252 -21.940   5.515  0.00  0.00    +0.292 HD
ENDBRANCH   7  20
TORSDOF 3
ENDMDL
MODEL 2
REMARK VINA RESULT:      -2.0      1.055      1.522
REMARK  Name = *****
REMARK                            x       y       z     vdW  Elec       q    Type
REMARK                         _______ _______ _______ _____ _____    ______ ____
ROOT
ATOM      1  C   LIG    1       24.803 -16.823   3.764  0.00  0.00    +0.110 A 
ATOM      2  S   LIG    1       23.173 -16.801   4.319  0.00  0.00    -0.067 S 
ATOM      3  C   LIG    1       23.106 -18.517   4.255  0.00  0.00    +0.043 A 
ATOM      4  C   LIG    1       24.337 -18.998   3.813  0.00  0.00    +0.079 A 
ATOM      5  C   LIG    1       24.516 -20.391   3.680  0.00  0.00    +0.032 A 
ATOM      6  C   LIG    1       23.465 -21.261   3.993  0.00  0.00    +0.047 A 
ATOM      7  C   LIG    1       22.253 -20.748   4.431  0.00  0.00    +0.118 A 
ATOM      8  C   LIG    1       22.043 -19.377   4.571  0.00  0.00    +0.062 A 
ATOM      9  N   LIG    1       25.287 -18.030   3.540  0.00  0.00    -0.239 NA
ENDROOT
BRANCH   1  14
ATOM     10  C   LIG    1       27.179 -13.234   3.228  0.00  0.00    +0.063 A 
ATOM     11  C   LIG    1       27.717 -14.433   3.719  0.00  0.00    +0.145 A 
ATOM     12  F   LIG    1       29.018 -14.479   4.053  0.00  0.00    -0.203 F 
ATOM     13  C   LIG    1       26.944 -15.579   3.896  0.00  0.00    +0.050 A 
ATOM     14  C   LIG    1       25.583 -15.582   3.561  0.00  0.00    +0.010 A 
ATOM     15  C   LIG    1       25.043 -14.396   3.037  0.00  0.00    +0.012 A 
ATOM     16  C   LIG    1       25.832 -13.247   2.863  0.00  0.00    +0.026 A 
BRANCH  10  18
ATOM     17  C   LIG    1       29.052 -11.826   3.981  0.00  0.00    +0.125 C 
ATOM     18  N   LIG    1       28.028 -12.140   3.002  0.00  0.00    -0.345 N 
ATOM     19  H   LIG    1       28.376 -12.151   2.042  0.00  0.00    +0.146 HD
ENDBRANCH  10  18
ENDBRANCH   1  14
BRANCH   7  20
ATOM     20  O   LIG    1       21.210 -21.572   4.742  0.00  0.00    -0.507 OA
ATOM     21  H   LIG    1       21.097 -21.585   5.707  0.00  0.00    +0.292 HD
ENDBRANCH   7  20
TORSDOF 3
ENDMDL
MODEL 3
REMARK VINA RESULT:      -1.7      3.851      7.561
REMARK  Name = *****
REMARK                            x       y       z     vdW  Elec       q    Type
REMARK                         _______ _______ _______ _____ _____    ______ ____
ROOT
ATOM      1  C   LIG    1       25.723 -16.650   3.654  0.00  0.00    +0.110 A 
ATOM      2  S   LIG    1       27.392 -16.483   4.047  0.00  0.00    -0.067 S 
ATOM      3  C   LIG    1       27.350 -14.823   3.606  0.00  0.00    +0.043 A 
ATOM      4  C   LIG    1       26.060 -14.501   3.188  0.00  0.00    +0.079 A 
ATOM      5  C   LIG    1       25.788 -13.181   2.774  0.00  0.00    +0.032 A 
ATOM      6  C   LIG    1       26.807 -12.220   2.791  0.00  0.00    +0.047 A 
ATOM      7  C   LIG    1       28.079 -12.575   3.215  0.00  0.00    +0.118 A 
ATOM      8  C   LIG    1       28.382 -13.871   3.629  0.00  0.00    +0.062 A 
ATOM      9  N   LIG    1       25.151 -15.543   3.220  0.00  0.00    -0.239 NA
ENDROOT
BRANCH   1  14
ATOM     10  C   LIG    1       23.523 -20.360   4.115  0.00  0.00    +0.063 A 
ATOM     11  C   LIG    1       22.912 -19.101   4.204  0.00  0.00    +0.145 A 
ATOM     12  F   LIG    1       21.594 -19.027   4.456  0.00  0.00    -0.203 F 
ATOM     13  C   LIG    1       23.629 -17.913   4.064  0.00  0.00    +0.050 A 
ATOM     14  C   LIG    1       25.005 -17.936   3.798  0.00  0.00    +0.010 A 
ATOM     15  C   LIG    1       25.619 -19.192   3.673  0.00  0.00    +0.012 A 
ATOM     16  C   LIG    1       24.887 -20.383   3.818  0.00  0.00    +0.026 A 
BRANCH  10  18
ATOM     17  C   LIG    1       21.652 -21.572   5.158  0.00  0.00    +0.125 C 
ATOM     18  N   LIG    1       22.731 -21.516   4.190  0.00  0.00    -0.345 N 
ATOM     19  H   LIG    1       22.452 -21.818   3.256  0.00  0.00    +0.146 HD
ENDBRANCH  10  18
ENDBRANCH   1  14
BRANCH   7  20
ATOM     20  O   LIG    1       29.093 -11.661   3.242  0.00  0.00    -0.507 OA
ATOM     21  H   LIG    1       29.336 -11.488   4.167  0.00  0.00    +0.292 HD
ENDBRANCH   7  20
TORSDOF 3
ENDMDL
MODEL 4
REMARK VINA RESULT:      -1.6      3.975      7.717
REMARK  Name = *****
REMARK                            x       y       z     vdW  Elec       q    Type
REMARK                         _______ _______ _______ _____ _____    ______ ____
ROOT
ATOM      1  C   LIG    1       25.519 -16.637   3.719  0.00  0.00    +0.110 A 
ATOM      2  S   LIG    1       27.219 -16.588   3.996  0.00  0.00    -0.067 S 
ATOM      3  C   LIG    1       27.253 -14.913   3.617  0.00  0.00    +0.043 A 
ATOM      4  C   LIG    1       25.960 -14.497   3.303  0.00  0.00    +0.079 A 
ATOM      5  C   LIG    1       25.746 -13.147   2.955  0.00  0.00    +0.032 A 
ATOM      6  C   LIG    1       26.823 -12.253   2.932  0.00  0.00    +0.047 A 
ATOM      7  C   LIG    1       28.096 -12.701   3.251  0.00  0.00    +0.118 A 
ATOM      8  C   LIG    1       28.343 -14.029   3.598  0.00  0.00    +0.062 A 
ATOM      9  N   LIG    1       24.991 -15.481   3.365  0.00  0.00    -0.239 NA
ENDROOT
BRANCH   1  14
ATOM     10  C   LIG    1       23.310 -20.345   4.148  0.00  0.00    +0.063 A 
ATOM     11  C   LIG    1       24.712 -20.293   4.152  0.00  0.00    +0.145 A 
ATOM     12  F   LIG    1       25.410 -21.434   4.280  0.00  0.00    -0.203 F 
ATOM     13  C   LIG    1       25.414 -19.097   4.004  0.00  0.00    +0.050 A 
ATOM     14  C   LIG    1       24.732 -17.880   3.870  0.00  0.00    +0.010 A 
ATOM     15  C   LIG    1       23.328 -17.919   3.898  0.00  0.00    +0.012 A 
ATOM     16  C   LIG    1       22.632 -19.130   4.047  0.00  0.00    +0.026 A 
BRANCH  10  18
ATOM     17  C   LIG    1       21.322 -21.571   4.922  0.00  0.00    +0.125 C 
ATOM     18  N   LIG    1       22.666 -21.571   4.376  0.00  0.00    -0.345 N 
ATOM     19  H   LIG    1       22.775 -22.186   3.569  0.00  0.00    +0.146 HD
ENDBRANCH  10  18
ENDBRANCH   1  14
BRANCH   7  20
ATOM     20  O   LIG    1       29.166 -11.853   3.237  0.00  0.00    -0.507 OA
ATOM     21  H   LIG    1       29.361 -11.577   4.147  0.00  0.00    +0.292 HD
ENDBRANCH   7  20
TORSDOF 3
ENDMDL
