MODEL 1
REMARK VINA RESULT:      -7.3      0.000      0.000
REMARK  Name = *****
REMARK                            x       y       z     vdW  Elec       q    Type
REMARK                         _______ _______ _______ _____ _____    ______ ____
ROOT
ATOM      1  C   LIG    1       22.356 -21.985   4.761  0.00  0.00    +0.105 C 
ATOM      2  N   LIG    1       22.345 -21.428   6.106  0.00  0.00    -0.299 NA
ATOM      3  C   LIG    1       22.745 -22.363   7.169  0.00  0.00    +0.119 C 
ATOM      4  C   LIG    1       23.921 -23.292   6.890  0.00  0.00    -0.027 A 
ATOM      5  C   LIG    1       25.281 -22.972   7.127  0.00  0.00    -0.010 A 
ATOM      6  C   LIG    1       26.242 -23.997   6.932  0.00  0.00    +0.007 A 
ATOM      7  C   LIG    1       25.899 -25.257   6.442  0.00  0.00    +0.000 A 
ATOM      8  C   LIG    1       24.575 -25.546   6.161  0.00  0.00    +0.000 A 
ATOM      9  C   LIG    1       25.767 -21.639   7.714  0.00  0.00    +0.179 C 
ATOM     10  O   LIG    1       24.852 -20.546   7.633  0.00  0.00    -0.366 OA
ATOM     11  C   LIG    1       24.514 -20.124   6.314  0.00  0.00    +0.176 C 
ATOM     12  C   LIG    1       23.599 -24.579   6.394  0.00  0.00    +0.005 A 
ATOM     13  C   LIG    1       22.989 -20.111   6.192  0.00  0.00    +0.112 C 
ENDROOT
BRANCH   9  14
ATOM     14  C   LIG    1       27.158 -21.133   7.315  0.00  0.00    -0.015 A 
ATOM     15  C   LIG    1       27.385 -20.350   6.171  0.00  0.00    +0.006 A 
ATOM     16  C   LIG    1       28.666 -19.888   5.861  0.00  0.00    +0.000 A 
ATOM     17  C   LIG    1       29.739 -20.190   6.696  0.00  0.00    +0.000 A 
ATOM     18  C   LIG    1       29.531 -20.948   7.844  0.00  0.00    +0.000 A 
ATOM     19  C   LIG    1       28.251 -21.412   8.155  0.00  0.00    +0.006 A 
ENDBRANCH   9  14
TORSDOF 1
ENDMDL
MODEL 2
REMARK VINA RESULT:      -7.2      1.870      4.844
REMARK  Name = *****
REMARK                            x       y       z     vdW  Elec       q    Type
REMARK                         _______ _______ _______ _____ _____    ______ ____
ROOT
ATOM      1  C   LIG    1       26.308 -24.927   6.206  0.00  0.00    +0.105 C 
ATOM      2  N   LIG    1       25.321 -24.511   7.192  0.00  0.00    -0.299 NA
ATOM      3  C   LIG    1       25.730 -23.384   8.045  0.00  0.00    +0.119 C 
ATOM      4  C   LIG    1       26.475 -22.230   7.384  0.00  0.00    -0.027 A 
ATOM      5  C   LIG    1       25.856 -21.107   6.780  0.00  0.00    -0.010 A 
ATOM      6  C   LIG    1       26.695 -20.059   6.323  0.00  0.00    +0.007 A 
ATOM      7  C   LIG    1       28.087 -20.143   6.376  0.00  0.00    +0.000 A 
ATOM      8  C   LIG    1       28.686 -21.266   6.919  0.00  0.00    +0.000 A 
ATOM      9  C   LIG    1       24.337 -20.886   6.714  0.00  0.00    +0.179 C 
ATOM     10  O   LIG    1       23.526 -22.044   6.906  0.00  0.00    -0.366 OA
ATOM     11  C   LIG    1       23.667 -23.064   5.920  0.00  0.00    +0.176 C 
ATOM     12  C   LIG    1       27.889 -22.290   7.426  0.00  0.00    +0.005 A 
ATOM     13  C   LIG    1       23.968 -24.383   6.636  0.00  0.00    +0.112 C 
ENDROOT
BRANCH   9  14
ATOM     14  C   LIG    1       23.770 -20.089   5.535  0.00  0.00    -0.015 A 
ATOM     15  C   LIG    1       22.534 -19.421   5.591  0.00  0.00    +0.006 A 
ATOM     16  C   LIG    1       22.068 -18.682   4.501  0.00  0.00    +0.000 A 
ATOM     17  C   LIG    1       22.834 -18.589   3.342  0.00  0.00    +0.000 A 
ATOM     18  C   LIG    1       24.069 -19.227   3.273  0.00  0.00    +0.000 A 
ATOM     19  C   LIG    1       24.535 -19.966   4.362  0.00  0.00    +0.006 A 
ENDBRANCH   9  14
TORSDOF 1
ENDMDL
MODEL 3
REMARK VINA RESULT:      -7.1      5.751      8.519
REMARK  Name = *****
REMARK                            x       y       z     vdW  Elec       q    Type
REMARK                         _______ _______ _______ _____ _____    ______ ____
ROOT
ATOM      1  C   LIG    1       27.237 -32.749   6.848  0.00  0.00    +0.105 C 
ATOM      2  N   LIG    1       25.784 -32.680   6.786  0.00  0.00    -0.299 NA
ATOM      3  C   LIG    1       25.140 -32.074   7.962  0.00  0.00    +0.119 C 
ATOM      4  C   LIG    1       25.797 -30.841   8.572  0.00  0.00    -0.027 A 
ATOM      5  C   LIG    1       25.545 -29.505   8.169  0.00  0.00    -0.010 A 
ATOM      6  C   LIG    1       26.143 -28.465   8.925  0.00  0.00    +0.007 A 
ATOM      7  C   LIG    1       27.020 -28.721   9.979  0.00  0.00    +0.000 A 
ATOM      8  C   LIG    1       27.303 -30.028  10.334  0.00  0.00    +0.000 A 
ATOM      9  C   LIG    1       24.561 -29.107   7.059  0.00  0.00    +0.179 C 
ATOM     10  O   LIG    1       24.200 -30.137   6.140  0.00  0.00    -0.366 OA
ATOM     11  C   LIG    1       25.266 -30.654   5.347  0.00  0.00    +0.176 C 
ATOM     12  C   LIG    1       26.690 -31.072   9.646  0.00  0.00    +0.005 A 
ATOM     13  C   LIG    1       25.284 -32.176   5.501  0.00  0.00    +0.112 C 
ENDROOT
BRANCH   9  14
ATOM     14  C   LIG    1       24.841 -27.827   6.264  0.00  0.00    -0.015 A 
ATOM     15  C   LIG    1       25.815 -27.756   5.253  0.00  0.00    +0.006 A 
ATOM     16  C   LIG    1       26.018 -26.575   4.535  0.00  0.00    +0.000 A 
ATOM     17  C   LIG    1       25.243 -25.451   4.806  0.00  0.00    +0.000 A 
ATOM     18  C   LIG    1       24.261 -25.506   5.790  0.00  0.00    +0.000 A 
ATOM     19  C   LIG    1       24.058 -26.686   6.510  0.00  0.00    +0.006 A 
ENDBRANCH   9  14
TORSDOF 1
ENDMDL
MODEL 4
REMARK VINA RESULT:      -7.0      1.956      5.203
REMARK  Name = *****
REMARK                            x       y       z     vdW  Elec       q    Type
REMARK                         _______ _______ _______ _____ _____    ______ ____
ROOT
ATOM      1  C   LIG    1       28.018 -19.987   6.237  0.00  0.00    +0.105 C 
ATOM      2  N   LIG    1       27.179 -20.261   7.395  0.00  0.00    -0.299 NA
ATOM      3  C   LIG    1       25.732 -20.172   7.149  0.00  0.00    +0.119 C 
ATOM      4  C   LIG    1       25.198 -20.750   5.844  0.00  0.00    -0.027 A 
ATOM      5  C   LIG    1       24.803 -22.099   5.656  0.00  0.00    -0.010 A 
ATOM      6  C   LIG    1       24.209 -22.444   4.416  0.00  0.00    +0.007 A 
ATOM      7  C   LIG    1       24.084 -21.529   3.369  0.00  0.00    +0.000 A 
ATOM      8  C   LIG    1       24.519 -20.227   3.541  0.00  0.00    +0.000 A 
ATOM      9  C   LIG    1       24.848 -23.175   6.751  0.00  0.00    +0.179 C 
ATOM     10  O   LIG    1       25.693 -22.899   7.868  0.00  0.00    -0.366 OA
ATOM     11  C   LIG    1       27.084 -22.792   7.574  0.00  0.00    +0.176 C 
ATOM     12  C   LIG    1       25.058 -19.842   4.766  0.00  0.00    +0.005 A 
ATOM     13  C   LIG    1       27.591 -21.462   8.135  0.00  0.00    +0.112 C 
ENDROOT
BRANCH   9  14
ATOM     14  C   LIG    1       25.064 -24.632   6.330  0.00  0.00    -0.015 A 
ATOM     15  C   LIG    1       26.341 -25.189   6.141  0.00  0.00    +0.006 A 
ATOM     16  C   LIG    1       26.492 -26.531   5.783  0.00  0.00    +0.000 A 
ATOM     17  C   LIG    1       25.371 -27.341   5.621  0.00  0.00    +0.000 A 
ATOM     18  C   LIG    1       24.099 -26.813   5.822  0.00  0.00    +0.000 A 
ATOM     19  C   LIG    1       23.947 -25.472   6.179  0.00  0.00    +0.006 A 
ENDBRANCH   9  14
TORSDOF 1
ENDMDL
MODEL 5
REMARK VINA RESULT:      -6.9      1.894      3.733
REMARK  Name = *****
REMARK                            x       y       z     vdW  Elec       q    Type
REMARK                         _______ _______ _______ _____ _____    ______ ____
ROOT
ATOM      1  C   LIG    1       23.053 -21.343   7.326  0.00  0.00    +0.105 C 
ATOM      2  N   LIG    1       24.005 -22.404   7.034  0.00  0.00    -0.299 NA
ATOM      3  C   LIG    1       24.533 -22.406   5.660  0.00  0.00    +0.119 C 
ATOM      4  C   LIG    1       24.889 -21.062   5.037  0.00  0.00    -0.027 A 
ATOM      5  C   LIG    1       26.147 -20.421   5.157  0.00  0.00    -0.010 A 
ATOM      6  C   LIG    1       26.356 -19.234   4.409  0.00  0.00    +0.007 A 
ATOM      7  C   LIG    1       25.347 -18.650   3.643  0.00  0.00    +0.000 A 
ATOM      8  C   LIG    1       24.103 -19.253   3.572  0.00  0.00    +0.000 A 
ATOM      9  C   LIG    1       27.343 -20.998   5.930  0.00  0.00    +0.179 C 
ATOM     10  O   LIG    1       27.041 -22.012   6.888  0.00  0.00    -0.366 OA
ATOM     11  C   LIG    1       26.220 -21.601   7.979  0.00  0.00    +0.176 C 
ATOM     12  C   LIG    1       23.883 -20.449   4.251  0.00  0.00    +0.005 A 
ATOM     13  C   LIG    1       25.032 -22.561   8.072  0.00  0.00    +0.112 C 
ENDROOT
BRANCH   9  14
ATOM     14  C   LIG    1       28.341 -20.021   6.559  0.00  0.00    -0.015 A 
ATOM     15  C   LIG    1       28.573 -19.955   7.944  0.00  0.00    +0.006 A 
ATOM     16  C   LIG    1       29.514 -19.067   8.472  0.00  0.00    +0.000 A 
ATOM     17  C   LIG    1       30.247 -18.240   7.624  0.00  0.00    +0.000 A 
ATOM     18  C   LIG    1       30.046 -18.304   6.249  0.00  0.00    +0.000 A 
ATOM     19  C   LIG    1       29.105 -19.191   5.720  0.00  0.00    +0.006 A 
ENDBRANCH   9  14
TORSDOF 1
ENDMDL
MODEL 6
REMARK VINA RESULT:      -6.0      6.192      8.915
REMARK  Name = *****
REMARK                            x       y       z     vdW  Elec       q    Type
REMARK                         _______ _______ _______ _____ _____    ______ ____
ROOT
ATOM      1  C   LIG    1       26.929 -33.243   6.793  0.00  0.00    +0.105 C 
ATOM      2  N   LIG    1       25.662 -33.054   6.101  0.00  0.00    -0.299 NA
ATOM      3  C   LIG    1       24.515 -32.757   6.974  0.00  0.00    +0.119 C 
ATOM      4  C   LIG    1       24.739 -31.796   8.135  0.00  0.00    -0.027 A 
ATOM      5  C   LIG    1       24.611 -30.387   8.058  0.00  0.00    -0.010 A 
ATOM      6  C   LIG    1       24.729 -29.647   9.262  0.00  0.00    +0.007 A 
ATOM      7  C   LIG    1       25.045 -30.252  10.479  0.00  0.00    +0.000 A 
ATOM      8  C   LIG    1       25.222 -31.623  10.538  0.00  0.00    +0.000 A 
ATOM      9  C   LIG    1       24.216 -29.622   6.785  0.00  0.00    +0.179 C 
ATOM     10  O   LIG    1       24.381 -30.324   5.554  0.00  0.00    -0.366 OA
ATOM     11  C   LIG    1       25.723 -30.673   5.222  0.00  0.00    +0.176 C 
ATOM     12  C   LIG    1       25.059 -32.384   9.383  0.00  0.00    +0.005 A 
ATOM     13  C   LIG    1       25.769 -32.174   4.930  0.00  0.00    +0.112 C 
ENDROOT
BRANCH   9  14
ATOM     14  C   LIG    1       24.742 -28.194   6.603  0.00  0.00    -0.015 A 
ATOM     15  C   LIG    1       25.812 -27.675   7.352  0.00  0.00    +0.006 A 
ATOM     16  C   LIG    1       26.276 -26.376   7.132  0.00  0.00    +0.000 A 
ATOM     17  C   LIG    1       25.689 -25.580   6.152  0.00  0.00    +0.000 A 
ATOM     18  C   LIG    1       24.641 -26.083   5.386  0.00  0.00    +0.000 A 
ATOM     19  C   LIG    1       24.175 -27.381   5.606  0.00  0.00    +0.006 A 
ENDBRANCH   9  14
TORSDOF 1
ENDMDL
MODEL 7
REMARK VINA RESULT:      -5.9      7.418      9.902
REMARK  Name = *****
REMARK                            x       y       z     vdW  Elec       q    Type
REMARK                         _______ _______ _______ _____ _____    ______ ____
ROOT
ATOM      1  C   LIG    1       23.550 -32.918   5.702  0.00  0.00    +0.105 C 
ATOM      2  N   LIG    1       24.757 -33.211   6.460  0.00  0.00    -0.299 NA
ATOM      3  C   LIG    1       25.794 -32.169   6.405  0.00  0.00    +0.119 C 
ATOM      4  C   LIG    1       25.343 -30.716   6.490  0.00  0.00    -0.027 A 
ATOM      5  C   LIG    1       25.161 -29.993   7.695  0.00  0.00    -0.010 A 
ATOM      6  C   LIG    1       24.861 -28.610   7.595  0.00  0.00    +0.007 A 
ATOM      7  C   LIG    1       24.662 -27.979   6.367  0.00  0.00    +0.000 A 
ATOM      8  C   LIG    1       24.789 -28.703   5.195  0.00  0.00    +0.000 A 
ATOM      9  C   LIG    1       25.403 -30.572   9.097  0.00  0.00    +0.179 C 
ATOM     10  O   LIG    1       25.418 -31.996   9.195  0.00  0.00    -0.366 OA
ATOM     11  C   LIG    1       24.192 -32.647   8.870  0.00  0.00    +0.176 C 
ATOM     12  C   LIG    1       25.137 -30.050   5.257  0.00  0.00    +0.005 A 
ATOM     13  C   LIG    1       24.482 -33.714   7.813  0.00  0.00    +0.112 C 
ENDROOT
BRANCH   9  14
ATOM     14  C   LIG    1       24.581 -30.016  10.265  0.00  0.00    -0.015 A 
ATOM     15  C   LIG    1       23.193 -30.211  10.380  0.00  0.00    +0.006 A 
ATOM     16  C   LIG    1       22.488 -29.710  11.476  0.00  0.00    +0.000 A 
ATOM     17  C   LIG    1       23.158 -29.018  12.482  0.00  0.00    +0.000 A 
ATOM     18  C   LIG    1       24.535 -28.832  12.396  0.00  0.00    +0.000 A 
ATOM     19  C   LIG    1       25.241 -29.332  11.300  0.00  0.00    +0.006 A 
ENDBRANCH   9  14
TORSDOF 1
ENDMDL
MODEL 8
REMARK VINA RESULT:      -5.9      7.594      9.488
REMARK  Name = *****
REMARK                            x       y       z     vdW  Elec       q    Type
REMARK                         _______ _______ _______ _____ _____    ______ ____
ROOT
ATOM      1  C   LIG    1       23.791 -33.251   7.782  0.00  0.00    +0.105 C 
ATOM      2  N   LIG    1       25.221 -33.324   8.045  0.00  0.00    -0.299 NA
ATOM      3  C   LIG    1       26.040 -32.349   7.307  0.00  0.00    +0.119 C 
ATOM      4  C   LIG    1       25.503 -30.929   7.177  0.00  0.00    -0.027 A 
ATOM      5  C   LIG    1       25.721 -29.890   8.116  0.00  0.00    -0.010 A 
ATOM      6  C   LIG    1       25.259 -28.592   7.782  0.00  0.00    +0.007 A 
ATOM      7  C   LIG    1       24.538 -28.335   6.615  0.00  0.00    +0.000 A 
ATOM      8  C   LIG    1       24.283 -29.365   5.727  0.00  0.00    +0.000 A 
ATOM      9  C   LIG    1       26.543 -30.046   9.405  0.00  0.00    +0.179 C 
ATOM     10  O   LIG    1       26.747 -31.383   9.861  0.00  0.00    -0.366 OA
ATOM     11  C   LIG    1       25.567 -32.091  10.237  0.00  0.00    +0.176 C 
ATOM     12  C   LIG    1       24.769 -30.641   6.000  0.00  0.00    +0.005 A 
ATOM     13  C   LIG    1       25.541 -33.417   9.475  0.00  0.00    +0.112 C 
ENDROOT
BRANCH   9  14
ATOM     14  C   LIG    1       26.176 -29.175  10.611  0.00  0.00    -0.015 A 
ATOM     15  C   LIG    1       24.994 -29.354  11.349  0.00  0.00    +0.006 A 
ATOM     16  C   LIG    1       24.714 -28.554  12.459  0.00  0.00    +0.000 A 
ATOM     17  C   LIG    1       25.616 -27.570  12.857  0.00  0.00    +0.000 A 
ATOM     18  C   LIG    1       26.801 -27.389  12.150  0.00  0.00    +0.000 A 
ATOM     19  C   LIG    1       27.082 -28.188  11.039  0.00  0.00    +0.006 A 
ENDBRANCH   9  14
TORSDOF 1
ENDMDL
MODEL 9
REMARK VINA RESULT:      -5.8      6.422      9.061
REMARK  Name = *****
REMARK                            x       y       z     vdW  Elec       q    Type
REMARK                         _______ _______ _______ _____ _____    ______ ____
ROOT
ATOM      1  C   LIG    1       22.526 -33.096   8.468  0.00  0.00    +0.105 C 
ATOM      2  N   LIG    1       23.591 -32.638   9.348  0.00  0.00    -0.299 NA
ATOM      3  C   LIG    1       24.953 -32.817   8.821  0.00  0.00    +0.119 C 
ATOM      4  C   LIG    1       25.187 -32.509   7.347  0.00  0.00    -0.027 A 
ATOM      5  C   LIG    1       25.519 -31.232   6.828  0.00  0.00    -0.010 A 
ATOM      6  C   LIG    1       25.829 -31.142   5.447  0.00  0.00    +0.007 A 
ATOM      7  C   LIG    1       25.735 -32.238   4.590  0.00  0.00    +0.000 A 
ATOM      8  C   LIG    1       25.359 -33.471   5.093  0.00  0.00    +0.000 A 
ATOM      9  C   LIG    1       25.701 -29.970   7.685  0.00  0.00    +0.179 C 
ATOM     10  O   LIG    1       25.119 -30.006   8.988  0.00  0.00    -0.366 OA
ATOM     11  C   LIG    1       23.698 -30.123   9.023  0.00  0.00    +0.176 C 
ATOM     12  C   LIG    1       25.100 -33.605   6.455  0.00  0.00    +0.005 A 
ATOM     13  C   LIG    1       23.337 -31.309   9.919  0.00  0.00    +0.112 C 
ENDROOT
BRANCH   9  14
ATOM     14  C   LIG    1       25.385 -28.610   7.052  0.00  0.00    -0.015 A 
ATOM     15  C   LIG    1       24.378 -28.435   6.088  0.00  0.00    +0.006 A 
ATOM     16  C   LIG    1       24.105 -27.171   5.558  0.00  0.00    +0.000 A 
ATOM     17  C   LIG    1       24.825 -26.061   5.993  0.00  0.00    +0.000 A 
ATOM     18  C   LIG    1       25.813 -26.211   6.961  0.00  0.00    +0.000 A 
ATOM     19  C   LIG    1       26.087 -27.474   7.491  0.00  0.00    +0.006 A 
ENDBRANCH   9  14
TORSDOF 1
ENDMDL
