MODEL 1
REMARK VINA RESULT:      -8.4      0.000      0.000
REMARK  Name = *****
REMARK                            x       y       z     vdW  Elec       q    Type
REMARK                         _______ _______ _______ _____ _____    ______ ____
ROOT
ATOM      1  C   LIG    1       25.280 -22.725   6.563  0.00  0.00    +0.064 C 
ATOM      2  C   LIG    1       25.769 -21.466   5.743  0.00  0.00    +0.039 C 
ATOM      3  C   LIG    1       26.828 -20.845   6.707  0.00  0.00    -0.002 C 
ATOM      4  C   LIG    1       27.490 -22.095   7.286  0.00  0.00    +0.009 C 
ATOM      5  C   LIG    1       26.170 -20.255   7.969  0.00  0.00    +0.004 C 
ATOM      6  C   LIG    1       25.666 -21.496   8.708  0.00  0.00    +0.005 C 
ATOM      7  C   LIG    1       26.176 -22.651   7.829  0.00  0.00    +0.007 C 
ENDROOT
BRANCH   2   8
ATOM      8  C   LIG    1       24.699 -20.515   5.230  0.00  0.00    -0.043 A 
ATOM      9  C   LIG    1       24.927 -19.700   4.108  0.00  0.00    +0.004 A 
ATOM     10  C   LIG    1       23.946 -18.822   3.637  0.00  0.00    +0.000 A 
ATOM     11  C   LIG    1       22.702 -18.765   4.265  0.00  0.00    +0.000 A 
ATOM     12  C   LIG    1       22.443 -19.594   5.348  0.00  0.00    +0.000 A 
ATOM     13  C   LIG    1       23.425 -20.469   5.817  0.00  0.00    +0.004 A 
ENDBRANCH   2   8
BRANCH   1  14
ATOM     14  N   LIG    1       25.496 -23.974   5.807  0.00  0.00    -0.313 NA
ATOM     15  H   LIG    1       25.523 -23.759   4.810  0.00  0.00    +0.122 HD
BRANCH  14  17
ATOM     16  C   LIG    1       23.204 -24.279   6.639  0.00  0.00    +0.020 C 
ATOM     17  C   LIG    1       24.435 -24.955   6.053  0.00  0.00    +0.077 C 
ENDBRANCH  14  17
ENDBRANCH   1  14
TORSDOF 3
ENDMDL
MODEL 2
REMARK VINA RESULT:      -8.0      1.590      4.644
REMARK  Name = *****
REMARK                            x       y       z     vdW  Elec       q    Type
REMARK                         _______ _______ _______ _____ _____    ______ ____
ROOT
ATOM      1  C   LIG    1       24.703 -21.401   6.533  0.00  0.00    +0.064 C 
ATOM      2  C   LIG    1       25.040 -22.690   7.382  0.00  0.00    +0.039 C 
ATOM      3  C   LIG    1       26.233 -22.196   8.259  0.00  0.00    -0.002 C 
ATOM      4  C   LIG    1       25.811 -20.760   8.574  0.00  0.00    +0.009 C 
ATOM      5  C   LIG    1       27.496 -21.948   7.413  0.00  0.00    +0.004 C 
ATOM      6  C   LIG    1       27.113 -20.729   6.571  0.00  0.00    +0.005 C 
ATOM      7  C   LIG    1       25.714 -20.370   7.102  0.00  0.00    +0.007 C 
ENDROOT
BRANCH   2   8
ATOM      8  C   LIG    1       25.270 -23.984   6.617  0.00  0.00    -0.043 A 
ATOM      9  C   LIG    1       25.803 -25.120   7.252  0.00  0.00    +0.004 A 
ATOM     10  C   LIG    1       26.019 -26.310   6.549  0.00  0.00    +0.000 A 
ATOM     11  C   LIG    1       25.676 -26.394   5.200  0.00  0.00    +0.000 A 
ATOM     12  C   LIG    1       25.108 -25.297   4.567  0.00  0.00    +0.000 A 
ATOM     13  C   LIG    1       24.895 -24.109   5.271  0.00  0.00    +0.004 A 
ENDBRANCH   2   8
BRANCH   1  14
ATOM     14  N   LIG    1       23.305 -20.974   6.738  0.00  0.00    -0.313 NA
ATOM     15  H   LIG    1       22.831 -21.660   7.326  0.00  0.00    +0.122 HD
BRANCH  14  17
ATOM     16  C   LIG    1       22.534 -19.399   5.017  0.00  0.00    +0.020 C 
ATOM     17  C   LIG    1       22.579 -20.850   5.471  0.00  0.00    +0.077 C 
ENDBRANCH  14  17
ENDBRANCH   1  14
TORSDOF 3
ENDMDL
MODEL 3
REMARK VINA RESULT:      -8.0      1.673      3.887
REMARK  Name = *****
REMARK                            x       y       z     vdW  Elec       q    Type
REMARK                         _______ _______ _______ _____ _____    ______ ____
ROOT
ATOM      1  C   LIG    1       24.585 -22.296   5.270  0.00  0.00    +0.064 C 
ATOM      2  C   LIG    1       25.358 -22.260   6.648  0.00  0.00    +0.039 C 
ATOM      3  C   LIG    1       24.226 -21.848   7.642  0.00  0.00    -0.002 C 
ATOM      4  C   LIG    1       23.028 -22.615   7.081  0.00  0.00    +0.009 C 
ATOM      5  C   LIG    1       23.771 -20.394   7.413  0.00  0.00    +0.004 C 
ATOM      6  C   LIG    1       23.076 -20.459   6.052  0.00  0.00    +0.005 C 
ATOM      7  C   LIG    1       23.135 -21.958   5.707  0.00  0.00    +0.007 C 
ENDROOT
BRANCH   2   8
ATOM      8  C   LIG    1       26.630 -21.428   6.709  0.00  0.00    -0.043 A 
ATOM      9  C   LIG    1       27.616 -21.676   7.679  0.00  0.00    +0.004 A 
ATOM     10  C   LIG    1       28.785 -20.910   7.738  0.00  0.00    +0.000 A 
ATOM     11  C   LIG    1       29.001 -19.897   6.805  0.00  0.00    +0.000 A 
ATOM     12  C   LIG    1       28.059 -19.666   5.812  0.00  0.00    +0.000 A 
ATOM     13  C   LIG    1       26.891 -20.432   5.756  0.00  0.00    +0.004 A 
ENDBRANCH   2   8
BRANCH   1  14
ATOM     14  N   LIG    1       24.675 -23.628   4.640  0.00  0.00    -0.313 NA
ATOM     15  H   LIG    1       23.738 -23.935   4.376  0.00  0.00    +0.122 HD
BRANCH  14  17
ATOM     16  C   LIG    1       24.294 -25.768   5.786  0.00  0.00    +0.020 C 
ATOM     17  C   LIG    1       25.264 -24.622   5.542  0.00  0.00    +0.077 C 
ENDBRANCH  14  17
ENDBRANCH   1  14
TORSDOF 3
ENDMDL
MODEL 4
REMARK VINA RESULT:      -7.6      1.635      3.194
REMARK  Name = *****
REMARK                            x       y       z     vdW  Elec       q    Type
REMARK                         _______ _______ _______ _____ _____    ______ ____
ROOT
ATOM      1  C   LIG    1       26.498 -21.234   6.930  0.00  0.00    +0.064 C 
ATOM      2  C   LIG    1       24.985 -20.802   7.076  0.00  0.00    +0.039 C 
ATOM      3  C   LIG    1       24.340 -22.088   7.681  0.00  0.00    -0.002 C 
ATOM      4  C   LIG    1       25.436 -22.565   8.634  0.00  0.00    +0.009 C 
ATOM      5  C   LIG    1       24.318 -23.246   6.664  0.00  0.00    +0.004 C 
ATOM      6  C   LIG    1       25.799 -23.599   6.511  0.00  0.00    +0.005 C 
ATOM      7  C   LIG    1       26.482 -22.666   7.526  0.00  0.00    +0.007 C 
ENDROOT
BRANCH   2   8
ATOM      8  C   LIG    1       24.302 -20.237   5.840  0.00  0.00    -0.043 A 
ATOM      9  C   LIG    1       24.999 -20.089   4.628  0.00  0.00    +0.004 A 
ATOM     10  C   LIG    1       24.373 -19.567   3.491  0.00  0.00    +0.000 A 
ATOM     11  C   LIG    1       23.027 -19.209   3.538  0.00  0.00    +0.000 A 
ATOM     12  C   LIG    1       22.311 -19.388   4.714  0.00  0.00    +0.000 A 
ATOM     13  C   LIG    1       22.938 -19.909   5.849  0.00  0.00    +0.004 A 
ENDBRANCH   2   8
BRANCH   1  14
ATOM     14  N   LIG    1       27.388 -20.331   7.687  0.00  0.00    -0.313 NA
ATOM     15  H   LIG    1       26.947 -19.413   7.758  0.00  0.00    +0.122 HD
BRANCH  14  17
ATOM     16  C   LIG    1       28.550 -19.517   5.681  0.00  0.00    +0.020 C 
ATOM     17  C   LIG    1       28.695 -20.182   7.041  0.00  0.00    +0.077 C 
ENDBRANCH  14  17
ENDBRANCH   1  14
TORSDOF 3
ENDMDL
MODEL 5
REMARK VINA RESULT:      -7.5      1.902      5.063
REMARK  Name = *****
REMARK                            x       y       z     vdW  Elec       q    Type
REMARK                         _______ _______ _______ _____ _____    ______ ____
ROOT
ATOM      1  C   LIG    1       25.496 -21.498   6.356  0.00  0.00    +0.064 C 
ATOM      2  C   LIG    1       24.821 -22.559   5.399  0.00  0.00    +0.039 C 
ATOM      3  C   LIG    1       23.308 -22.201   5.537  0.00  0.00    -0.002 C 
ATOM      4  C   LIG    1       23.358 -20.674   5.612  0.00  0.00    +0.009 C 
ATOM      5  C   LIG    1       22.768 -22.542   6.939  0.00  0.00    +0.004 C 
ATOM      6  C   LIG    1       23.482 -21.531   7.839  0.00  0.00    +0.005 C 
ATOM      7  C   LIG    1       24.272 -20.673   6.835  0.00  0.00    +0.007 C 
ENDROOT
BRANCH   2   8
ATOM      8  C   LIG    1       25.179 -24.021   5.622  0.00  0.00    -0.043 A 
ATOM      9  C   LIG    1       25.688 -24.465   6.855  0.00  0.00    +0.004 A 
ATOM     10  C   LIG    1       26.020 -25.808   7.060  0.00  0.00    +0.000 A 
ATOM     11  C   LIG    1       25.822 -26.739   6.042  0.00  0.00    +0.000 A 
ATOM     12  C   LIG    1       25.280 -26.327   4.832  0.00  0.00    +0.000 A 
ATOM     13  C   LIG    1       24.949 -24.984   4.629  0.00  0.00    +0.004 A 
ENDBRANCH   2   8
BRANCH   1  14
ATOM     14  N   LIG    1       26.472 -20.664   5.626  0.00  0.00    -0.313 NA
ATOM     15  H   LIG    1       26.773 -21.161   4.788  0.00  0.00    +0.122 HD
BRANCH  14  17
ATOM     16  C   LIG    1       27.912 -21.465   7.449  0.00  0.00    +0.020 C 
ATOM     17  C   LIG    1       27.648 -20.354   6.444  0.00  0.00    +0.077 C 
ENDBRANCH  14  17
ENDBRANCH   1  14
TORSDOF 3
ENDMDL
MODEL 6
REMARK VINA RESULT:      -7.3      2.057      4.675
REMARK  Name = *****
REMARK                            x       y       z     vdW  Elec       q    Type
REMARK                         _______ _______ _______ _____ _____    ______ ____
ROOT
ATOM      1  C   LIG    1       25.583 -20.721   5.894  0.00  0.00    +0.064 C 
ATOM      2  C   LIG    1       26.878 -21.485   6.381  0.00  0.00    +0.039 C 
ATOM      3  C   LIG    1       26.345 -22.263   7.624  0.00  0.00    -0.002 C 
ATOM      4  C   LIG    1       24.947 -22.671   7.158  0.00  0.00    +0.009 C 
ATOM      5  C   LIG    1       25.996 -21.311   8.784  0.00  0.00    +0.004 C 
ATOM      6  C   LIG    1       24.774 -20.556   8.256  0.00  0.00    +0.005 C 
ATOM      7  C   LIG    1       24.514 -21.230   6.898  0.00  0.00    +0.007 C 
ENDROOT
BRANCH   2   8
ATOM      8  C   LIG    1       28.131 -20.653   6.607  0.00  0.00    -0.043 A 
ATOM      9  C   LIG    1       29.112 -21.051   7.531  0.00  0.00    +0.004 A 
ATOM     10  C   LIG    1       30.263 -20.285   7.742  0.00  0.00    +0.000 A 
ATOM     11  C   LIG    1       30.468 -19.118   7.008  0.00  0.00    +0.000 A 
ATOM     12  C   LIG    1       29.532 -18.732   6.059  0.00  0.00    +0.000 A 
ATOM     13  C   LIG    1       28.382 -19.498   5.850  0.00  0.00    +0.004 A 
ENDBRANCH   2   8
BRANCH   1  14
ATOM     14  N   LIG    1       25.245 -21.074   4.501  0.00  0.00    -0.313 NA
ATOM     15  H   LIG    1       25.979 -21.673   4.122  0.00  0.00    +0.122 HD
BRANCH  14  17
ATOM     16  C   LIG    1       23.738 -19.260   3.811  0.00  0.00    +0.020 C 
ATOM     17  C   LIG    1       25.115 -19.887   3.652  0.00  0.00    +0.077 C 
ENDBRANCH  14  17
ENDBRANCH   1  14
TORSDOF 3
ENDMDL
MODEL 7
REMARK VINA RESULT:      -7.1      1.410      4.047
REMARK  Name = *****
REMARK                            x       y       z     vdW  Elec       q    Type
REMARK                         _______ _______ _______ _____ _____    ______ ____
ROOT
ATOM      1  C   LIG    1       24.547 -22.173   4.942  0.00  0.00    +0.064 C 
ATOM      2  C   LIG    1       24.656 -21.101   6.097  0.00  0.00    +0.039 C 
ATOM      3  C   LIG    1       23.700 -19.978   5.586  0.00  0.00    -0.002 C 
ATOM      4  C   LIG    1       22.571 -20.795   4.958  0.00  0.00    +0.009 C 
ATOM      5  C   LIG    1       24.270 -19.269   4.342  0.00  0.00    +0.004 C 
ATOM      6  C   LIG    1       24.195 -20.351   3.263  0.00  0.00    +0.005 C 
ATOM      7  C   LIG    1       23.508 -21.518   3.993  0.00  0.00    +0.007 C 
ENDROOT
BRANCH   2   8
ATOM      8  C   LIG    1       26.053 -20.651   6.497  0.00  0.00    -0.043 A 
ATOM      9  C   LIG    1       26.995 -20.257   5.531  0.00  0.00    +0.004 A 
ATOM     10  C   LIG    1       28.281 -19.846   5.896  0.00  0.00    +0.000 A 
ATOM     11  C   LIG    1       28.639 -19.794   7.243  0.00  0.00    +0.000 A 
ATOM     12  C   LIG    1       27.709 -20.138   8.214  0.00  0.00    +0.000 A 
ATOM     13  C   LIG    1       26.425 -20.549   7.846  0.00  0.00    +0.004 A 
ENDBRANCH   2   8
BRANCH   1  14
ATOM     14  N   LIG    1       24.078 -23.473   5.460  0.00  0.00    -0.313 NA
ATOM     15  H   LIG    1       23.707 -23.341   6.402  0.00  0.00    +0.122 HD
BRANCH  14  17
ATOM     16  C   LIG    1       25.842 -24.449   6.865  0.00  0.00    +0.020 C 
ATOM     17  C   LIG    1       25.156 -24.465   5.508  0.00  0.00    +0.077 C 
ENDBRANCH  14  17
ENDBRANCH   1  14
TORSDOF 3
ENDMDL
MODEL 8
REMARK VINA RESULT:      -6.8      2.010      5.024
REMARK  Name = *****
REMARK                            x       y       z     vdW  Elec       q    Type
REMARK                         _______ _______ _______ _____ _____    ______ ____
ROOT
ATOM      1  C   LIG    1       25.521 -22.103   7.957  0.00  0.00    +0.064 C 
ATOM      2  C   LIG    1       25.706 -22.774   6.538  0.00  0.00    +0.039 C 
ATOM      3  C   LIG    1       24.869 -21.826   5.622  0.00  0.00    -0.002 C 
ATOM      4  C   LIG    1       25.174 -20.458   6.232  0.00  0.00    +0.009 C 
ATOM      5  C   LIG    1       23.360 -21.943   5.913  0.00  0.00    +0.004 C 
ATOM      6  C   LIG    1       23.229 -21.333   7.310  0.00  0.00    +0.005 C 
ATOM      7  C   LIG    1       24.661 -20.858   7.613  0.00  0.00    +0.007 C 
ENDROOT
BRANCH   2   8
ATOM      8  C   LIG    1       25.390 -24.257   6.424  0.00  0.00    -0.043 A 
ATOM      9  C   LIG    1       24.325 -24.714   5.629  0.00  0.00    +0.004 A 
ATOM     10  C   LIG    1       24.030 -26.078   5.525  0.00  0.00    +0.000 A 
ATOM     11  C   LIG    1       24.817 -27.014   6.195  0.00  0.00    +0.000 A 
ATOM     12  C   LIG    1       25.900 -26.584   6.950  0.00  0.00    +0.000 A 
ATOM     13  C   LIG    1       26.192 -25.221   7.053  0.00  0.00    +0.004 A 
ENDBRANCH   2   8
BRANCH   1  14
ATOM     14  N   LIG    1       26.821 -21.731   8.547  0.00  0.00    -0.313 NA
ATOM     15  H   LIG    1       26.746 -20.798   8.956  0.00  0.00    +0.122 HD
BRANCH  14  17
ATOM     16  C   LIG    1       28.613 -20.386   7.538  0.00  0.00    +0.020 C 
ATOM     17  C   LIG    1       27.895 -21.727   7.550  0.00  0.00    +0.077 C 
ENDBRANCH  14  17
ENDBRANCH   1  14
TORSDOF 3
ENDMDL
MODEL 9
REMARK VINA RESULT:      -6.7      1.845      5.121
REMARK  Name = *****
REMARK                            x       y       z     vdW  Elec       q    Type
REMARK                         _______ _______ _______ _____ _____    ______ ____
ROOT
ATOM      1  C   LIG    1       25.136 -21.523   5.638  0.00  0.00    +0.064 C 
ATOM      2  C   LIG    1       24.132 -22.730   5.459  0.00  0.00    +0.039 C 
ATOM      3  C   LIG    1       22.865 -22.209   6.207  0.00  0.00    -0.002 C 
ATOM      4  C   LIG    1       22.870 -20.727   5.829  0.00  0.00    +0.009 C 
ATOM      5  C   LIG    1       23.098 -22.120   7.727  0.00  0.00    +0.004 C 
ATOM      6  C   LIG    1       24.111 -20.980   7.855  0.00  0.00    +0.005 C 
ATOM      7  C   LIG    1       24.265 -20.492   6.404  0.00  0.00    +0.007 C 
ENDROOT
BRANCH   2   8
ATOM      8  C   LIG    1       24.624 -24.109   5.870  0.00  0.00    -0.043 A 
ATOM      9  C   LIG    1       25.867 -24.279   6.503  0.00  0.00    +0.004 A 
ATOM     10  C   LIG    1       26.323 -25.547   6.879  0.00  0.00    +0.000 A 
ATOM     11  C   LIG    1       25.526 -26.669   6.654  0.00  0.00    +0.000 A 
ATOM     12  C   LIG    1       24.276 -26.516   6.070  0.00  0.00    +0.000 A 
ATOM     13  C   LIG    1       23.824 -25.248   5.694  0.00  0.00    +0.004 A 
ENDBRANCH   2   8
BRANCH   1  14
ATOM     14  N   LIG    1       25.587 -21.003   4.332  0.00  0.00    -0.313 NA
ATOM     15  H   LIG    1       26.365 -21.573   3.999  0.00  0.00    +0.122 HD
BRANCH  14  17
ATOM     16  C   LIG    1       25.224 -18.734   3.464  0.00  0.00    +0.020 C 
ATOM     17  C   LIG    1       26.022 -19.607   4.419  0.00  0.00    +0.077 C 
ENDBRANCH  14  17
ENDBRANCH   1  14
TORSDOF 3
ENDMDL
