MODEL 1
REMARK VINA RESULT:      18.8      0.000      0.000
REMARK  Name = *****
REMARK                            x       y       z     vdW  Elec       q    Type
REMARK                         _______ _______ _______ _____ _____    ______ ____
ROOT
ATOM      1  C   LIG    1       26.611 -17.638   4.703  0.00  0.00    +0.066 A 
ATOM      2  C   LIG    1       26.306 -16.251   4.761  0.00  0.00    +0.040 A 
ATOM      3  I   LIG    1       26.033 -14.824   6.816  0.00  0.00    -0.042 I 
ATOM      4  C   LIG    1       25.172 -15.753   4.117  0.00  0.00    +0.066 A 
ATOM      5  C   LIG    1       24.094 -16.661   4.018  0.00  0.00    +0.049 A 
ATOM      6  I   LIG    1       22.511 -16.198   5.626  0.00  0.00    -0.041 I 
ATOM      7  C   LIG    1       24.299 -18.047   3.934  0.00  0.00    +0.061 A 
ATOM      8  C   LIG    1       25.640 -18.466   3.990  0.00  0.00    +0.049 A 
ATOM      9  I   LIG    1       26.190 -19.708   2.218  0.00  0.00    -0.041 I 
ENDROOT
BRANCH   4  10
ATOM     10  C   LIG    1       25.463 -14.907   2.892  0.00  0.00    +0.248 C 
ATOM     11  N   LIG    1       26.617 -14.094   2.828  0.00  0.00    -0.298 N 
ATOM     12  C   LIG    1       27.752 -14.126   3.702  0.00  0.00    +0.132 C 
ATOM     13  O   LIG    1       24.660 -14.965   1.989  0.00  0.00    -0.270 OA
BRANCH  11  14
ATOM     14  C   LIG    1       26.706 -13.046   1.815  0.00  0.00    +0.141 C 
BRANCH  14  15
ATOM     15  C   LIG    1       25.994 -11.726   2.227  0.00  0.00    +0.157 C 
BRANCH  15  16
ATOM     16  O   LIG    1       26.080 -11.455   3.635  0.00  0.00    -0.388 OA
ATOM     17  H   LIG    1       26.390 -12.236   4.122  0.00  0.00    +0.210 HD
ENDBRANCH  15  16
BRANCH  15  18
ATOM     18  C   LIG    1       24.521 -11.773   1.835  0.00  0.00    +0.188 C 
BRANCH  18  19
ATOM     19  O   LIG    1       23.656 -11.735   2.954  0.00  0.00    -0.392 OA
ATOM     20  H   LIG    1       22.764 -11.476   2.657  0.00  0.00    +0.209 HD
ENDBRANCH  18  19
ENDBRANCH  15  18
ENDBRANCH  14  15
ENDBRANCH  11  14
ENDBRANCH   4  10
BRANCH   1  23
ATOM     21  C   LIG    1       29.299 -20.124   6.135  0.00  0.00    +0.132 C 
ATOM     22  N   LIG    1       28.036 -19.373   5.981  0.00  0.00    -0.298 N 
ATOM     23  C   LIG    1       27.974 -18.400   4.949  0.00  0.00    +0.248 C 
ATOM     24  O   LIG    1       28.965 -18.181   4.278  0.00  0.00    -0.270 OA
BRANCH  22  25
ATOM     25  C   LIG    1       26.960 -19.830   6.819  0.00  0.00    +0.141 C 
BRANCH  25  26
ATOM     26  C   LIG    1       26.309 -21.210   6.517  0.00  0.00    +0.157 C 
BRANCH  26  27
ATOM     27  O   LIG    1       26.285 -21.434   5.103  0.00  0.00    -0.388 OA
ATOM     28  H   LIG    1       26.759 -22.273   4.956  0.00  0.00    +0.210 HD
ENDBRANCH  26  27
BRANCH  26  29
ATOM     29  C   LIG    1       24.891 -21.542   7.061  0.00  0.00    +0.188 C 
BRANCH  29  30
ATOM     30  O   LIG    1       23.859 -20.821   6.430  0.00  0.00    -0.392 OA
ATOM     31  H   LIG    1       23.830 -19.947   6.850  0.00  0.00    +0.209 HD
ENDBRANCH  29  30
ENDBRANCH  26  29
ENDBRANCH  25  26
ENDBRANCH  22  25
ENDBRANCH   1  23
BRANCH   7  32
ATOM     32  N   LIG    1       23.239 -18.889   3.492  0.00  0.00    -0.283 N 
ATOM     33  H   LIG    1       23.181 -19.019   2.492  0.00  0.00    +0.155 HD
ATOM     34  C   LIG    1       22.104 -19.151   4.269  0.00  0.00    +0.225 C 
ATOM     35  O   LIG    1       21.998 -18.821   5.439  0.00  0.00    -0.275 OA
BRANCH  34  36
ATOM     36  C   LIG    1       20.916 -19.822   3.549  0.00  0.00    +0.126 C 
BRANCH  36  37
ATOM     37  C   LIG    1       19.614 -19.052   3.762  0.00  0.00    +0.170 C 
BRANCH  37  38
ATOM     38  O   LIG    1       19.555 -17.927   2.893  0.00  0.00    -0.394 OA
ATOM     39  H   LIG    1       19.356 -18.254   1.998  0.00  0.00    +0.209 HD
ENDBRANCH  37  38
ENDBRANCH  36  37
BRANCH  36  40
ATOM     40  C   LIG    1       20.782 -21.303   3.922  0.00  0.00    +0.170 C 
BRANCH  40  41
ATOM     41  O   LIG    1       21.524 -21.570   5.114  0.00  0.00    -0.394 OA
ATOM     42  H   LIG    1       22.003 -20.759   5.363  0.00  0.00    +0.209 HD
ENDBRANCH  40  41
ENDBRANCH  36  40
ENDBRANCH  34  36
ENDBRANCH   7  32
TORSDOF 18
ENDMDL
MODEL 2
REMARK VINA RESULT:      19.0      0.366      1.317
REMARK  Name = *****
REMARK                            x       y       z     vdW  Elec       q    Type
REMARK                         _______ _______ _______ _____ _____    ______ ____
ROOT
ATOM      1  C   LIG    1       26.591 -17.627   4.755  0.00  0.00    +0.066 A 
ATOM      2  C   LIG    1       26.381 -16.223   4.819  0.00  0.00    +0.040 A 
ATOM      3  I   LIG    1       26.374 -14.764   6.870  0.00  0.00    -0.042 I 
ATOM      4  C   LIG    1       25.229 -15.658   4.267  0.00  0.00    +0.066 A 
ATOM      5  C   LIG    1       24.092 -16.496   4.271  0.00  0.00    +0.049 A 
ATOM      6  I   LIG    1       22.684 -15.919   6.001  0.00  0.00    -0.041 I 
ATOM      7  C   LIG    1       24.201 -17.893   4.189  0.00  0.00    +0.061 A 
ATOM      8  C   LIG    1       25.513 -18.397   4.137  0.00  0.00    +0.049 A 
ATOM      9  I   LIG    1       25.829 -19.687   2.343  0.00  0.00    -0.041 I 
ENDROOT
BRANCH   4  10
ATOM     10  C   LIG    1       25.469 -14.844   3.010  0.00  0.00    +0.248 C 
ATOM     11  N   LIG    1       26.641 -14.071   2.856  0.00  0.00    -0.298 N 
ATOM     12  C   LIG    1       27.829 -14.127   3.657  0.00  0.00    +0.132 C 
ATOM     13  O   LIG    1       24.607 -14.890   2.161  0.00  0.00    -0.270 OA
BRANCH  11  14
ATOM     14  C   LIG    1       26.699 -13.043   1.820  0.00  0.00    +0.141 C 
BRANCH  14  15
ATOM     15  C   LIG    1       26.017 -11.708   2.235  0.00  0.00    +0.157 C 
BRANCH  15  16
ATOM     16  O   LIG    1       26.100 -11.447   3.645  0.00  0.00    -0.388 OA
ATOM     17  H   LIG    1       25.867 -10.525   3.843  0.00  0.00    +0.210 HD
ENDBRANCH  15  16
BRANCH  15  18
ATOM     18  C   LIG    1       24.545 -11.718   1.833  0.00  0.00    +0.188 C 
BRANCH  18  19
ATOM     19  O   LIG    1       23.674 -11.646   2.946  0.00  0.00    -0.392 OA
ATOM     20  H   LIG    1       23.400 -10.720   3.075  0.00  0.00    +0.209 HD
ENDBRANCH  18  19
ENDBRANCH  15  18
ENDBRANCH  14  15
ENDBRANCH  11  14
ENDBRANCH   4  10
BRANCH   1  23
ATOM     21  C   LIG    1       29.213 -20.299   5.958  0.00  0.00    +0.132 C 
ATOM     22  N   LIG    1       27.989 -19.472   5.902  0.00  0.00    -0.298 N 
ATOM     23  C   LIG    1       27.919 -18.473   4.895  0.00  0.00    +0.248 C 
ATOM     24  O   LIG    1       28.875 -18.297   4.165  0.00  0.00    -0.270 OA
BRANCH  22  25
ATOM     25  C   LIG    1       26.944 -19.885   6.799  0.00  0.00    +0.141 C 
BRANCH  25  26
ATOM     26  C   LIG    1       26.186 -21.212   6.508  0.00  0.00    +0.157 C 
BRANCH  26  27
ATOM     27  O   LIG    1       26.157 -21.452   5.097  0.00  0.00    -0.388 OA
ATOM     28  H   LIG    1       27.088 -21.485   4.812  0.00  0.00    +0.210 HD
ENDBRANCH  26  27
BRANCH  26  29
ATOM     29  C   LIG    1       24.741 -21.420   7.042  0.00  0.00    +0.188 C 
BRANCH  29  30
ATOM     30  O   LIG    1       23.875 -20.343   6.768  0.00  0.00    -0.392 OA
ATOM     31  H   LIG    1       24.434 -19.594   6.508  0.00  0.00    +0.209 HD
ENDBRANCH  29  30
ENDBRANCH  26  29
ENDBRANCH  25  26
ENDBRANCH  22  25
ENDBRANCH   1  23
BRANCH   7  32
ATOM     32  N   LIG    1       23.055 -18.669   3.850  0.00  0.00    -0.283 N 
ATOM     33  H   LIG    1       22.844 -18.715   2.863  0.00  0.00    +0.155 HD
ATOM     34  C   LIG    1       22.040 -18.964   4.767  0.00  0.00    +0.225 C 
ATOM     35  O   LIG    1       22.122 -18.728   5.962  0.00  0.00    -0.275 OA
BRANCH  34  36
ATOM     36  C   LIG    1       20.733 -19.543   4.187  0.00  0.00    +0.126 C 
BRANCH  36  37
ATOM     37  C   LIG    1       20.787 -21.066   4.075  0.00  0.00    +0.170 C 
BRANCH  37  38
ATOM     38  O   LIG    1       21.936 -21.571   4.745  0.00  0.00    -0.394 OA
ATOM     39  H   LIG    1       22.532 -20.821   4.920  0.00  0.00    +0.209 HD
ENDBRANCH  37  38
ENDBRANCH  36  37
BRANCH  36  40
ATOM     40  C   LIG    1       20.352 -18.877   2.859  0.00  0.00    +0.170 C 
BRANCH  40  41
ATOM     41  O   LIG    1       19.714 -17.624   3.112  0.00  0.00    -0.394 OA
ATOM     42  H   LIG    1       19.311 -17.315   2.281  0.00  0.00    +0.209 HD
ENDBRANCH  40  41
ENDBRANCH  36  40
ENDBRANCH  34  36
ENDBRANCH   7  32
TORSDOF 18
ENDMDL
