MODEL 1
REMARK VINA RESULT:      -7.1      0.000      0.000
REMARK  Name = *****
REMARK                            x       y       z     vdW  Elec       q    Type
REMARK                         _______ _______ _______ _____ _____    ______ ____
ROOT
ATOM      1  C   LIG    1       28.913 -20.152   6.853  0.00  0.00    -0.018 A 
ATOM      2  C   LIG    1       29.882 -19.143   6.998  0.00  0.00    +0.055 A 
ATOM      3  C   LIG    1       31.006 -19.311   7.827  0.00  0.00    +0.162 A 
ATOM      4  C   LIG    1       31.141 -20.506   8.536  0.00  0.00    +0.159 A 
ATOM      5  C   LIG    1       30.165 -21.503   8.435  0.00  0.00    +0.049 A 
ATOM      6  C   LIG    1       29.056 -21.320   7.605  0.00  0.00    +0.010 A 
ENDROOT
BRANCH   3   7
ATOM      7  O   LIG    1       31.853 -18.233   7.809  0.00  0.00    -0.491 OA
ATOM      8  C   LIG    1       31.888 -17.391   8.952  0.00  0.00    +0.277 C 
ENDBRANCH   3   7
BRANCH   4   9
ATOM      9  O   LIG    1       32.218 -20.749   9.347  0.00  0.00    -0.503 OA
ATOM     10  H   LIG    1       32.991 -20.937   8.793  0.00  0.00    +0.292 HD
ENDBRANCH   4   9
BRANCH   1  11
ATOM     11  C   LIG    1       27.723 -19.942   5.944  0.00  0.00    +0.195 C 
BRANCH  11  12
ATOM     12  O   LIG    1       26.506 -20.278   6.620  0.00  0.00    -0.375 OA
BRANCH  12  13
ATOM     13  C   LIG    1       25.479 -20.662   5.705  0.00  0.00    +0.160 C 
BRANCH  13  14
ATOM     14  C   LIG    1       24.135 -20.644   6.432  0.00  0.00    +0.028 C 
BRANCH  14  16
ATOM     15  C   LIG    1       22.490 -19.325   5.037  0.00  0.00    +0.004 C 
ATOM     16  C   LIG    1       22.964 -20.710   5.451  0.00  0.00    -0.001 C 
ENDBRANCH  14  16
ENDBRANCH  13  14
ENDBRANCH  12  13
ENDBRANCH  11  12
ENDBRANCH   1  11
TORSDOF 7
ENDMDL
MODEL 2
REMARK VINA RESULT:      -6.9      2.802      7.084
REMARK  Name = *****
REMARK                            x       y       z     vdW  Elec       q    Type
REMARK                         _______ _______ _______ _____ _____    ______ ____
ROOT
ATOM      1  C   LIG    1       25.595 -21.432   7.498  0.00  0.00    -0.018 A 
ATOM      2  C   LIG    1       25.765 -22.796   7.198  0.00  0.00    +0.055 A 
ATOM      3  C   LIG    1       24.672 -23.626   6.888  0.00  0.00    +0.162 A 
ATOM      4  C   LIG    1       23.389 -23.075   6.901  0.00  0.00    +0.159 A 
ATOM      5  C   LIG    1       23.200 -21.730   7.237  0.00  0.00    +0.049 A 
ATOM      6  C   LIG    1       24.297 -20.920   7.541  0.00  0.00    +0.010 A 
ENDROOT
BRANCH   3   7
ATOM      7  O   LIG    1       25.043 -24.912   6.590  0.00  0.00    -0.491 OA
ATOM      8  C   LIG    1       25.249 -25.248   5.225  0.00  0.00    +0.277 C 
ENDBRANCH   3   7
BRANCH   4   9
ATOM      9  O   LIG    1       22.281 -23.816   6.590  0.00  0.00    -0.503 OA
ATOM     10  H   LIG    1       22.565 -24.679   6.253  0.00  0.00    +0.292 HD
ENDBRANCH   4   9
BRANCH   1  11
ATOM     11  C   LIG    1       26.794 -20.567   7.816  0.00  0.00    +0.195 C 
BRANCH  11  12
ATOM     12  O   LIG    1       27.890 -21.371   8.265  0.00  0.00    -0.375 OA
BRANCH  12  13
ATOM     13  C   LIG    1       29.102 -21.044   7.584  0.00  0.00    +0.160 C 
BRANCH  13  14
ATOM     14  C   LIG    1       28.791 -20.050   6.466  0.00  0.00    +0.028 C 
BRANCH  14  16
ATOM     15  C   LIG    1       31.097 -19.311   7.192  0.00  0.00    +0.004 C 
ATOM     16  C   LIG    1       29.876 -18.980   6.346  0.00  0.00    -0.001 C 
ENDBRANCH  14  16
ENDBRANCH  13  14
ENDBRANCH  12  13
ENDBRANCH  11  12
ENDBRANCH   1  11
TORSDOF 7
ENDMDL
MODEL 3
REMARK VINA RESULT:      -6.9      1.264      2.275
REMARK  Name = *****
REMARK                            x       y       z     vdW  Elec       q    Type
REMARK                         _______ _______ _______ _____ _____    ______ ____
ROOT
ATOM      1  C   LIG    1       28.083 -20.079   6.514  0.00  0.00    -0.018 A 
ATOM      2  C   LIG    1       28.727 -20.599   7.651  0.00  0.00    +0.055 A 
ATOM      3  C   LIG    1       30.024 -20.194   8.016  0.00  0.00    +0.162 A 
ATOM      4  C   LIG    1       30.687 -19.267   7.209  0.00  0.00    +0.159 A 
ATOM      5  C   LIG    1       30.075 -18.772   6.052  0.00  0.00    +0.049 A 
ATOM      6  C   LIG    1       28.786 -19.183   5.706  0.00  0.00    +0.010 A 
ENDROOT
BRANCH   3   7
ATOM      7  O   LIG    1       30.466 -20.785   9.172  0.00  0.00    -0.491 OA
ATOM      8  C   LIG    1       31.252 -21.963   9.062  0.00  0.00    +0.277 C 
ENDBRANCH   3   7
BRANCH   4   9
ATOM      9  O   LIG    1       31.942 -18.812   7.512  0.00  0.00    -0.503 OA
ATOM     10  H   LIG    1       31.958 -18.532   8.439  0.00  0.00    +0.292 HD
ENDBRANCH   4   9
BRANCH   1  11
ATOM     11  C   LIG    1       26.683 -20.528   6.159  0.00  0.00    +0.195 C 
BRANCH  11  12
ATOM     12  O   LIG    1       26.252 -19.915   4.938  0.00  0.00    -0.375 OA
BRANCH  12  13
ATOM     13  C   LIG    1       24.998 -20.435   4.497  0.00  0.00    +0.160 C 
BRANCH  13  14
ATOM     14  C   LIG    1       24.225 -20.959   5.707  0.00  0.00    +0.028 C 
BRANCH  14  16
ATOM     15  C   LIG    1       22.588 -19.295   4.739  0.00  0.00    +0.004 C 
ATOM     16  C   LIG    1       22.928 -20.181   5.928  0.00  0.00    -0.001 C 
ENDBRANCH  14  16
ENDBRANCH  13  14
ENDBRANCH  12  13
ENDBRANCH  11  12
ENDBRANCH   1  11
TORSDOF 7
ENDMDL
MODEL 4
REMARK VINA RESULT:      -6.8      1.281      2.401
REMARK  Name = *****
REMARK                            x       y       z     vdW  Elec       q    Type
REMARK                         _______ _______ _______ _____ _____    ______ ____
ROOT
ATOM      1  C   LIG    1       28.272 -20.216   6.751  0.00  0.00    -0.018 A 
ATOM      2  C   LIG    1       29.010 -20.689   7.852  0.00  0.00    +0.055 A 
ATOM      3  C   LIG    1       30.283 -20.177   8.163  0.00  0.00    +0.162 A 
ATOM      4  C   LIG    1       30.826 -19.190   7.339  0.00  0.00    +0.159 A 
ATOM      5  C   LIG    1       30.122 -18.738   6.218  0.00  0.00    +0.049 A 
ATOM      6  C   LIG    1       28.858 -19.256   5.924  0.00  0.00    +0.010 A 
ENDROOT
BRANCH   3   7
ATOM      7  O   LIG    1       30.826 -20.738   9.291  0.00  0.00    -0.491 OA
ATOM      8  C   LIG    1       31.233 -22.098   9.231  0.00  0.00    +0.277 C 
ENDBRANCH   3   7
BRANCH   4   9
ATOM      9  O   LIG    1       32.051 -18.631   7.591  0.00  0.00    -0.503 OA
ATOM     10  H   LIG    1       32.549 -18.582   6.762  0.00  0.00    +0.292 HD
ENDBRANCH   4   9
BRANCH   1  11
ATOM     11  C   LIG    1       26.901 -20.780   6.454  0.00  0.00    +0.195 C 
BRANCH  11  12
ATOM     12  O   LIG    1       26.745 -22.069   7.058  0.00  0.00    -0.375 OA
BRANCH  12  13
ATOM     13  C   LIG    1       25.492 -22.192   7.732  0.00  0.00    +0.160 C 
BRANCH  13  14
ATOM     14  C   LIG    1       24.725 -20.878   7.595  0.00  0.00    +0.028 C 
BRANCH  14  16
ATOM     15  C   LIG    1       22.978 -20.249   5.880  0.00  0.00    +0.004 C 
ATOM     16  C   LIG    1       23.299 -21.108   7.094  0.00  0.00    -0.001 C 
ENDBRANCH  14  16
ENDBRANCH  13  14
ENDBRANCH  12  13
ENDBRANCH  11  12
ENDBRANCH   1  11
TORSDOF 7
ENDMDL
MODEL 5
REMARK VINA RESULT:      -6.8      0.776      1.234
REMARK  Name = *****
REMARK                            x       y       z     vdW  Elec       q    Type
REMARK                         _______ _______ _______ _____ _____    ______ ____
ROOT
ATOM      1  C   LIG    1       29.015 -20.003   6.643  0.00  0.00    -0.018 A 
ATOM      2  C   LIG    1       30.027 -19.052   6.873  0.00  0.00    +0.055 A 
ATOM      3  C   LIG    1       31.076 -19.294   7.779  0.00  0.00    +0.162 A 
ATOM      4  C   LIG    1       31.091 -20.504   8.477  0.00  0.00    +0.159 A 
ATOM      5  C   LIG    1       30.070 -21.441   8.289  0.00  0.00    +0.049 A 
ATOM      6  C   LIG    1       29.037 -21.185   7.384  0.00  0.00    +0.010 A 
ENDROOT
BRANCH   3   7
ATOM      7  O   LIG    1       31.981 -18.266   7.838  0.00  0.00    -0.491 OA
ATOM      8  C   LIG    1       31.925 -17.390   8.955  0.00  0.00    +0.277 C 
ENDBRANCH   3   7
BRANCH   4   9
ATOM      9  O   LIG    1       32.091 -20.817   9.359  0.00  0.00    -0.503 OA
ATOM     10  H   LIG    1       32.367 -21.733   9.207  0.00  0.00    +0.292 HD
ENDBRANCH   4   9
BRANCH   1  11
ATOM     11  C   LIG    1       27.909 -19.714   5.653  0.00  0.00    +0.195 C 
BRANCH  11  12
ATOM     12  O   LIG    1       26.695 -20.361   6.052  0.00  0.00    -0.375 OA
BRANCH  12  13
ATOM     13  C   LIG    1       25.712 -20.330   5.016  0.00  0.00    +0.160 C 
BRANCH  13  14
ATOM     14  C   LIG    1       24.326 -20.462   5.644  0.00  0.00    +0.028 C 
BRANCH  14  16
ATOM     15  C   LIG    1       23.848 -22.217   7.399  0.00  0.00    +0.004 C 
ATOM     16  C   LIG    1       24.410 -20.830   7.125  0.00  0.00    -0.001 C 
ENDBRANCH  14  16
ENDBRANCH  13  14
ENDBRANCH  12  13
ENDBRANCH  11  12
ENDBRANCH   1  11
TORSDOF 7
ENDMDL
MODEL 6
REMARK VINA RESULT:      -6.6      1.364      2.552
REMARK  Name = *****
REMARK                            x       y       z     vdW  Elec       q    Type
REMARK                         _______ _______ _______ _____ _____    ______ ____
ROOT
ATOM      1  C   LIG    1       28.168 -20.356   6.954  0.00  0.00    -0.018 A 
ATOM      2  C   LIG    1       29.003 -20.791   8.000  0.00  0.00    +0.055 A 
ATOM      3  C   LIG    1       30.290 -20.254   8.189  0.00  0.00    +0.162 A 
ATOM      4  C   LIG    1       30.746 -19.280   7.299  0.00  0.00    +0.159 A 
ATOM      5  C   LIG    1       29.943 -18.867   6.231  0.00  0.00    +0.049 A 
ATOM      6  C   LIG    1       28.668 -19.409   6.058  0.00  0.00    +0.010 A 
ENDROOT
BRANCH   3   7
ATOM      7  O   LIG    1       30.934 -20.779   9.280  0.00  0.00    -0.491 OA
ATOM      8  C   LIG    1       31.350 -22.136   9.222  0.00  0.00    +0.277 C 
ENDBRANCH   3   7
BRANCH   4   9
ATOM      9  O   LIG    1       31.978 -18.698   7.434  0.00  0.00    -0.503 OA
ATOM     10  H   LIG    1       31.934 -18.028   8.132  0.00  0.00    +0.292 HD
ENDBRANCH   4   9
BRANCH   1  11
ATOM     11  C   LIG    1       26.786 -20.947   6.787  0.00  0.00    +0.195 C 
BRANCH  11  12
ATOM     12  O   LIG    1       26.121 -20.360   5.662  0.00  0.00    -0.375 OA
BRANCH  12  13
ATOM     13  C   LIG    1       24.726 -20.665   5.653  0.00  0.00    +0.160 C 
BRANCH  13  14
ATOM     14  C   LIG    1       24.255 -20.881   7.091  0.00  0.00    +0.028 C 
BRANCH  14  16
ATOM     15  C   LIG    1       23.652 -23.316   6.783  0.00  0.00    +0.004 C 
ATOM     16  C   LIG    1       23.149 -21.933   7.169  0.00  0.00    -0.001 C 
ENDBRANCH  14  16
ENDBRANCH  13  14
ENDBRANCH  12  13
ENDBRANCH  11  12
ENDBRANCH   1  11
TORSDOF 7
ENDMDL
MODEL 7
REMARK VINA RESULT:      -6.5      1.948      6.541
REMARK  Name = *****
REMARK                            x       y       z     vdW  Elec       q    Type
REMARK                         _______ _______ _______ _____ _____    ______ ____
ROOT
ATOM      1  C   LIG    1       27.471 -20.278   6.785  0.00  0.00    -0.018 A 
ATOM      2  C   LIG    1       26.495 -20.431   5.783  0.00  0.00    +0.055 A 
ATOM      3  C   LIG    1       25.153 -20.710   6.096  0.00  0.00    +0.162 A 
ATOM      4  C   LIG    1       24.795 -20.856   7.438  0.00  0.00    +0.159 A 
ATOM      5  C   LIG    1       25.762 -20.747   8.443  0.00  0.00    +0.049 A 
ATOM      6  C   LIG    1       27.091 -20.469   8.115  0.00  0.00    +0.010 A 
ENDROOT
BRANCH   3   7
ATOM      7  O   LIG    1       24.348 -20.787   4.989  0.00  0.00    -0.491 OA
ATOM      8  C   LIG    1       24.745 -20.077   3.824  0.00  0.00    +0.277 C 
ENDBRANCH   3   7
BRANCH   4   9
ATOM      9  O   LIG    1       23.504 -21.108   7.819  0.00  0.00    -0.503 OA
ATOM     10  H   LIG    1       22.903 -20.666   7.201  0.00  0.00    +0.292 HD
ENDBRANCH   4   9
BRANCH   1  11
ATOM     11  C   LIG    1       28.903 -19.968   6.413  0.00  0.00    +0.195 C 
BRANCH  11  12
ATOM     12  O   LIG    1       29.488 -19.070   7.364  0.00  0.00    -0.375 OA
BRANCH  12  13
ATOM     13  C   LIG    1       30.851 -19.397   7.634  0.00  0.00    +0.160 C 
BRANCH  13  14
ATOM     14  C   LIG    1       31.407 -18.405   8.654  0.00  0.00    +0.028 C 
BRANCH  14  16
ATOM     15  C   LIG    1       30.343 -17.467  10.746  0.00  0.00    +0.004 C 
ATOM     16  C   LIG    1       30.308 -17.510   9.226  0.00  0.00    -0.001 C 
ENDBRANCH  14  16
ENDBRANCH  13  14
ENDBRANCH  12  13
ENDBRANCH  11  12
ENDBRANCH   1  11
TORSDOF 7
ENDMDL
MODEL 8
REMARK VINA RESULT:      -6.5      2.480      6.945
REMARK  Name = *****
REMARK                            x       y       z     vdW  Elec       q    Type
REMARK                         _______ _______ _______ _____ _____    ______ ____
ROOT
ATOM      1  C   LIG    1       25.894 -21.532   7.470  0.00  0.00    -0.018 A 
ATOM      2  C   LIG    1       24.673 -21.034   6.979  0.00  0.00    +0.055 A 
ATOM      3  C   LIG    1       23.631 -21.891   6.580  0.00  0.00    +0.162 A 
ATOM      4  C   LIG    1       23.833 -23.271   6.660  0.00  0.00    +0.159 A 
ATOM      5  C   LIG    1       25.056 -23.782   7.107  0.00  0.00    +0.049 A 
ATOM      6  C   LIG    1       26.079 -22.916   7.500  0.00  0.00    +0.010 A 
ENDROOT
BRANCH   3   7
ATOM      7  O   LIG    1       22.511 -21.218   6.166  0.00  0.00    -0.491 OA
ATOM      8  C   LIG    1       22.597 -20.446   4.976  0.00  0.00    +0.277 C 
ENDBRANCH   3   7
BRANCH   4   9
ATOM      9  O   LIG    1       22.858 -24.166   6.309  0.00  0.00    -0.503 OA
ATOM     10  H   LIG    1       22.200 -24.206   7.019  0.00  0.00    +0.292 HD
ENDBRANCH   4   9
BRANCH   1  11
ATOM     11  C   LIG    1       26.987 -20.581   7.900  0.00  0.00    +0.195 C 
BRANCH  11  12
ATOM     12  O   LIG    1       28.113 -21.305   8.409  0.00  0.00    -0.375 OA
BRANCH  12  13
ATOM     13  C   LIG    1       29.321 -20.950   7.736  0.00  0.00    +0.160 C 
BRANCH  13  14
ATOM     14  C   LIG    1       28.985 -20.022   6.570  0.00  0.00    +0.028 C 
BRANCH  14  16
ATOM     15  C   LIG    1       31.258 -19.178   7.288  0.00  0.00    +0.004 C 
ATOM     16  C   LIG    1       30.070 -18.965   6.361  0.00  0.00    -0.001 C 
ENDBRANCH  14  16
ENDBRANCH  13  14
ENDBRANCH  12  13
ENDBRANCH  11  12
ENDBRANCH   1  11
TORSDOF 7
ENDMDL
MODEL 9
REMARK VINA RESULT:      -6.5      2.478      6.587
REMARK  Name = *****
REMARK                            x       y       z     vdW  Elec       q    Type
REMARK                         _______ _______ _______ _____ _____    ______ ____
ROOT
ATOM      1  C   LIG    1       25.590 -20.732   7.350  0.00  0.00    -0.018 A 
ATOM      2  C   LIG    1       25.637 -20.520   5.959  0.00  0.00    +0.055 A 
ATOM      3  C   LIG    1       24.529 -20.786   5.134  0.00  0.00    +0.162 A 
ATOM      4  C   LIG    1       23.366 -21.292   5.718  0.00  0.00    +0.159 A 
ATOM      5  C   LIG    1       23.318 -21.545   7.093  0.00  0.00    +0.049 A 
ATOM      6  C   LIG    1       24.426 -21.274   7.898  0.00  0.00    +0.010 A 
ENDROOT
BRANCH   3   7
ATOM      7  O   LIG    1       24.757 -20.484   3.816  0.00  0.00    -0.491 OA
ATOM      8  C   LIG    1       25.049 -19.134   3.481  0.00  0.00    +0.277 C 
ENDBRANCH   3   7
BRANCH   4   9
ATOM      9  O   LIG    1       22.242 -21.555   4.981  0.00  0.00    -0.503 OA
ATOM     10  H   LIG    1       21.752 -20.730   4.851  0.00  0.00    +0.292 HD
ENDBRANCH   4   9
BRANCH   1  11
ATOM     11  C   LIG    1       26.796 -20.423   8.208  0.00  0.00    +0.195 C 
BRANCH  11  12
ATOM     12  O   LIG    1       27.676 -21.552   8.264  0.00  0.00    -0.375 OA
BRANCH  12  13
ATOM     13  C   LIG    1       28.973 -21.240   7.754  0.00  0.00    +0.160 C 
BRANCH  13  14
ATOM     14  C   LIG    1       29.150 -19.722   7.745  0.00  0.00    +0.028 C 
BRANCH  14  16
ATOM     15  C   LIG    1       29.290 -18.443   5.569  0.00  0.00    +0.004 C 
ATOM     16  C   LIG    1       30.051 -19.267   6.596  0.00  0.00    -0.001 C 
ENDBRANCH  14  16
ENDBRANCH  13  14
ENDBRANCH  12  13
ENDBRANCH  11  12
ENDBRANCH   1  11
TORSDOF 7
ENDMDL
