MODEL 1
REMARK VINA RESULT:      -8.3      0.000      0.000
REMARK  Name = *****
REMARK                            x       y       z     vdW  Elec       q    Type
REMARK                         _______ _______ _______ _____ _____    ______ ____
ROOT
ATOM      1  C   LIG    1       28.869 -20.332   7.262  0.00  0.00    -0.024 A 
ATOM      2  C   LIG    1       28.823 -19.632   6.046  0.00  0.00    +0.044 A 
ATOM      3 CL   LIG    1       30.203 -18.811   5.405  0.00  0.00    -0.083 Cl
ATOM      4  C   LIG    1       27.641 -19.571   5.308  0.00  0.00    +0.020 A 
ATOM      5  C   LIG    1       26.491 -20.224   5.759  0.00  0.00    +0.008 A 
ATOM      6  C   LIG    1       26.491 -20.943   6.963  0.00  0.00    -0.016 A 
ATOM      7  C   LIG    1       27.682 -20.949   7.710  0.00  0.00    +0.011 A 
ENDROOT
BRANCH   6   8
ATOM      8  C   LIG    1       25.231 -21.571   7.557  0.00  0.00    +0.180 C 
ATOM      9  C   LIG    1       23.874 -21.277   6.874  0.00  0.00    +0.179 C 
ATOM     10  C   LIG    1       23.587 -22.257   5.734  0.00  0.00    +0.177 C 
ATOM     11  C   LIG    1       23.649 -23.693   6.254  0.00  0.00    +0.176 C 
ATOM     12  C   LIG    1       24.944 -23.989   7.032  0.00  0.00    +0.175 C 
ATOM     13  O   LIG    1       25.383 -22.954   7.931  0.00  0.00    -0.361 OA
BRANCH   9  14
ATOM     14  O   LIG    1       22.812 -21.390   7.850  0.00  0.00    -0.386 OA
ATOM     15  H   LIG    1       22.171 -22.036   7.500  0.00  0.00    +0.210 HD
ENDBRANCH   9  14
BRANCH  10  16
ATOM     16  O   LIG    1       24.485 -22.059   4.646  0.00  0.00    -0.387 OA
ATOM     17  H   LIG    1       25.295 -21.652   5.006  0.00  0.00    +0.210 HD
ENDBRANCH  10  16
BRANCH  11  18
ATOM     18  O   LIG    1       22.514 -23.946   7.097  0.00  0.00    -0.387 OA
ATOM     19  H   LIG    1       22.045 -24.721   6.718  0.00  0.00    +0.210 HD
ENDBRANCH  11  18
BRANCH  12  20
ATOM     20  C   LIG    1       26.087 -24.449   6.115  0.00  0.00    +0.190 C 
BRANCH  20  21
ATOM     21  O   LIG    1       25.565 -24.984   4.896  0.00  0.00    -0.392 OA
ATOM     22  H   LIG    1       25.821 -24.363   4.187  0.00  0.00    +0.209 HD
ENDBRANCH  20  21
ENDBRANCH  12  20
ENDBRANCH   6   8
BRANCH   1  23
ATOM     23  C   LIG    1       30.165 -20.436   8.049  0.00  0.00    +0.071 C 
BRANCH  23  27
ATOM     24  C   LIG    1       31.590 -16.925  10.159  0.00  0.00    +0.120 A 
ATOM     25  C   LIG    1       30.384 -17.531  10.537  0.00  0.00    +0.046 A 
ATOM     26  C   LIG    1       29.908 -18.654   9.847  0.00  0.00    +0.007 A 
ATOM     27  C   LIG    1       30.625 -19.186   8.772  0.00  0.00    -0.043 A 
ATOM     28  C   LIG    1       31.825 -18.562   8.391  0.00  0.00    +0.007 A 
ATOM     29  C   LIG    1       32.282 -17.424   9.064  0.00  0.00    +0.046 A 
BRANCH  24  30
ATOM     30  O   LIG    1       31.987 -15.865  10.936  0.00  0.00    -0.492 OA
BRANCH  30  32
ATOM     31  C   LIG    1       32.303 -15.865  13.323  0.00  0.00    +0.048 C 
ATOM     32  C   LIG    1       32.925 -16.180  11.972  0.00  0.00    +0.226 C 
ENDBRANCH  30  32
ENDBRANCH  24  30
ENDBRANCH  23  27
ENDBRANCH   1  23
TORSDOF 10
ENDMDL
MODEL 2
REMARK VINA RESULT:      -8.2      1.553      2.139
REMARK  Name = *****
REMARK                            x       y       z     vdW  Elec       q    Type
REMARK                         _______ _______ _______ _____ _____    ______ ____
ROOT
ATOM      1  C   LIG    1       27.949 -20.325   7.210  0.00  0.00    -0.024 A 
ATOM      2  C   LIG    1       28.292 -21.413   8.029  0.00  0.00    +0.044 A 
ATOM      3 CL   LIG    1       29.934 -21.791   8.415  0.00  0.00    -0.083 Cl
ATOM      4  C   LIG    1       27.303 -22.237   8.564  0.00  0.00    +0.020 A 
ATOM      5  C   LIG    1       25.953 -21.980   8.307  0.00  0.00    +0.008 A 
ATOM      6  C   LIG    1       25.561 -20.902   7.500  0.00  0.00    -0.016 A 
ATOM      7  C   LIG    1       26.581 -20.115   6.937  0.00  0.00    +0.011 A 
ENDROOT
BRANCH   6   8
ATOM      8  C   LIG    1       24.110 -20.653   7.093  0.00  0.00    +0.180 C 
ATOM      9  C   LIG    1       23.826 -20.177   5.649  0.00  0.00    +0.179 C 
ATOM     10  C   LIG    1       23.689 -21.353   4.678  0.00  0.00    +0.177 C 
ATOM     11  C   LIG    1       22.606 -22.311   5.173  0.00  0.00    +0.176 C 
ATOM     12  C   LIG    1       22.799 -22.723   6.643  0.00  0.00    +0.175 C 
ATOM     13  O   LIG    1       23.190 -21.667   7.541  0.00  0.00    -0.361 OA
BRANCH   9  14
ATOM     14  O   LIG    1       22.592 -19.422   5.626  0.00  0.00    -0.386 OA
ATOM     15  H   LIG    1       22.373 -19.206   6.552  0.00  0.00    +0.210 HD
ENDBRANCH   9  14
BRANCH  10  16
ATOM     16  O   LIG    1       24.934 -22.023   4.502  0.00  0.00    -0.387 OA
ATOM     17  H   LIG    1       25.059 -22.612   5.269  0.00  0.00    +0.210 HD
ENDBRANCH  10  16
BRANCH  11  18
ATOM     18  O   LIG    1       21.315 -21.700   5.011  0.00  0.00    -0.387 OA
ATOM     19  H   LIG    1       21.346 -20.840   5.485  0.00  0.00    +0.210 HD
ENDBRANCH  11  18
BRANCH  12  20
ATOM     20  C   LIG    1       23.715 -23.947   6.795  0.00  0.00    +0.190 C 
BRANCH  20  21
ATOM     21  O   LIG    1       23.709 -24.726   5.595  0.00  0.00    -0.392 OA
ATOM     22  H   LIG    1       24.635 -24.988   5.428  0.00  0.00    +0.209 HD
ENDBRANCH  20  21
ENDBRANCH  12  20
ENDBRANCH   6   8
BRANCH   1  23
ATOM     23  C   LIG    1       29.021 -19.400   6.660  0.00  0.00    +0.071 C 
BRANCH  23  27
ATOM     24  C   LIG    1       31.764 -17.722   9.570  0.00  0.00    +0.120 A 
ATOM     25  C   LIG    1       30.382 -17.663   9.793  0.00  0.00    +0.046 A 
ATOM     26  C   LIG    1       29.489 -18.187   8.848  0.00  0.00    +0.007 A 
ATOM     27  C   LIG    1       29.962 -18.771   7.670  0.00  0.00    -0.043 A 
ATOM     28  C   LIG    1       31.349 -18.811   7.449  0.00  0.00    +0.007 A 
ATOM     29  C   LIG    1       32.235 -18.262   8.381  0.00  0.00    +0.046 A 
BRANCH  24  30
ATOM     30  O   LIG    1       32.547 -17.229  10.585  0.00  0.00    -0.492 OA
BRANCH  30  32
ATOM     31  C   LIG    1       32.837 -16.298  12.787  0.00  0.00    +0.048 C 
ATOM     32  C   LIG    1       31.840 -16.796  11.753  0.00  0.00    +0.226 C 
ENDBRANCH  30  32
ENDBRANCH  24  30
ENDBRANCH  23  27
ENDBRANCH   1  23
TORSDOF 10
ENDMDL
MODEL 3
REMARK VINA RESULT:      -8.0      6.040      9.517
REMARK  Name = *****
REMARK                            x       y       z     vdW  Elec       q    Type
REMARK                         _______ _______ _______ _____ _____    ______ ____
ROOT
ATOM      1  C   LIG    1       25.484 -27.301   6.602  0.00  0.00    -0.024 A 
ATOM      2  C   LIG    1       25.286 -27.718   5.275  0.00  0.00    +0.044 A 
ATOM      3 CL   LIG    1       25.750 -26.743   3.926  0.00  0.00    -0.083 Cl
ATOM      4  C   LIG    1       24.697 -28.952   5.002  0.00  0.00    +0.020 A 
ATOM      5  C   LIG    1       24.312 -29.800   6.044  0.00  0.00    +0.008 A 
ATOM      6  C   LIG    1       24.496 -29.429   7.384  0.00  0.00    -0.016 A 
ATOM      7  C   LIG    1       25.049 -28.161   7.632  0.00  0.00    +0.011 A 
ENDROOT
BRANCH   6   8
ATOM      8  C   LIG    1       23.983 -30.266   8.556  0.00  0.00    +0.180 C 
ATOM      9  C   LIG    1       24.079 -31.806   8.454  0.00  0.00    +0.179 C 
ATOM     10  C   LIG    1       25.437 -32.325   8.934  0.00  0.00    +0.177 C 
ATOM     11  C   LIG    1       25.703 -31.843  10.360  0.00  0.00    +0.176 C 
ATOM     12  C   LIG    1       25.512 -30.324  10.522  0.00  0.00    +0.175 C 
ATOM     13  O   LIG    1       24.369 -29.763   9.850  0.00  0.00    -0.361 OA
BRANCH   9  14
ATOM     14  O   LIG    1       23.047 -32.406   9.272  0.00  0.00    -0.386 OA
ATOM     15  H   LIG    1       22.323 -32.666   8.672  0.00  0.00    +0.210 HD
ENDBRANCH   9  14
BRANCH  10  16
ATOM     16  O   LIG    1       26.481 -31.930   8.049  0.00  0.00    -0.387 OA
ATOM     17  H   LIG    1       26.149 -31.181   7.521  0.00  0.00    +0.210 HD
ENDBRANCH  10  16
BRANCH  11  18
ATOM     18  O   LIG    1       24.832 -32.535  11.270  0.00  0.00    -0.387 OA
ATOM     19  H   LIG    1       25.370 -32.771  12.056  0.00  0.00    +0.210 HD
ENDBRANCH  11  18
BRANCH  12  20
ATOM     20  C   LIG    1       26.789 -29.534  10.196  0.00  0.00    +0.190 C 
BRANCH  20  21
ATOM     21  O   LIG    1       27.946 -30.347  10.412  0.00  0.00    -0.392 OA
ATOM     22  H   LIG    1       28.721 -29.763  10.299  0.00  0.00    +0.209 HD
ENDBRANCH  20  21
ENDBRANCH  12  20
ENDBRANCH   6   8
BRANCH   1  23
ATOM     23  C   LIG    1       26.163 -25.976   6.905  0.00  0.00    +0.071 C 
BRANCH  23  27
ATOM     24  C   LIG    1       23.626 -22.463   6.743  0.00  0.00    +0.120 A 
ATOM     25  C   LIG    1       24.982 -22.335   7.072  0.00  0.00    +0.046 A 
ATOM     26  C   LIG    1       25.803 -23.468   7.145  0.00  0.00    +0.007 A 
ATOM     27  C   LIG    1       25.284 -24.741   6.894  0.00  0.00    -0.043 A 
ATOM     28  C   LIG    1       23.920 -24.860   6.579  0.00  0.00    +0.007 A 
ATOM     29  C   LIG    1       23.097 -23.729   6.536  0.00  0.00    +0.046 A 
BRANCH  24  30
ATOM     30  O   LIG    1       22.928 -21.284   6.648  0.00  0.00    -0.492 OA
BRANCH  30  32
ATOM     31  C   LIG    1       22.537 -19.439   5.150  0.00  0.00    +0.048 C 
ATOM     32  C   LIG    1       22.467 -20.947   5.334  0.00  0.00    +0.226 C 
ENDBRANCH  30  32
ENDBRANCH  24  30
ENDBRANCH  23  27
ENDBRANCH   1  23
TORSDOF 10
ENDMDL
MODEL 4
REMARK VINA RESULT:      -7.9      6.242      9.615
REMARK  Name = *****
REMARK                            x       y       z     vdW  Elec       q    Type
REMARK                         _______ _______ _______ _____ _____    ______ ____
ROOT
ATOM      1  C   LIG    1       25.800 -27.696   7.328  0.00  0.00    -0.024 A 
ATOM      2  C   LIG    1       24.886 -28.724   7.046  0.00  0.00    +0.044 A 
ATOM      3 CL   LIG    1       23.958 -28.755   5.588  0.00  0.00    -0.083 Cl
ATOM      4  C   LIG    1       24.692 -29.768   7.950  0.00  0.00    +0.020 A 
ATOM      5  C   LIG    1       25.420 -29.815   9.142  0.00  0.00    +0.008 A 
ATOM      6  C   LIG    1       26.349 -28.816   9.464  0.00  0.00    -0.016 A 
ATOM      7  C   LIG    1       26.491 -27.752   8.557  0.00  0.00    +0.011 A 
ENDROOT
BRANCH   6   8
ATOM      8  C   LIG    1       27.079 -28.760  10.806  0.00  0.00    +0.180 C 
ATOM      9  C   LIG    1       26.603 -27.729  11.856  0.00  0.00    +0.179 C 
ATOM     10  C   LIG    1       25.467 -28.280  12.721  0.00  0.00    +0.177 C 
ATOM     11  C   LIG    1       25.905 -29.587  13.382  0.00  0.00    +0.176 C 
ATOM     12  C   LIG    1       26.483 -30.599  12.377  0.00  0.00    +0.175 C 
ATOM     13  O   LIG    1       27.363 -30.052  11.376  0.00  0.00    -0.361 OA
BRANCH   9  14
ATOM     14  O   LIG    1       27.709 -27.382  12.722  0.00  0.00    -0.386 OA
ATOM     15  H   LIG    1       28.316 -26.824  12.200  0.00  0.00    +0.210 HD
ENDBRANCH   9  14
BRANCH  10  16
ATOM     16  O   LIG    1       24.277 -28.456  11.958  0.00  0.00    -0.387 OA
ATOM     17  H   LIG    1       23.887 -29.311  12.220  0.00  0.00    +0.210 HD
ENDBRANCH  10  16
BRANCH  11  18
ATOM     18  O   LIG    1       26.882 -29.307  14.397  0.00  0.00    -0.387 OA
ATOM     19  H   LIG    1       27.404 -28.535  14.086  0.00  0.00    +0.210 HD
ENDBRANCH  11  18
BRANCH  12  20
ATOM     20  C   LIG    1       25.397 -31.479  11.740  0.00  0.00    +0.190 C 
BRANCH  20  21
ATOM     21  O   LIG    1       24.199 -31.435  12.519  0.00  0.00    -0.392 OA
ATOM     22  H   LIG    1       24.394 -30.879  13.297  0.00  0.00    +0.209 HD
ENDBRANCH  20  21
ENDBRANCH  12  20
ENDBRANCH   6   8
BRANCH   1  23
ATOM     23  C   LIG    1       26.046 -26.580   6.327  0.00  0.00    +0.071 C 
BRANCH  23  27
ATOM     24  C   LIG    1       23.896 -22.890   7.083  0.00  0.00    +0.120 A 
ATOM     25  C   LIG    1       23.208 -24.024   6.630  0.00  0.00    +0.046 A 
ATOM     26  C   LIG    1       23.899 -25.214   6.366  0.00  0.00    +0.007 A 
ATOM     27  C   LIG    1       25.283 -25.289   6.546  0.00  0.00    -0.043 A 
ATOM     28  C   LIG    1       25.966 -24.142   6.985  0.00  0.00    +0.007 A 
ATOM     29  C   LIG    1       25.276 -22.948   7.220  0.00  0.00    +0.046 A 
BRANCH  24  30
ATOM     30  O   LIG    1       23.114 -21.796   7.361  0.00  0.00    -0.492 OA
BRANCH  30  32
ATOM     31  C   LIG    1       22.672 -20.527   5.363  0.00  0.00    +0.048 C 
ATOM     32  C   LIG    1       23.462 -20.597   6.660  0.00  0.00    +0.226 C 
ENDBRANCH  30  32
ENDBRANCH  24  30
ENDBRANCH  23  27
ENDBRANCH   1  23
TORSDOF 10
ENDMDL
MODEL 5
REMARK VINA RESULT:      -7.8      3.532      8.992
REMARK  Name = *****
REMARK                            x       y       z     vdW  Elec       q    Type
REMARK                         _______ _______ _______ _____ _____    ______ ____
ROOT
ATOM      1  C   LIG    1       25.488 -21.997   6.349  0.00  0.00    -0.024 A 
ATOM      2  C   LIG    1       24.867 -21.488   7.502  0.00  0.00    +0.044 A 
ATOM      3 CL   LIG    1       23.258 -21.932   7.951  0.00  0.00    -0.083 Cl
ATOM      4  C   LIG    1       25.539 -20.591   8.331  0.00  0.00    +0.020 A 
ATOM      5  C   LIG    1       26.848 -20.200   8.037  0.00  0.00    +0.008 A 
ATOM      6  C   LIG    1       27.512 -20.687   6.901  0.00  0.00    -0.016 A 
ATOM      7  C   LIG    1       26.795 -21.553   6.058  0.00  0.00    +0.011 A 
ENDROOT
BRANCH   6   8
ATOM      8  C   LIG    1       28.895 -20.198   6.473  0.00  0.00    +0.180 C 
ATOM      9  C   LIG    1       29.276 -18.728   6.765  0.00  0.00    +0.179 C 
ATOM     10  C   LIG    1       29.868 -18.561   8.166  0.00  0.00    +0.177 C 
ATOM     11  C   LIG    1       31.069 -19.492   8.337  0.00  0.00    +0.176 C 
ATOM     12  C   LIG    1       30.753 -20.948   7.952  0.00  0.00    +0.175 C 
ATOM     13  O   LIG    1       29.961 -21.123   6.762  0.00  0.00    -0.361 OA
BRANCH   9  14
ATOM     14  O   LIG    1       30.258 -18.286   5.799  0.00  0.00    -0.386 OA
ATOM     15  H   LIG    1       29.782 -18.121   4.964  0.00  0.00    +0.210 HD
ENDBRANCH   9  14
BRANCH  10  16
ATOM     16  O   LIG    1       28.886 -18.790   9.172  0.00  0.00    -0.387 OA
ATOM     17  H   LIG    1       29.268 -19.416   9.816  0.00  0.00    +0.210 HD
ENDBRANCH  10  16
BRANCH  11  18
ATOM     18  O   LIG    1       32.164 -19.012   7.541  0.00  0.00    -0.387 OA
ATOM     19  H   LIG    1       32.375 -19.717   6.892  0.00  0.00    +0.210 HD
ENDBRANCH  11  18
BRANCH  12  20
ATOM     20  C   LIG    1       30.174 -21.753   9.126  0.00  0.00    +0.190 C 
BRANCH  20  21
ATOM     21  O   LIG    1       31.148 -21.891  10.165  0.00  0.00    -0.392 OA
ATOM     22  H   LIG    1       32.023 -21.838   9.734  0.00  0.00    +0.209 HD
ENDBRANCH  20  21
ENDBRANCH  12  20
ENDBRANCH   6   8
BRANCH   1  23
ATOM     23  C   LIG    1       24.775 -23.007   5.466  0.00  0.00    +0.071 C 
BRANCH  23  27
ATOM     24  C   LIG    1       25.259 -27.184   6.527  0.00  0.00    +0.120 A 
ATOM     25  C   LIG    1       24.187 -26.784   5.718  0.00  0.00    +0.046 A 
ATOM     26  C   LIG    1       24.013 -25.434   5.387  0.00  0.00    +0.007 A 
ATOM     27  C   LIG    1       24.903 -24.466   5.859  0.00  0.00    -0.043 A 
ATOM     28  C   LIG    1       25.966 -24.875   6.682  0.00  0.00    +0.007 A 
ATOM     29  C   LIG    1       26.119 -26.220   7.034  0.00  0.00    +0.046 A 
BRANCH  24  30
ATOM     30  O   LIG    1       25.364 -28.536   6.743  0.00  0.00    -0.492 OA
BRANCH  30  32
ATOM     31  C   LIG    1       25.451 -30.514   5.372  0.00  0.00    +0.048 C 
ATOM     32  C   LIG    1       24.591 -29.361   5.865  0.00  0.00    +0.226 C 
ENDBRANCH  30  32
ENDBRANCH  24  30
ENDBRANCH  23  27
ENDBRANCH   1  23
TORSDOF 10
ENDMDL
MODEL 6
REMARK VINA RESULT:      -7.2      5.944      9.308
REMARK  Name = *****
REMARK                            x       y       z     vdW  Elec       q    Type
REMARK                         _______ _______ _______ _____ _____    ______ ____
ROOT
ATOM      1  C   LIG    1       25.614 -26.685   6.561  0.00  0.00    -0.024 A 
ATOM      2  C   LIG    1       25.139 -26.902   5.257  0.00  0.00    +0.044 A 
ATOM      3 CL   LIG    1       25.131 -25.653   4.062  0.00  0.00    -0.083 Cl
ATOM      4  C   LIG    1       24.647 -28.151   4.881  0.00  0.00    +0.020 A 
ATOM      5  C   LIG    1       24.638 -29.212   5.791  0.00  0.00    +0.008 A 
ATOM      6  C   LIG    1       25.109 -29.045   7.102  0.00  0.00    -0.016 A 
ATOM      7  C   LIG    1       25.556 -27.764   7.468  0.00  0.00    +0.011 A 
ENDROOT
BRANCH   6   8
ATOM      8  C   LIG    1       25.008 -30.137   8.166  0.00  0.00    +0.180 C 
ATOM      9  C   LIG    1       23.661 -30.878   8.332  0.00  0.00    +0.179 C 
ATOM     10  C   LIG    1       23.546 -32.070   7.380  0.00  0.00    +0.177 C 
ATOM     11  C   LIG    1       24.729 -33.016   7.586  0.00  0.00    +0.176 C 
ATOM     12  C   LIG    1       26.087 -32.291   7.533  0.00  0.00    +0.175 C 
ATOM     13  O   LIG    1       26.145 -31.022   8.210  0.00  0.00    -0.361 OA
BRANCH   9  14
ATOM     14  O   LIG    1       23.545 -31.365   9.689  0.00  0.00    -0.386 OA
ATOM     15  H   LIG    1       24.239 -30.921  10.212  0.00  0.00    +0.210 HD
ENDBRANCH   9  14
BRANCH  10  16
ATOM     16  O   LIG    1       23.453 -31.642   6.024  0.00  0.00    -0.387 OA
ATOM     17  H   LIG    1       22.719 -31.002   5.971  0.00  0.00    +0.210 HD
ENDBRANCH  10  16
BRANCH  11  18
ATOM     18  O   LIG    1       24.593 -33.686   8.849  0.00  0.00    -0.387 OA
ATOM     19  H   LIG    1       23.668 -34.013   8.900  0.00  0.00    +0.210 HD
ENDBRANCH  11  18
BRANCH  12  20
ATOM     20  C   LIG    1       26.638 -32.182   6.103  0.00  0.00    +0.190 C 
BRANCH  20  21
ATOM     21  O   LIG    1       25.997 -33.132   5.247  0.00  0.00    -0.392 OA
ATOM     22  H   LIG    1       25.607 -33.812   5.829  0.00  0.00    +0.209 HD
ENDBRANCH  20  21
ENDBRANCH  12  20
ENDBRANCH   6   8
BRANCH   1  23
ATOM     23  C   LIG    1       26.190 -25.338   6.962  0.00  0.00    +0.071 C 
BRANCH  23  27
ATOM     24  C   LIG    1       23.496 -21.964   6.542  0.00  0.00    +0.120 A 
ATOM     25  C   LIG    1       24.881 -21.756   6.597  0.00  0.00    +0.046 A 
ATOM     26  C   LIG    1       25.756 -22.839   6.751  0.00  0.00    +0.007 A 
ATOM     27  C   LIG    1       25.263 -24.142   6.857  0.00  0.00    -0.043 A 
ATOM     28  C   LIG    1       23.872 -24.340   6.817  0.00  0.00    +0.007 A 
ATOM     29  C   LIG    1       23.001 -23.253   6.691  0.00  0.00    +0.046 A 
BRANCH  24  30
ATOM     30  O   LIG    1       22.737 -20.840   6.335  0.00  0.00    -0.492 OA
BRANCH  30  32
ATOM     31  C   LIG    1       22.367 -19.049   4.768  0.00  0.00    +0.048 C 
ATOM     32  C   LIG    1       22.419 -20.555   4.968  0.00  0.00    +0.226 C 
ENDBRANCH  30  32
ENDBRANCH  24  30
ENDBRANCH  23  27
ENDBRANCH   1  23
TORSDOF 10
ENDMDL
MODEL 7
REMARK VINA RESULT:      -7.1      9.936     11.814
REMARK  Name = *****
REMARK                            x       y       z     vdW  Elec       q    Type
REMARK                         _______ _______ _______ _____ _____    ______ ____
ROOT
ATOM      1  C   LIG    1       24.972 -29.201  11.410  0.00  0.00    -0.024 A 
ATOM      2  C   LIG    1       26.260 -28.693  11.173  0.00  0.00    +0.044 A 
ATOM      3 CL   LIG    1       27.248 -28.064  12.445  0.00  0.00    -0.083 Cl
ATOM      4  C   LIG    1       26.789 -28.677   9.884  0.00  0.00    +0.020 A 
ATOM      5  C   LIG    1       26.053 -29.184   8.810  0.00  0.00    +0.008 A 
ATOM      6  C   LIG    1       24.766 -29.708   8.998  0.00  0.00    -0.016 A 
ATOM      7  C   LIG    1       24.238 -29.670  10.300  0.00  0.00    +0.011 A 
ENDROOT
BRANCH   6   8
ATOM      8  C   LIG    1       23.876 -30.163   7.842  0.00  0.00    +0.180 C 
ATOM      9  C   LIG    1       24.408 -29.999   6.399  0.00  0.00    +0.179 C 
ATOM     10  C   LIG    1       25.250 -31.201   5.963  0.00  0.00    +0.177 C 
ATOM     11  C   LIG    1       24.437 -32.487   6.114  0.00  0.00    +0.176 C 
ATOM     12  C   LIG    1       23.803 -32.630   7.509  0.00  0.00    +0.175 C 
ATOM     13  O   LIG    1       23.228 -31.431   8.061  0.00  0.00    -0.361 OA
BRANCH   9  14
ATOM     14  O   LIG    1       23.292 -29.870   5.487  0.00  0.00    -0.386 OA
ATOM     15  H   LIG    1       23.075 -30.768   5.174  0.00  0.00    +0.210 HD
ENDBRANCH   9  14
BRANCH  10  16
ATOM     16  O   LIG    1       26.470 -31.268   6.695  0.00  0.00    -0.387 OA
ATOM     17  H   LIG    1       27.200 -31.227   6.049  0.00  0.00    +0.210 HD
ENDBRANCH  10  16
BRANCH  11  18
ATOM     18  O   LIG    1       23.408 -32.523   5.113  0.00  0.00    -0.387 OA
ATOM     19  H   LIG    1       22.727 -33.157   5.427  0.00  0.00    +0.210 HD
ENDBRANCH  11  18
BRANCH  12  20
ATOM     20  C   LIG    1       24.747 -33.306   8.516  0.00  0.00    +0.190 C 
BRANCH  20  21
ATOM     21  O   LIG    1       24.234 -33.177   9.845  0.00  0.00    -0.392 OA
ATOM     22  H   LIG    1       23.427 -32.630   9.780  0.00  0.00    +0.209 HD
ENDBRANCH  20  21
ENDBRANCH  12  20
ENDBRANCH   6   8
BRANCH   1  23
ATOM     23  C   LIG    1       24.409 -29.260  12.819  0.00  0.00    +0.071 C 
BRANCH  23  27
ATOM     24  C   LIG    1       20.647 -27.180  13.400  0.00  0.00    +0.120 A 
ATOM     25  C   LIG    1       21.851 -26.462  13.377  0.00  0.00    +0.046 A 
ATOM     26  C   LIG    1       23.072 -27.130  13.209  0.00  0.00    +0.007 A 
ATOM     27  C   LIG    1       23.108 -28.519  13.065  0.00  0.00    -0.043 A 
ATOM     28  C   LIG    1       21.897 -29.231  13.104  0.00  0.00    +0.007 A 
ATOM     29  C   LIG    1       20.684 -28.564  13.301  0.00  0.00    +0.046 A 
BRANCH  24  30
ATOM     30  O   LIG    1       19.509 -26.421  13.516  0.00  0.00    -0.492 OA
BRANCH  30  32
ATOM     31  C   LIG    1       17.199 -26.317  14.189  0.00  0.00    +0.048 C 
ATOM     32  C   LIG    1       18.584 -26.850  14.521  0.00  0.00    +0.226 C 
ENDBRANCH  30  32
ENDBRANCH  24  30
ENDBRANCH  23  27
ENDBRANCH   1  23
TORSDOF 10
ENDMDL
MODEL 8
REMARK VINA RESULT:      -7.1      6.202      9.745
REMARK  Name = *****
REMARK                            x       y       z     vdW  Elec       q    Type
REMARK                         _______ _______ _______ _____ _____    ______ ____
ROOT
ATOM      1  C   LIG    1       25.544 -27.811   6.885  0.00  0.00    -0.024 A 
ATOM      2  C   LIG    1       24.785 -28.578   5.986  0.00  0.00    +0.044 A 
ATOM      3 CL   LIG    1       24.495 -28.068   4.360  0.00  0.00    -0.083 Cl
ATOM      4  C   LIG    1       24.229 -29.792   6.386  0.00  0.00    +0.020 A 
ATOM      5  C   LIG    1       24.436 -30.273   7.681  0.00  0.00    +0.008 A 
ATOM      6  C   LIG    1       25.193 -29.547   8.611  0.00  0.00    -0.016 A 
ATOM      7  C   LIG    1       25.703 -28.304   8.197  0.00  0.00    +0.011 A 
ENDROOT
BRANCH   6   8
ATOM      8  C   LIG    1       25.347 -29.971  10.072  0.00  0.00    +0.180 C 
ATOM      9  C   LIG    1       24.253 -29.543  11.078  0.00  0.00    +0.179 C 
ATOM     10  C   LIG    1       23.093 -30.541  11.116  0.00  0.00    +0.177 C 
ATOM     11  C   LIG    1       23.622 -31.941  11.429  0.00  0.00    +0.176 C 
ATOM     12  C   LIG    1       24.786 -32.358  10.512  0.00  0.00    +0.175 C 
ATOM     13  O   LIG    1       25.767 -31.338  10.246  0.00  0.00    -0.361 OA
BRANCH   9  14
ATOM     14  O   LIG    1       24.826 -29.461  12.403  0.00  0.00    -0.386 OA
ATOM     15  H   LIG    1       24.299 -28.808  12.902  0.00  0.00    +0.210 HD
ENDBRANCH   9  14
BRANCH  10  16
ATOM     16  O   LIG    1       22.358 -30.525   9.895  0.00  0.00    -0.387 OA
ATOM     17  H   LIG    1       22.605 -29.711   9.418  0.00  0.00    +0.210 HD
ENDBRANCH  10  16
BRANCH  11  18
ATOM     18  O   LIG    1       24.048 -31.996  12.800  0.00  0.00    -0.387 OA
ATOM     19  H   LIG    1       24.072 -32.944  13.053  0.00  0.00    +0.210 HD
ENDBRANCH  11  18
BRANCH  12  20
ATOM     20  C   LIG    1       24.301 -33.014   9.210  0.00  0.00    +0.190 C 
BRANCH  20  21
ATOM     21  O   LIG    1       22.922 -33.379   9.319  0.00  0.00    -0.392 OA
ATOM     22  H   LIG    1       22.722 -33.427  10.273  0.00  0.00    +0.209 HD
ENDBRANCH  20  21
ENDBRANCH  12  20
ENDBRANCH   6   8
BRANCH   1  23
ATOM     23  C   LIG    1       26.187 -26.508   6.441  0.00  0.00    +0.071 C 
BRANCH  23  27
ATOM     24  C   LIG    1       23.860 -22.903   7.073  0.00  0.00    +0.120 A 
ATOM     25  C   LIG    1       23.233 -24.075   6.631  0.00  0.00    +0.046 A 
ATOM     26  C   LIG    1       23.981 -25.239   6.407  0.00  0.00    +0.007 A 
ATOM     27  C   LIG    1       25.363 -25.247   6.617  0.00  0.00    -0.043 A 
ATOM     28  C   LIG    1       25.984 -24.062   7.045  0.00  0.00    +0.007 A 
ATOM     29  C   LIG    1       25.238 -22.895   7.240  0.00  0.00    +0.046 A 
BRANCH  24  30
ATOM     30  O   LIG    1       23.024 -21.840   7.311  0.00  0.00    -0.492 OA
BRANCH  30  32
ATOM     31  C   LIG    1       22.641 -20.461   5.374  0.00  0.00    +0.048 C 
ATOM     32  C   LIG    1       23.400 -20.609   6.683  0.00  0.00    +0.226 C 
ENDBRANCH  30  32
ENDBRANCH  24  30
ENDBRANCH  23  27
ENDBRANCH   1  23
TORSDOF 10
ENDMDL
MODEL 9
REMARK VINA RESULT:      -7.0      1.175      2.028
REMARK  Name = *****
REMARK                            x       y       z     vdW  Elec       q    Type
REMARK                         _______ _______ _______ _____ _____    ______ ____
ROOT
ATOM      1  C   LIG    1       28.291 -20.093   6.673  0.00  0.00    -0.024 A 
ATOM      2  C   LIG    1       28.694 -19.265   5.612  0.00  0.00    +0.044 A 
ATOM      3 CL   LIG    1       30.304 -18.648   5.487  0.00  0.00    -0.083 Cl
ATOM      4  C   LIG    1       27.791 -18.907   4.611  0.00  0.00    +0.020 A 
ATOM      5  C   LIG    1       26.477 -19.383   4.640  0.00  0.00    +0.008 A 
ATOM      6  C   LIG    1       26.031 -20.217   5.675  0.00  0.00    -0.016 A 
ATOM      7  C   LIG    1       26.948 -20.525   6.695  0.00  0.00    +0.011 A 
ENDROOT
BRANCH   6   8
ATOM      8  C   LIG    1       24.577 -20.664   5.815  0.00  0.00    +0.180 C 
ATOM      9  C   LIG    1       24.059 -21.779   4.877  0.00  0.00    +0.179 C 
ATOM     10  C   LIG    1       24.335 -23.173   5.444  0.00  0.00    +0.177 C 
ATOM     11  C   LIG    1       23.729 -23.295   6.842  0.00  0.00    +0.176 C 
ATOM     12  C   LIG    1       24.140 -22.140   7.773  0.00  0.00    +0.175 C 
ATOM     13  O   LIG    1       24.141 -20.829   7.178  0.00  0.00    -0.361 OA
BRANCH   9  14
ATOM     14  O   LIG    1       22.630 -21.633   4.701  0.00  0.00    -0.386 OA
ATOM     15  H   LIG    1       22.440 -20.676   4.696  0.00  0.00    +0.210 HD
ENDBRANCH   9  14
BRANCH  10  16
ATOM     16  O   LIG    1       25.731 -23.458   5.456  0.00  0.00    -0.387 OA
ATOM     17  H   LIG    1       26.192 -22.643   5.730  0.00  0.00    +0.210 HD
ENDBRANCH  10  16
BRANCH  11  18
ATOM     18  O   LIG    1       22.296 -23.343   6.740  0.00  0.00    -0.387 OA
ATOM     19  H   LIG    1       21.940 -22.797   7.474  0.00  0.00    +0.210 HD
ENDBRANCH  11  18
BRANCH  12  20
ATOM     20  C   LIG    1       25.462 -22.418   8.504  0.00  0.00    +0.190 C 
BRANCH  20  21
ATOM     21  O   LIG    1       25.698 -21.423   9.504  0.00  0.00    -0.392 OA
ATOM     22  H   LIG    1       25.928 -20.601   9.030  0.00  0.00    +0.209 HD
ENDBRANCH  20  21
ENDBRANCH  12  20
ENDBRANCH   6   8
BRANCH   1  23
ATOM     23  C   LIG    1       29.282 -20.520   7.742  0.00  0.00    +0.071 C 
BRANCH  23  27
ATOM     24  C   LIG    1       31.492 -17.278   9.591  0.00  0.00    +0.120 A 
ATOM     25  C   LIG    1       32.171 -18.400   9.099  0.00  0.00    +0.046 A 
ATOM     26  C   LIG    1       31.462 -19.460   8.517  0.00  0.00    +0.007 A 
ATOM     27  C   LIG    1       30.069 -19.416   8.422  0.00  0.00    -0.043 A 
ATOM     28  C   LIG    1       29.396 -18.293   8.933  0.00  0.00    +0.007 A 
ATOM     29  C   LIG    1       30.105 -17.251   9.538  0.00  0.00    +0.046 A 
BRANCH  24  30
ATOM     30  O   LIG    1       32.288 -16.277  10.091  0.00  0.00    -0.492 OA
BRANCH  30  32
ATOM     31  C   LIG    1       31.983 -16.141  12.476  0.00  0.00    +0.048 C 
ATOM     32  C   LIG    1       32.914 -16.559  11.348  0.00  0.00    +0.226 C 
ENDBRANCH  30  32
ENDBRANCH  24  30
ENDBRANCH  23  27
ENDBRANCH   1  23
TORSDOF 10
ENDMDL
