MODEL 1
REMARK VINA RESULT:      -5.9      0.000      0.000
REMARK  Name = *****
REMARK                            x       y       z     vdW  Elec       q    Type
REMARK                         _______ _______ _______ _____ _____    ______ ____
ROOT
ATOM      1  C   LIG    1       24.300 -21.047   6.776  0.00  0.00    +0.042 A 
ATOM      2  N   LIG    1       24.278 -21.456   8.067  0.00  0.00    -0.260 NA
ATOM      3  C   LIG    1       25.439 -21.425   8.756  0.00  0.00    +0.112 A 
ATOM      4  C   LIG    1       26.643 -21.010   8.220  0.00  0.00    +0.030 A 
ATOM      5  C   LIG    1       26.652 -20.591   6.890  0.00  0.00    +0.006 A 
ATOM      6  C   LIG    1       25.462 -20.600   6.159  0.00  0.00    +0.033 A 
ENDROOT
BRANCH   1   8
ATOM      7  C   LIG    1       22.672 -19.747   5.377  0.00  0.00    +0.010 C 
ATOM      8  C   LIG    1       22.997 -21.084   6.023  0.00  0.00    +0.052 C 
ENDBRANCH   1   8
BRANCH   5   9
ATOM      9  C   LIG    1       27.910 -20.145   6.240  0.00  0.00    +0.077 C 
ATOM     10  S   LIG    1       29.425 -20.183   6.942  0.00  0.00    -0.035 S 
BRANCH   9  11
ATOM     11  N   LIG    1       27.792 -19.675   4.957  0.00  0.00    -0.352 N 
ATOM     12  H   LIG    1       27.492 -20.319   4.232  0.00  0.00    +0.143 HD
ATOM     13  H   LIG    1       27.839 -18.694   4.715  0.00  0.00    +0.143 HD
ENDBRANCH   9  11
ENDBRANCH   5   9
TORSDOF 3
ENDMDL
MODEL 2
REMARK VINA RESULT:      -5.9      3.195      4.347
REMARK  Name = *****
REMARK                            x       y       z     vdW  Elec       q    Type
REMARK                         _______ _______ _______ _____ _____    ______ ____
ROOT
ATOM      1  C   LIG    1       25.349 -21.648   7.804  0.00  0.00    +0.042 A 
ATOM      2  N   LIG    1       24.050 -21.278   7.908  0.00  0.00    -0.260 NA
ATOM      3  C   LIG    1       23.119 -22.095   7.371  0.00  0.00    +0.112 A 
ATOM      4  C   LIG    1       23.414 -23.277   6.718  0.00  0.00    +0.030 A 
ATOM      5  C   LIG    1       24.756 -23.646   6.618  0.00  0.00    +0.006 A 
ATOM      6  C   LIG    1       25.737 -22.826   7.177  0.00  0.00    +0.033 A 
ENDROOT
BRANCH   1   8
ATOM      7  C   LIG    1       27.475 -20.370   7.425  0.00  0.00    +0.010 C 
ATOM      8  C   LIG    1       26.374 -20.727   8.411  0.00  0.00    +0.052 C 
ENDBRANCH   1   8
BRANCH   5   9
ATOM      9  C   LIG    1       25.153 -24.894   5.918  0.00  0.00    +0.077 C 
ATOM     10  S   LIG    1       25.866 -26.220   6.640  0.00  0.00    -0.035 S 
BRANCH   9  11
ATOM     11  N   LIG    1       24.895 -24.938   4.572  0.00  0.00    -0.352 N 
ATOM     12  H   LIG    1       24.316 -25.691   4.215  0.00  0.00    +0.143 HD
ATOM     13  H   LIG    1       25.119 -24.184   3.936  0.00  0.00    +0.143 HD
ENDBRANCH   9  11
ENDBRANCH   5   9
TORSDOF 3
ENDMDL
MODEL 3
REMARK VINA RESULT:      -5.9      2.595      4.107
REMARK  Name = *****
REMARK                            x       y       z     vdW  Elec       q    Type
REMARK                         _______ _______ _______ _____ _____    ______ ____
ROOT
ATOM      1  C   LIG    1       27.837 -20.171   7.213  0.00  0.00    +0.042 A 
ATOM      2  N   LIG    1       27.288 -20.293   8.445  0.00  0.00    -0.260 NA
ATOM      3  C   LIG    1       25.985 -20.635   8.521  0.00  0.00    +0.112 A 
ATOM      4  C   LIG    1       25.180 -20.860   7.420  0.00  0.00    +0.030 A 
ATOM      5  C   LIG    1       25.758 -20.732   6.157  0.00  0.00    +0.006 A 
ATOM      6  C   LIG    1       27.108 -20.392   6.051  0.00  0.00    +0.033 A 
ENDROOT
BRANCH   1   8
ATOM      7  C   LIG    1       29.549 -18.692   6.128  0.00  0.00    +0.010 C 
ATOM      8  C   LIG    1       29.293 -19.791   7.146  0.00  0.00    +0.052 C 
ENDBRANCH   1   8
BRANCH   5   9
ATOM      9  C   LIG    1       24.954 -20.942   4.927  0.00  0.00    +0.077 C 
ATOM     10  S   LIG    1       24.475 -19.741   3.870  0.00  0.00    -0.035 S 
BRANCH   9  11
ATOM     11  N   LIG    1       24.597 -22.239   4.655  0.00  0.00    -0.352 N 
ATOM     12  H   LIG    1       24.041 -22.423   3.826  0.00  0.00    +0.143 HD
ATOM     13  H   LIG    1       24.977 -23.037   5.145  0.00  0.00    +0.143 HD
ENDBRANCH   9  11
ENDBRANCH   5   9
TORSDOF 3
ENDMDL
MODEL 4
REMARK VINA RESULT:      -5.8      3.874      6.008
REMARK  Name = *****
REMARK                            x       y       z     vdW  Elec       q    Type
REMARK                         _______ _______ _______ _____ _____    ______ ____
ROOT
ATOM      1  C   LIG    1       31.070 -18.816   8.701  0.00  0.00    +0.042 A 
ATOM      2  N   LIG    1       31.710 -19.921   9.153  0.00  0.00    -0.260 NA
ATOM      3  C   LIG    1       31.172 -21.124   8.857  0.00  0.00    +0.112 A 
ATOM      4  C   LIG    1       30.009 -21.291   8.130  0.00  0.00    +0.030 A 
ATOM      5  C   LIG    1       29.360 -20.145   7.670  0.00  0.00    +0.006 A 
ATOM      6  C   LIG    1       29.902 -18.890   7.951  0.00  0.00    +0.033 A 
ENDROOT
BRANCH   1   8
ATOM      7  C   LIG    1       30.865 -16.722  10.069  0.00  0.00    +0.010 C 
ATOM      8  C   LIG    1       31.683 -17.483   9.038  0.00  0.00    +0.052 C 
ENDBRANCH   1   8
BRANCH   5   9
ATOM      9  C   LIG    1       28.097 -20.244   6.895  0.00  0.00    +0.077 C 
ATOM     10  S   LIG    1       26.589 -20.548   7.544  0.00  0.00    -0.035 S 
BRANCH   9  11
ATOM     11  N   LIG    1       28.206 -20.059   5.540  0.00  0.00    -0.352 N 
ATOM     12  H   LIG    1       28.338 -19.115   5.190  0.00  0.00    +0.143 HD
ATOM     13  H   LIG    1       28.313 -20.817   4.880  0.00  0.00    +0.143 HD
ENDBRANCH   9  11
ENDBRANCH   5   9
TORSDOF 3
ENDMDL
MODEL 5
REMARK VINA RESULT:      -5.8      3.328      4.232
REMARK  Name = *****
REMARK                            x       y       z     vdW  Elec       q    Type
REMARK                         _______ _______ _______ _____ _____    ______ ____
ROOT
ATOM      1  C   LIG    1       24.799 -24.748   6.660  0.00  0.00    +0.042 A 
ATOM      2  N   LIG    1       23.451 -24.675   6.556  0.00  0.00    -0.260 NA
ATOM      3  C   LIG    1       22.865 -23.485   6.811  0.00  0.00    +0.112 A 
ATOM      4  C   LIG    1       23.558 -22.347   7.176  0.00  0.00    +0.030 A 
ATOM      5  C   LIG    1       24.946 -22.435   7.278  0.00  0.00    +0.006 A 
ATOM      6  C   LIG    1       25.578 -23.651   7.007  0.00  0.00    +0.033 A 
ENDROOT
BRANCH   1   8
ATOM      7  C   LIG    1       24.404 -27.157   6.078  0.00  0.00    +0.010 C 
ATOM      8  C   LIG    1       25.437 -26.081   6.370  0.00  0.00    +0.052 C 
ENDBRANCH   1   8
BRANCH   5   9
ATOM      9  C   LIG    1       25.758 -21.259   7.680  0.00  0.00    +0.077 C 
ATOM     10  S   LIG    1       26.897 -20.501   6.724  0.00  0.00    -0.035 S 
BRANCH   9  11
ATOM     11  N   LIG    1       25.528 -20.771   8.942  0.00  0.00    -0.352 N 
ATOM     12  H   LIG    1       26.246 -20.200   9.377  0.00  0.00    +0.143 HD
ATOM     13  H   LIG    1       24.630 -20.819   9.404  0.00  0.00    +0.143 HD
ENDBRANCH   9  11
ENDBRANCH   5   9
TORSDOF 3
ENDMDL
MODEL 6
REMARK VINA RESULT:      -5.7      3.086      3.540
REMARK  Name = *****
REMARK                            x       y       z     vdW  Elec       q    Type
REMARK                         _______ _______ _______ _____ _____    ______ ____
ROOT
ATOM      1  C   LIG    1       24.053 -21.337   6.804  0.00  0.00    +0.042 A 
ATOM      2  N   LIG    1       24.844 -21.039   7.862  0.00  0.00    -0.260 NA
ATOM      3  C   LIG    1       25.760 -21.956   8.241  0.00  0.00    +0.112 A 
ATOM      4  C   LIG    1       25.930 -23.178   7.619  0.00  0.00    +0.030 A 
ATOM      5  C   LIG    1       25.109 -23.474   6.530  0.00  0.00    +0.006 A 
ATOM      6  C   LIG    1       24.163 -22.536   6.110  0.00  0.00    +0.033 A 
ENDROOT
BRANCH   1   8
ATOM      7  C   LIG    1       22.636 -20.447   4.934  0.00  0.00    +0.010 C 
ATOM      8  C   LIG    1       23.039 -20.303   6.393  0.00  0.00    +0.052 C 
ENDBRANCH   1   8
BRANCH   5   9
ATOM      9  C   LIG    1       25.222 -24.773   5.821  0.00  0.00    +0.077 C 
ATOM     10  S   LIG    1       25.881 -26.167   6.460  0.00  0.00    -0.035 S 
BRANCH   9  11
ATOM     11  N   LIG    1       24.732 -24.804   4.540  0.00  0.00    -0.352 N 
ATOM     12  H   LIG    1       23.762 -25.067   4.400  0.00  0.00    +0.143 HD
ATOM     13  H   LIG    1       25.232 -24.437   3.741  0.00  0.00    +0.143 HD
ENDBRANCH   9  11
ENDBRANCH   5   9
TORSDOF 3
ENDMDL
MODEL 7
REMARK VINA RESULT:      -5.6      2.826      4.449
REMARK  Name = *****
REMARK                            x       y       z     vdW  Elec       q    Type
REMARK                         _______ _______ _______ _____ _____    ______ ____
ROOT
ATOM      1  C   LIG    1       27.901 -20.235   6.926  0.00  0.00    +0.042 A 
ATOM      2  N   LIG    1       27.973 -19.610   5.727  0.00  0.00    -0.260 NA
ATOM      3  C   LIG    1       29.082 -18.889   5.459  0.00  0.00    +0.112 A 
ATOM      4  C   LIG    1       30.140 -18.746   6.337  0.00  0.00    +0.030 A 
ATOM      5  C   LIG    1       30.054 -19.395   7.569  0.00  0.00    +0.006 A 
ATOM      6  C   LIG    1       28.923 -20.159   7.865  0.00  0.00    +0.033 A 
ENDROOT
BRANCH   1   8
ATOM      7  C   LIG    1       26.019 -20.655   8.532  0.00  0.00    +0.010 C 
ATOM      8  C   LIG    1       26.658 -21.038   7.207  0.00  0.00    +0.052 C 
ENDBRANCH   1   8
BRANCH   5   9
ATOM      9  C   LIG    1       31.143 -19.277   8.571  0.00  0.00    +0.077 C 
ATOM     10  S   LIG    1       31.774 -17.842   9.145  0.00  0.00    -0.035 S 
BRANCH   9  11
ATOM     11  N   LIG    1       31.649 -20.457   9.053  0.00  0.00    -0.352 N 
ATOM     12  H   LIG    1       31.416 -20.732  10.001  0.00  0.00    +0.143 HD
ATOM     13  H   LIG    1       32.116 -21.143   8.473  0.00  0.00    +0.143 HD
ENDBRANCH   9  11
ENDBRANCH   5   9
TORSDOF 3
ENDMDL
MODEL 8
REMARK VINA RESULT:      -5.5      4.123      5.082
REMARK  Name = *****
REMARK                            x       y       z     vdW  Elec       q    Type
REMARK                         _______ _______ _______ _____ _____    ______ ____
ROOT
ATOM      1  C   LIG    1       25.313 -22.832   7.382  0.00  0.00    +0.042 A 
ATOM      2  N   LIG    1       23.988 -22.621   7.197  0.00  0.00    -0.260 NA
ATOM      3  C   LIG    1       23.248 -23.648   6.726  0.00  0.00    +0.112 A 
ATOM      4  C   LIG    1       23.763 -24.892   6.417  0.00  0.00    +0.030 A 
ATOM      5  C   LIG    1       25.129 -25.097   6.612  0.00  0.00    +0.006 A 
ATOM      6  C   LIG    1       25.914 -24.055   7.111  0.00  0.00    +0.033 A 
ENDROOT
BRANCH   1   8
ATOM      7  C   LIG    1       26.313 -20.589   6.867  0.00  0.00    +0.010 C 
ATOM      8  C   LIG    1       26.124 -21.678   7.910  0.00  0.00    +0.052 C 
ENDBRANCH   1   8
BRANCH   5   9
ATOM      9  C   LIG    1       25.758 -26.402   6.288  0.00  0.00    +0.077 C 
ATOM     10  S   LIG    1       25.985 -27.008   4.749  0.00  0.00    -0.035 S 
BRANCH   9  11
ATOM     11  N   LIG    1       26.186 -27.147   7.358  0.00  0.00    -0.352 N 
ATOM     12  H   LIG    1       25.573 -27.872   7.717  0.00  0.00    +0.143 HD
ATOM     13  H   LIG    1       27.131 -27.120   7.715  0.00  0.00    +0.143 HD
ENDBRANCH   9  11
ENDBRANCH   5   9
TORSDOF 3
ENDMDL
MODEL 9
REMARK VINA RESULT:      -5.4      3.279      3.723
REMARK  Name = *****
REMARK                            x       y       z     vdW  Elec       q    Type
REMARK                         _______ _______ _______ _____ _____    ______ ____
ROOT
ATOM      1  C   LIG    1       23.788 -20.614   5.160  0.00  0.00    +0.042 A 
ATOM      2  N   LIG    1       23.235 -20.335   6.365  0.00  0.00    -0.260 NA
ATOM      3  C   LIG    1       23.278 -21.295   7.313  0.00  0.00    +0.112 A 
ATOM      4  C   LIG    1       23.844 -22.542   7.124  0.00  0.00    +0.030 A 
ATOM      5  C   LIG    1       24.411 -22.816   5.880  0.00  0.00    +0.006 A 
ATOM      6  C   LIG    1       24.391 -21.836   4.886  0.00  0.00    +0.033 A 
ENDROOT
BRANCH   1   8
ATOM      7  C   LIG    1       25.116 -19.176   3.590  0.00  0.00    +0.010 C 
ATOM      8  C   LIG    1       23.734 -19.532   4.115  0.00  0.00    +0.052 C 
ENDBRANCH   1   8
BRANCH   5   9
ATOM      9  C   LIG    1       25.024 -24.138   5.596  0.00  0.00    +0.077 C 
ATOM     10  S   LIG    1       25.851 -25.075   6.703  0.00  0.00    -0.035 S 
BRANCH   9  11
ATOM     11  N   LIG    1       24.879 -24.607   4.315  0.00  0.00    -0.352 N 
ATOM     12  H   LIG    1       24.481 -25.531   4.181  0.00  0.00    +0.143 HD
ATOM     13  H   LIG    1       25.003 -24.032   3.492  0.00  0.00    +0.143 HD
ENDBRANCH   9  11
ENDBRANCH   5   9
TORSDOF 3
ENDMDL
