MODEL 1
REMARK VINA RESULT:      -4.3      0.000      0.000
REMARK  Name = *****
REMARK                            x       y       z     vdW  Elec       q    Type
REMARK                         _______ _______ _______ _____ _____    ______ ____
ROOT
ATOM      1  C   LIG    1       27.326 -16.102   3.246  0.00  0.00    +0.166 C 
ENDROOT
BRANCH   1   2
ATOM      2  O   LIG    1       26.208 -15.497   2.650  0.00  0.00    -0.387 OA
ATOM      3  H   LIG    1       26.543 -15.501   1.743  0.00  0.00    +0.210 HD
ENDBRANCH   1   2
BRANCH   1   4
ATOM      4  C   LIG    1       27.804 -15.097   4.312  0.00  0.00    +0.115 C 
BRANCH   4   5
ATOM      5  N   LIG    1       28.391 -13.952   3.645  0.00  0.00    -0.310 NA
ATOM      6  H   LIG    1       29.353 -14.184   3.392  0.00  0.00    +0.122 HD
BRANCH   5   7
ATOM      7  C   LIG    1       28.413 -12.723   4.429  0.00  0.00    +0.122 C 
BRANCH   7   8
ATOM      8  C   LIG    1       27.456 -12.435   5.615  0.00  0.00    +0.244 C 
BRANCH   8   9
ATOM      9  O   LIG    1       26.009 -12.679   5.491  0.00  0.00    -0.487 OA
BRANCH   9  11
ATOM     10  C   LIG    1       24.230 -13.538   4.041  0.00  0.00    +0.162 A 
ATOM     11  C   LIG    1       25.330 -12.713   4.300  0.00  0.00    +0.162 A 
ATOM     12  C   LIG    1       25.615 -11.786   3.286  0.00  0.00    +0.049 A 
ATOM     13  C   LIG    1       24.946 -11.694   2.072  0.00  0.00    +0.004 A 
ATOM     14  C   LIG    1       23.948 -12.580   1.813  0.00  0.00    +0.004 A 
ATOM     15  C   LIG    1       23.627 -13.552   2.767  0.00  0.00    +0.049 A 
BRANCH  10  17
ATOM     16  C   LIG    1       23.060 -15.605   4.360  0.00  0.00    +0.277 C 
ATOM     17  O   LIG    1       23.603 -14.411   4.915  0.00  0.00    -0.491 OA
ENDBRANCH  10  17
ENDBRANCH   9  11
ENDBRANCH   8   9
ENDBRANCH   7   8
ENDBRANCH   5   7
ENDBRANCH   4   5
ENDBRANCH   1   4
BRANCH   1  18
ATOM     18  C   LIG    1       26.850 -17.499   3.737  0.00  0.00    +0.261 C 
BRANCH  18  19
ATOM     19  O   LIG    1       27.948 -18.097   4.474  0.00  0.00    -0.489 OA
BRANCH  19  20
ATOM     20  C   LIG    1       27.733 -19.302   5.168  0.00  0.00    +0.130 C 
ATOM     21  C   LIG    1       26.508 -20.054   5.359  0.00  0.00    +0.049 C 
ATOM     22  C   LIG    1       26.568 -20.986   6.387  0.00  0.00    +0.051 C 
ATOM     23  N   LIG    1       25.273 -21.366   6.704  0.00  0.00    -0.354 NA
ATOM     24  H   LIG    1       25.032 -21.920   7.467  0.00  0.00    +0.166 HD
ATOM     25  C   LIG    1       24.383 -20.680   5.899  0.00  0.00    +0.048 C 
ATOM     26  C   LIG    1       22.977 -20.538   6.043  0.00  0.00    +0.026 C 
ATOM     27  C   LIG    1       22.323 -19.748   5.121  0.00  0.00    +0.002 C 
ATOM     28  C   LIG    1       22.964 -19.349   3.983  0.00  0.00    +0.001 C 
ATOM     29  C   LIG    1       24.284 -19.747   3.765  0.00  0.00    +0.010 C 
ATOM     30  C   LIG    1       27.731 -21.407   7.061  0.00  0.00    +0.026 C 
ATOM     31  C   LIG    1       28.931 -20.799   6.717  0.00  0.00    +0.006 C 
ATOM     32  C   LIG    1       25.111 -20.112   4.862  0.00  0.00    +0.011 C 
ATOM     33  C   LIG    1       28.926 -19.742   5.817  0.00  0.00    +0.046 C 
ENDBRANCH  19  20
ENDBRANCH  18  19
ENDBRANCH   1  18
TORSDOF 11
ENDMDL
MODEL 2
REMARK VINA RESULT:      -2.7      1.352      2.494
REMARK  Name = *****
REMARK                            x       y       z     vdW  Elec       q    Type
REMARK                         _______ _______ _______ _____ _____    ______ ____
ROOT
ATOM      1  C   LIG    1       27.338 -15.062   4.142  0.00  0.00    +0.166 C 
ENDROOT
BRANCH   1   2
ATOM      2  O   LIG    1       26.911 -14.333   5.263  0.00  0.00    -0.387 OA
ATOM      3  H   LIG    1       27.374 -13.511   5.051  0.00  0.00    +0.210 HD
ENDBRANCH   1   2
BRANCH   1   4
ATOM      4  C   LIG    1       28.022 -14.027   3.228  0.00  0.00    +0.115 C 
BRANCH   4   5
ATOM      5  N   LIG    1       27.118 -13.690   2.147  0.00  0.00    -0.310 NA
ATOM      6  H   LIG    1       27.660 -13.613   1.285  0.00  0.00    +0.122 HD
BRANCH   5   7
ATOM      7  C   LIG    1       26.374 -12.449   2.326  0.00  0.00    +0.122 C 
BRANCH   7   8
ATOM      8  C   LIG    1       24.928 -12.224   1.813  0.00  0.00    +0.244 C 
BRANCH   8   9
ATOM      9  O   LIG    1       23.888 -13.244   2.022  0.00  0.00    -0.487 OA
BRANCH   9  11
ATOM     10  C   LIG    1       23.618 -13.169   4.457  0.00  0.00    +0.162 A 
ATOM     11  C   LIG    1       23.618 -13.838   3.229  0.00  0.00    +0.162 A 
ATOM     12  C   LIG    1       23.168 -15.165   3.287  0.00  0.00    +0.049 A 
ATOM     13  C   LIG    1       22.806 -15.840   4.448  0.00  0.00    +0.004 A 
ATOM     14  C   LIG    1       22.917 -15.188   5.636  0.00  0.00    +0.004 A 
ATOM     15  C   LIG    1       23.388 -13.871   5.657  0.00  0.00    +0.049 A 
BRANCH  10  17
ATOM     16  C   LIG    1       24.307 -11.447   5.975  0.00  0.00    +0.277 C 
ATOM     17  O   LIG    1       23.832 -11.819   4.685  0.00  0.00    -0.491 OA
ENDBRANCH  10  17
ENDBRANCH   9  11
ENDBRANCH   8   9
ENDBRANCH   7   8
ENDBRANCH   5   7
ENDBRANCH   4   5
ENDBRANCH   1   4
BRANCH   1  18
ATOM     18  C   LIG    1       28.213 -16.225   4.692  0.00  0.00    +0.261 C 
BRANCH  18  19
ATOM     19  O   LIG    1       27.650 -17.465   4.191  0.00  0.00    -0.489 OA
BRANCH  19  20
ATOM     20  C   LIG    1       27.795 -18.641   4.951  0.00  0.00    +0.130 C 
ATOM     21  C   LIG    1       26.808 -19.644   5.302  0.00  0.00    +0.049 C 
ATOM     22  C   LIG    1       27.187 -20.470   6.353  0.00  0.00    +0.051 C 
ATOM     23  N   LIG    1       26.055 -21.119   6.822  0.00  0.00    -0.354 NA
ATOM     24  H   LIG    1       26.027 -21.665   7.628  0.00  0.00    +0.166 HD
ATOM     25  C   LIG    1       24.955 -20.711   6.091  0.00  0.00    +0.048 C 
ATOM     26  C   LIG    1       23.576 -20.892   6.380  0.00  0.00    +0.026 C 
ATOM     27  C   LIG    1       22.667 -20.335   5.504  0.00  0.00    +0.002 C 
ATOM     28  C   LIG    1       23.084 -19.871   4.289  0.00  0.00    +0.001 C 
ATOM     29  C   LIG    1       24.433 -19.964   3.946  0.00  0.00    +0.010 C 
ATOM     30  C   LIG    1       28.475 -20.565   6.914  0.00  0.00    +0.026 C 
ATOM     31  C   LIG    1       29.457 -19.717   6.420  0.00  0.00    +0.006 C 
ATOM     32  C   LIG    1       25.425 -20.056   4.960  0.00  0.00    +0.011 C 
ATOM     33  C   LIG    1       29.115 -18.749   5.484  0.00  0.00    +0.046 C 
ENDBRANCH  19  20
ENDBRANCH  18  19
ENDBRANCH   1  18
TORSDOF 11
ENDMDL
MODEL 3
REMARK VINA RESULT:      -2.1      1.335      2.614
REMARK  Name = *****
REMARK                            x       y       z     vdW  Elec       q    Type
REMARK                         _______ _______ _______ _____ _____    ______ ____
ROOT
ATOM      1  C   LIG    1       27.446 -15.139   4.187  0.00  0.00    +0.166 C 
ENDROOT
BRANCH   1   2
ATOM      2  O   LIG    1       27.596 -14.190   5.211  0.00  0.00    -0.387 OA
ATOM      3  H   LIG    1       26.958 -13.548   4.870  0.00  0.00    +0.210 HD
ENDBRANCH   1   2
BRANCH   1   4
ATOM      4  C   LIG    1       27.869 -14.406   2.898  0.00  0.00    +0.115 C 
BRANCH   4   5
ATOM      5  N   LIG    1       27.308 -13.070   2.916  0.00  0.00    -0.310 NA
ATOM      6  H   LIG    1       27.252 -12.756   3.886  0.00  0.00    +0.122 HD
BRANCH   5   7
ATOM      7  C   LIG    1       25.983 -12.947   2.322  0.00  0.00    +0.122 C 
BRANCH   7   8
ATOM      8  C   LIG    1       24.671 -12.856   3.143  0.00  0.00    +0.244 C 
BRANCH   8   9
ATOM      9  O   LIG    1       24.522 -13.594   4.409  0.00  0.00    -0.487 OA
BRANCH   9  11
ATOM     10  C   LIG    1       23.939 -15.923   3.918  0.00  0.00    +0.162 A 
ATOM     11  C   LIG    1       23.732 -14.703   4.570  0.00  0.00    +0.162 A 
ATOM     12  C   LIG    1       22.721 -14.726   5.542  0.00  0.00    +0.049 A 
ATOM     13  C   LIG    1       21.908 -15.816   5.830  0.00  0.00    +0.004 A 
ATOM     14  C   LIG    1       22.071 -16.954   5.105  0.00  0.00    +0.004 A 
ATOM     15  C   LIG    1       23.041 -16.995   4.097  0.00  0.00    +0.049 A 
BRANCH  10  17
ATOM     16  C   LIG    1       25.353 -17.627   3.000  0.00  0.00    +0.277 C 
ATOM     17  O   LIG    1       24.970 -16.256   3.054  0.00  0.00    -0.491 OA
ENDBRANCH  10  17
ENDBRANCH   9  11
ENDBRANCH   8   9
ENDBRANCH   7   8
ENDBRANCH   5   7
ENDBRANCH   4   5
ENDBRANCH   1   4
BRANCH   1  18
ATOM     18  C   LIG    1       28.283 -16.376   4.618  0.00  0.00    +0.261 C 
BRANCH  18  19
ATOM     19  O   LIG    1       27.469 -17.554   4.384  0.00  0.00    -0.489 OA
BRANCH  19  20
ATOM     20  C   LIG    1       27.725 -18.724   5.124  0.00  0.00    +0.130 C 
ATOM     21  C   LIG    1       26.843 -19.830   5.441  0.00  0.00    +0.049 C 
ATOM     22  C   LIG    1       27.291 -20.633   6.482  0.00  0.00    +0.051 C 
ATOM     23  N   LIG    1       26.227 -21.406   6.921  0.00  0.00    -0.354 NA
ATOM     24  H   LIG    1       26.245 -21.968   7.715  0.00  0.00    +0.166 HD
ATOM     25  C   LIG    1       25.100 -21.100   6.181  0.00  0.00    +0.048 C 
ATOM     26  C   LIG    1       23.744 -21.427   6.446  0.00  0.00    +0.026 C 
ATOM     27  C   LIG    1       22.794 -20.950   5.566  0.00  0.00    +0.002 C 
ATOM     28  C   LIG    1       23.176 -20.421   4.367  0.00  0.00    +0.001 C 
ATOM     29  C   LIG    1       24.532 -20.366   4.043  0.00  0.00    +0.010 C 
ATOM     30  C   LIG    1       28.574 -20.606   7.061  0.00  0.00    +0.026 C 
ATOM     31  C   LIG    1       29.470 -19.652   6.597  0.00  0.00    +0.006 C 
ATOM     32  C   LIG    1       25.514 -20.376   5.070  0.00  0.00    +0.011 C 
ATOM     33  C   LIG    1       29.042 -18.706   5.675  0.00  0.00    +0.046 C 
ENDBRANCH  19  20
ENDBRANCH  18  19
ENDBRANCH   1  18
TORSDOF 11
ENDMDL
