MODEL 1
REMARK VINA RESULT:      -9.5      0.000      0.000
REMARK  Name = *****
REMARK                            x       y       z     vdW  Elec       q    Type
REMARK                         _______ _______ _______ _____ _____    ______ ____
ROOT
ATOM      1  C   LIG    1       30.277 -20.712   8.156  0.00  0.00    +0.240 C 
ATOM      2  S   LIG    1       31.023 -21.869   9.108  0.00  0.00    +0.007 S 
ENDROOT
BRANCH   1   3
ATOM      3  N   LIG    1       30.577 -19.335   8.009  0.00  0.00    -0.268 N 
ATOM      4  C   LIG    1       30.637 -18.808   6.637  0.00  0.00    +0.139 C 
BRANCH   3   8
ATOM      5  C   LIG    1       33.025 -15.273   9.659  0.00  0.00    +0.044 C 
ATOM      6  C   LIG    1       32.005 -16.348   9.893  0.00  0.00    -0.049 A 
ATOM      7  C   LIG    1       31.752 -17.316   8.897  0.00  0.00    +0.027 A 
ATOM      8  C   LIG    1       30.840 -18.380   9.081  0.00  0.00    +0.037 A 
ATOM      9  C   LIG    1       30.186 -18.406  10.319  0.00  0.00    +0.023 A 
ATOM     10  C   LIG    1       30.434 -17.460  11.322  0.00  0.00    +0.002 A 
ATOM     11  C   LIG    1       31.341 -16.434  11.113  0.00  0.00    +0.003 A 
ENDBRANCH   3   8
ENDBRANCH   1   3
BRANCH   1  12
ATOM     12  O   LIG    1       29.243 -21.140   7.272  0.00  0.00    -0.435 OA
BRANCH  12  13
ATOM     13  C   LIG    1       27.808 -21.038   7.172  0.00  0.00    +0.131 A 
ATOM     14  C   LIG    1       27.122 -20.737   6.002  0.00  0.00    +0.055 A 
ATOM     15  C   LIG    1       25.721 -20.610   6.015  0.00  0.00    -0.014 A 
ATOM     16  C   LIG    1       25.010 -20.851   7.224  0.00  0.00    -0.018 A 
ATOM     17  C   LIG    1       23.613 -20.706   7.237  0.00  0.00    +0.008 A 
ATOM     18  C   LIG    1       22.920 -20.314   6.091  0.00  0.00    +0.001 A 
ATOM     19  C   LIG    1       23.615 -20.075   4.907  0.00  0.00    +0.001 A 
ATOM     20  C   LIG    1       25.725 -21.215   8.372  0.00  0.00    +0.012 A 
ATOM     21  C   LIG    1       25.001 -20.234   4.871  0.00  0.00    +0.008 A 
ATOM     22  C   LIG    1       27.118 -21.304   8.356  0.00  0.00    +0.047 A 
ENDBRANCH  12  13
ENDBRANCH   1  12
TORSDOF 4
ENDMDL
MODEL 2
REMARK VINA RESULT:      -9.3      3.234      7.682
REMARK  Name = *****
REMARK                            x       y       z     vdW  Elec       q    Type
REMARK                         _______ _______ _______ _____ _____    ______ ____
ROOT
ATOM      1  C   LIG    1       24.975 -23.194   6.668  0.00  0.00    +0.240 C 
ATOM      2  S   LIG    1       25.413 -24.804   6.535  0.00  0.00    +0.007 S 
ENDROOT
BRANCH   1   3
ATOM      3  N   LIG    1       23.811 -22.535   6.198  0.00  0.00    -0.268 N 
ATOM      4  C   LIG    1       22.522 -22.993   6.735  0.00  0.00    +0.139 C 
BRANCH   3   8
ATOM      5  C   LIG    1       22.012 -18.044   4.851  0.00  0.00    +0.044 C 
ATOM      6  C   LIG    1       22.915 -19.209   4.571  0.00  0.00    -0.049 A 
ATOM      7  C   LIG    1       22.965 -20.301   5.464  0.00  0.00    +0.027 A 
ATOM      8  C   LIG    1       23.757 -21.446   5.227  0.00  0.00    +0.037 A 
ATOM      9  C   LIG    1       24.510 -21.423   4.046  0.00  0.00    +0.023 A 
ATOM     10  C   LIG    1       24.465 -20.353   3.143  0.00  0.00    +0.002 A 
ATOM     11  C   LIG    1       23.669 -19.248   3.402  0.00  0.00    +0.003 A 
ENDBRANCH   3   8
ENDBRANCH   1   3
BRANCH   1  12
ATOM     12  O   LIG    1       25.813 -22.335   7.438  0.00  0.00    -0.435 OA
BRANCH  12  13
ATOM     13  C   LIG    1       26.996 -21.534   7.241  0.00  0.00    +0.131 A 
ATOM     14  C   LIG    1       28.171 -21.677   7.968  0.00  0.00    +0.055 A 
ATOM     15  C   LIG    1       29.257 -20.814   7.735  0.00  0.00    -0.014 A 
ATOM     16  C   LIG    1       29.162 -19.832   6.710  0.00  0.00    -0.018 A 
ATOM     17  C   LIG    1       30.241 -18.961   6.493  0.00  0.00    +0.008 A 
ATOM     18  C   LIG    1       31.392 -19.033   7.278  0.00  0.00    +0.001 A 
ATOM     19  C   LIG    1       31.487 -19.992   8.284  0.00  0.00    +0.001 A 
ATOM     20  C   LIG    1       27.986 -19.754   5.951  0.00  0.00    +0.012 A 
ATOM     21  C   LIG    1       30.432 -20.879   8.501  0.00  0.00    +0.008 A 
ATOM     22  C   LIG    1       26.902 -20.593   6.214  0.00  0.00    +0.047 A 
ENDBRANCH  12  13
ENDBRANCH   1  12
TORSDOF 4
ENDMDL
MODEL 3
REMARK VINA RESULT:      -9.2      2.713      8.003
REMARK  Name = *****
REMARK                            x       y       z     vdW  Elec       q    Type
REMARK                         _______ _______ _______ _____ _____    ______ ____
ROOT
ATOM      1  C   LIG    1       26.996 -20.596   6.543  0.00  0.00    +0.240 C 
ATOM      2  S   LIG    1       26.751 -19.867   5.056  0.00  0.00    +0.007 S 
ENDROOT
BRANCH   1   3
ATOM      3  N   LIG    1       26.067 -21.254   7.388  0.00  0.00    -0.268 N 
ATOM      4  C   LIG    1       25.863 -20.682   8.727  0.00  0.00    +0.139 C 
BRANCH   3   8
ATOM      5  C   LIG    1       25.951 -26.160   6.321  0.00  0.00    +0.044 C 
ATOM      6  C   LIG    1       25.216 -24.880   6.590  0.00  0.00    -0.049 A 
ATOM      7  C   LIG    1       25.929 -23.693   6.860  0.00  0.00    +0.027 A 
ATOM      8  C   LIG    1       25.292 -22.449   7.070  0.00  0.00    +0.037 A 
ATOM      9  C   LIG    1       23.893 -22.471   7.008  0.00  0.00    +0.023 A 
ATOM     10  C   LIG    1       23.169 -23.638   6.730  0.00  0.00    +0.002 A 
ATOM     11  C   LIG    1       23.826 -24.840   6.520  0.00  0.00    +0.003 A 
ENDBRANCH   3   8
ENDBRANCH   1   3
BRANCH   1  12
ATOM     12  O   LIG    1       28.331 -20.678   7.035  0.00  0.00    -0.435 OA
BRANCH  12  13
ATOM     13  C   LIG    1       29.317 -19.797   7.613  0.00  0.00    +0.131 A 
ATOM     14  C   LIG    1       29.152 -19.112   8.810  0.00  0.00    +0.055 A 
ATOM     15  C   LIG    1       30.152 -18.237   9.268  0.00  0.00    -0.014 A 
ATOM     16  C   LIG    1       31.358 -18.104   8.525  0.00  0.00    -0.018 A 
ATOM     17  C   LIG    1       32.347 -17.215   8.976  0.00  0.00    +0.008 A 
ATOM     18  C   LIG    1       32.155 -16.451  10.128  0.00  0.00    +0.001 A 
ATOM     19  C   LIG    1       30.974 -16.578  10.856  0.00  0.00    +0.001 A 
ATOM     20  C   LIG    1       31.521 -18.856   7.354  0.00  0.00    +0.012 A 
ATOM     21  C   LIG    1       29.989 -17.471  10.433  0.00  0.00    +0.008 A 
ATOM     22  C   LIG    1       30.507 -19.697   6.891  0.00  0.00    +0.047 A 
ENDBRANCH  12  13
ENDBRANCH   1  12
TORSDOF 4
ENDMDL
MODEL 4
REMARK VINA RESULT:      -9.0      5.621      8.135
REMARK  Name = *****
REMARK                            x       y       z     vdW  Elec       q    Type
REMARK                         _______ _______ _______ _____ _____    ______ ____
ROOT
ATOM      1  C   LIG    1       25.481 -22.391   7.201  0.00  0.00    +0.240 C 
ATOM      2  S   LIG    1       26.292 -21.679   8.479  0.00  0.00    +0.007 S 
ENDROOT
BRANCH   1   3
ATOM      3  N   LIG    1       24.308 -21.966   6.527  0.00  0.00    -0.268 N 
ATOM      4  C   LIG    1       23.052 -22.642   6.885  0.00  0.00    +0.139 C 
BRANCH   3   8
ATOM      5  C   LIG    1       21.640 -18.351   4.286  0.00  0.00    +0.044 C 
ATOM      6  C   LIG    1       22.928 -19.106   4.424  0.00  0.00    -0.049 A 
ATOM      7  C   LIG    1       23.045 -20.147   5.369  0.00  0.00    +0.027 A 
ATOM      8  C   LIG    1       24.216 -20.926   5.508  0.00  0.00    +0.037 A 
ATOM      9  C   LIG    1       25.270 -20.587   4.650  0.00  0.00    +0.023 A 
ATOM     10  C   LIG    1       25.167 -19.564   3.698  0.00  0.00    +0.002 A 
ATOM     11  C   LIG    1       24.000 -18.825   3.582  0.00  0.00    +0.003 A 
ENDBRANCH   3   8
ENDBRANCH   1   3
BRANCH   1  12
ATOM     12  O   LIG    1       26.063 -23.547   6.601  0.00  0.00    -0.435 OA
BRANCH  12  13
ATOM     13  C   LIG    1       25.689 -24.911   6.316  0.00  0.00    +0.131 A 
ATOM     14  C   LIG    1       25.750 -25.950   7.237  0.00  0.00    +0.055 A 
ATOM     15  C   LIG    1       25.409 -27.258   6.850  0.00  0.00    -0.014 A 
ATOM     16  C   LIG    1       24.945 -27.497   5.527  0.00  0.00    -0.018 A 
ATOM     17  C   LIG    1       24.623 -28.808   5.140  0.00  0.00    +0.008 A 
ATOM     18  C   LIG    1       24.768 -29.876   6.026  0.00  0.00    +0.001 A 
ATOM     19  C   LIG    1       25.225 -29.645   7.322  0.00  0.00    +0.001 A 
ATOM     20  C   LIG    1       24.834 -26.418   4.641  0.00  0.00    +0.012 A 
ATOM     21  C   LIG    1       25.531 -28.346   7.730  0.00  0.00    +0.008 A 
ATOM     22  C   LIG    1       25.207 -25.128   5.025  0.00  0.00    +0.047 A 
ENDBRANCH  12  13
ENDBRANCH   1  12
TORSDOF 4
ENDMDL
MODEL 5
REMARK VINA RESULT:      -8.9      4.796      6.227
REMARK  Name = *****
REMARK                            x       y       z     vdW  Elec       q    Type
REMARK                         _______ _______ _______ _____ _____    ______ ____
ROOT
ATOM      1  C   LIG    1       24.331 -21.394   5.054  0.00  0.00    +0.240 C 
ATOM      2  S   LIG    1       22.763 -21.183   5.598  0.00  0.00    +0.007 S 
ENDROOT
BRANCH   1   3
ATOM      3  N   LIG    1       25.399 -20.464   4.998  0.00  0.00    -0.268 N 
ATOM      4  C   LIG    1       25.439 -19.563   3.837  0.00  0.00    +0.139 C 
BRANCH   3   8
ATOM      5  C   LIG    1       30.106 -19.060   6.043  0.00  0.00    +0.044 C 
ATOM      6  C   LIG    1       28.778 -19.574   6.515  0.00  0.00    -0.049 A 
ATOM      7  C   LIG    1       27.727 -19.779   5.596  0.00  0.00    +0.027 A 
ATOM      8  C   LIG    1       26.473 -20.309   5.974  0.00  0.00    +0.037 A 
ATOM      9  C   LIG    1       26.331 -20.607   7.336  0.00  0.00    +0.023 A 
ATOM     10  C   LIG    1       27.368 -20.421   8.260  0.00  0.00    +0.002 A 
ATOM     11  C   LIG    1       28.589 -19.908   7.853  0.00  0.00    +0.003 A 
ENDBRANCH   3   8
ENDBRANCH   1   3
BRANCH   1  12
ATOM     12  O   LIG    1       24.732 -22.706   4.664  0.00  0.00    -0.435 OA
BRANCH  12  13
ATOM     13  C   LIG    1       24.990 -23.979   5.293  0.00  0.00    +0.131 A 
ATOM     14  C   LIG    1       24.752 -25.211   4.697  0.00  0.00    +0.055 A 
ATOM     15  C   LIG    1       24.990 -26.400   5.409  0.00  0.00    -0.014 A 
ATOM     16  C   LIG    1       25.531 -26.330   6.723  0.00  0.00    -0.018 A 
ATOM     17  C   LIG    1       25.751 -27.518   7.438  0.00  0.00    +0.008 A 
ATOM     18  C   LIG    1       25.430 -28.759   6.887  0.00  0.00    +0.001 A 
ATOM     19  C   LIG    1       24.897 -28.830   5.601  0.00  0.00    +0.001 A 
ATOM     20  C   LIG    1       25.821 -25.074   7.273  0.00  0.00    +0.012 A 
ATOM     21  C   LIG    1       24.690 -27.660   4.869  0.00  0.00    +0.008 A 
ATOM     22  C   LIG    1       25.548 -23.899   6.569  0.00  0.00    +0.047 A 
ENDBRANCH  12  13
ENDBRANCH   1  12
TORSDOF 4
ENDMDL
MODEL 6
REMARK VINA RESULT:      -8.7      3.364      7.913
REMARK  Name = *****
REMARK                            x       y       z     vdW  Elec       q    Type
REMARK                         _______ _______ _______ _____ _____    ______ ____
ROOT
ATOM      1  C   LIG    1       25.185 -20.395   5.238  0.00  0.00    +0.240 C 
ATOM      2  S   LIG    1       24.095 -19.711   4.168  0.00  0.00    +0.007 S 
ENDROOT
BRANCH   1   3
ATOM      3  N   LIG    1       24.944 -21.204   6.376  0.00  0.00    -0.268 N 
ATOM      4  C   LIG    1       25.061 -20.556   7.691  0.00  0.00    +0.139 C 
BRANCH   3   8
ATOM      5  C   LIG    1       26.394 -26.001   6.046  0.00  0.00    +0.044 C 
ATOM      6  C   LIG    1       25.303 -24.995   6.270  0.00  0.00    -0.049 A 
ATOM      7  C   LIG    1       25.591 -23.614   6.230  0.00  0.00    +0.027 A 
ATOM      8  C   LIG    1       24.596 -22.621   6.382  0.00  0.00    +0.037 A 
ATOM      9  C   LIG    1       23.297 -23.099   6.593  0.00  0.00    +0.023 A 
ATOM     10  C   LIG    1       22.992 -24.466   6.624  0.00  0.00    +0.002 A 
ATOM     11  C   LIG    1       23.990 -25.413   6.462  0.00  0.00    +0.003 A 
ENDBRANCH   3   8
ENDBRANCH   1   3
BRANCH   1  12
ATOM     12  O   LIG    1       26.576 -20.253   4.956  0.00  0.00    -0.435 OA
BRANCH  12  13
ATOM     13  C   LIG    1       27.795 -19.992   5.681  0.00  0.00    +0.131 A 
ATOM     14  C   LIG    1       28.337 -20.843   6.637  0.00  0.00    +0.055 A 
ATOM     15  C   LIG    1       29.507 -20.478   7.328  0.00  0.00    -0.014 A 
ATOM     16  C   LIG    1       30.161 -19.258   6.997  0.00  0.00    -0.018 A 
ATOM     17  C   LIG    1       31.319 -18.889   7.700  0.00  0.00    +0.008 A 
ATOM     18  C   LIG    1       31.822 -19.689   8.727  0.00  0.00    +0.001 A 
ATOM     19  C   LIG    1       31.182 -20.883   9.054  0.00  0.00    +0.001 A 
ATOM     20  C   LIG    1       29.625 -18.453   5.984  0.00  0.00    +0.012 A 
ATOM     21  C   LIG    1       30.041 -21.275   8.352  0.00  0.00    +0.008 A 
ATOM     22  C   LIG    1       28.445 -18.808   5.329  0.00  0.00    +0.047 A 
ENDBRANCH  12  13
ENDBRANCH   1  12
TORSDOF 4
ENDMDL
MODEL 7
REMARK VINA RESULT:      -8.6      6.518      9.543
REMARK  Name = *****
REMARK                            x       y       z     vdW  Elec       q    Type
REMARK                         _______ _______ _______ _____ _____    ______ ____
ROOT
ATOM      1  C   LIG    1       25.042 -27.521   5.810  0.00  0.00    +0.240 C 
ATOM      2  S   LIG    1       26.194 -27.275   4.621  0.00  0.00    +0.007 S 
ENDROOT
BRANCH   1   3
ATOM      3  N   LIG    1       24.794 -28.671   6.601  0.00  0.00    -0.268 N 
ATOM      4  C   LIG    1       24.062 -29.774   5.962  0.00  0.00    +0.139 C 
BRANCH   3   8
ATOM      5  C   LIG    1       24.036 -30.971  11.000  0.00  0.00    +0.044 C 
ATOM      6  C   LIG    1       24.853 -30.038  10.156  0.00  0.00    -0.049 A 
ATOM      7  C   LIG    1       24.484 -29.781   8.818  0.00  0.00    +0.027 A 
ATOM      8  C   LIG    1       25.185 -28.875   7.992  0.00  0.00    +0.037 A 
ATOM      9  C   LIG    1       26.291 -28.252   8.585  0.00  0.00    +0.023 A 
ATOM     10  C   LIG    1       26.665 -28.487   9.915  0.00  0.00    +0.002 A 
ATOM     11  C   LIG    1       25.949 -29.376  10.700  0.00  0.00    +0.003 A 
ENDBRANCH   3   8
ENDBRANCH   1   3
BRANCH   1  12
ATOM     12  O   LIG    1       24.226 -26.414   6.189  0.00  0.00    -0.435 OA
BRANCH  12  13
ATOM     13  C   LIG    1       24.399 -25.027   6.545  0.00  0.00    +0.131 A 
ATOM     14  C   LIG    1       25.629 -24.426   6.784  0.00  0.00    +0.055 A 
ATOM     15  C   LIG    1       25.692 -23.076   7.174  0.00  0.00    -0.014 A 
ATOM     16  C   LIG    1       24.491 -22.317   7.263  0.00  0.00    -0.018 A 
ATOM     17  C   LIG    1       24.557 -20.975   7.669  0.00  0.00    +0.008 A 
ATOM     18  C   LIG    1       25.776 -20.384   8.003  0.00  0.00    +0.001 A 
ATOM     19  C   LIG    1       26.953 -21.125   7.918  0.00  0.00    +0.001 A 
ATOM     20  C   LIG    1       23.273 -22.936   6.954  0.00  0.00    +0.012 A 
ATOM     21  C   LIG    1       26.908 -22.455   7.497  0.00  0.00    +0.008 A 
ATOM     22  C   LIG    1       23.218 -24.286   6.601  0.00  0.00    +0.047 A 
ENDBRANCH  12  13
ENDBRANCH   1  12
TORSDOF 4
ENDMDL
MODEL 8
REMARK VINA RESULT:      -8.5      3.567      7.439
REMARK  Name = *****
REMARK                            x       y       z     vdW  Elec       q    Type
REMARK                         _______ _______ _______ _____ _____    ______ ____
ROOT
ATOM      1  C   LIG    1       24.566 -23.269   6.673  0.00  0.00    +0.240 C 
ATOM      2  S   LIG    1       24.882 -24.904   6.511  0.00  0.00    +0.007 S 
ENDROOT
BRANCH   1   3
ATOM      3  N   LIG    1       23.490 -22.503   6.158  0.00  0.00    -0.268 N 
ATOM      4  C   LIG    1       22.138 -22.871   6.604  0.00  0.00    +0.139 C 
BRANCH   3   8
ATOM      5  C   LIG    1       21.981 -17.927   4.746  0.00  0.00    +0.044 C 
ATOM      6  C   LIG    1       22.882 -19.108   4.541  0.00  0.00    -0.049 A 
ATOM      7  C   LIG    1       22.795 -20.226   5.398  0.00  0.00    +0.027 A 
ATOM      8  C   LIG    1       23.582 -21.387   5.223  0.00  0.00    +0.037 A 
ATOM      9  C   LIG    1       24.474 -21.352   4.144  0.00  0.00    +0.023 A 
ATOM     10  C   LIG    1       24.565 -20.255   3.276  0.00  0.00    +0.002 A 
ATOM     11  C   LIG    1       23.772 -19.136   3.472  0.00  0.00    +0.003 A 
ENDBRANCH   3   8
ENDBRANCH   1   3
BRANCH   1  12
ATOM     12  O   LIG    1       25.421 -22.504   7.520  0.00  0.00    -0.435 OA
BRANCH  12  13
ATOM     13  C   LIG    1       26.634 -21.731   7.402  0.00  0.00    +0.131 A 
ATOM     14  C   LIG    1       26.818 -20.691   6.500  0.00  0.00    +0.055 A 
ATOM     15  C   LIG    1       28.056 -20.028   6.427  0.00  0.00    -0.014 A 
ATOM     16  C   LIG    1       29.098 -20.393   7.325  0.00  0.00    -0.018 A 
ATOM     17  C   LIG    1       30.338 -19.741   7.237  0.00  0.00    +0.008 A 
ATOM     18  C   LIG    1       30.566 -18.757   6.273  0.00  0.00    +0.001 A 
ATOM     19  C   LIG    1       29.548 -18.400   5.392  0.00  0.00    +0.001 A 
ATOM     20  C   LIG    1       28.860 -21.403   8.266  0.00  0.00    +0.012 A 
ATOM     21  C   LIG    1       28.303 -19.024   5.478  0.00  0.00    +0.008 A 
ATOM     22  C   LIG    1       27.639 -22.078   8.306  0.00  0.00    +0.047 A 
ENDBRANCH  12  13
ENDBRANCH   1  12
TORSDOF 4
ENDMDL
MODEL 9
REMARK VINA RESULT:      -8.4      3.977      5.278
REMARK  Name = *****
REMARK                            x       y       z     vdW  Elec       q    Type
REMARK                         _______ _______ _______ _____ _____    ______ ____
ROOT
ATOM      1  C   LIG    1       25.987 -20.824   7.322  0.00  0.00    +0.240 C 
ATOM      2  S   LIG    1       25.769 -20.596   8.966  0.00  0.00    +0.007 S 
ENDROOT
BRANCH   1   3
ATOM      3  N   LIG    1       27.003 -20.323   6.470  0.00  0.00    -0.268 N 
ATOM      4  C   LIG    1       26.614 -19.998   5.089  0.00  0.00    +0.139 C 
BRANCH   3   8
ATOM      5  C   LIG    1       31.076 -21.712   9.057  0.00  0.00    +0.044 C 
ATOM      6  C   LIG    1       30.435 -20.802   8.051  0.00  0.00    -0.049 A 
ATOM      7  C   LIG    1       29.072 -20.958   7.719  0.00  0.00    +0.027 A 
ATOM      8  C   LIG    1       28.402 -20.100   6.818  0.00  0.00    +0.037 A 
ATOM      9  C   LIG    1       29.187 -19.084   6.257  0.00  0.00    +0.023 A 
ATOM     10  C   LIG    1       30.538 -18.908   6.585  0.00  0.00    +0.002 A 
ATOM     11  C   LIG    1       31.162 -19.762   7.480  0.00  0.00    +0.003 A 
ENDBRANCH   3   8
ENDBRANCH   1   3
BRANCH   1  12
ATOM     12  O   LIG    1       25.104 -21.718   6.649  0.00  0.00    -0.435 OA
BRANCH  12  13
ATOM     13  C   LIG    1       24.934 -23.143   6.495  0.00  0.00    +0.131 A 
ATOM     14  C   LIG    1       25.973 -24.039   6.279  0.00  0.00    +0.055 A 
ATOM     15  C   LIG    1       25.702 -25.406   6.092  0.00  0.00    -0.014 A 
ATOM     16  C   LIG    1       24.360 -25.870   6.184  0.00  0.00    -0.018 A 
ATOM     17  C   LIG    1       24.091 -27.233   5.979  0.00  0.00    +0.008 A 
ATOM     18  C   LIG    1       25.115 -28.129   5.670  0.00  0.00    +0.001 A 
ATOM     19  C   LIG    1       26.430 -27.676   5.576  0.00  0.00    +0.001 A 
ATOM     20  C   LIG    1       23.341 -24.951   6.466  0.00  0.00    +0.012 A 
ATOM     21  C   LIG    1       26.717 -26.328   5.796  0.00  0.00    +0.008 A 
ATOM     22  C   LIG    1       23.618 -23.591   6.616  0.00  0.00    +0.047 A 
ENDBRANCH  12  13
ENDBRANCH   1  12
TORSDOF 4
ENDMDL
