MODEL 1
REMARK VINA RESULT:      -7.0      0.000      0.000
REMARK  Name = *****
REMARK                            x       y       z     vdW  Elec       q    Type
REMARK                         _______ _______ _______ _____ _____    ______ ____
ROOT
ATOM      1  C   LIG    1       29.615 -18.512   5.791  0.00  0.00    +0.276 C 
ATOM      2  N   LIG    1       29.915 -19.241   7.017  0.00  0.00    -0.224 N 
ATOM      3  C   LIG    1       29.237 -20.409   7.362  0.00  0.00    +0.307 C 
ATOM      4  N   LIG    1       29.680 -21.282   8.212  0.00  0.00    -0.083 NA
ATOM      5  C   LIG    1       30.987 -21.079   8.829  0.00  0.00    +0.294 C 
ATOM      6  C   LIG    1       31.335 -19.612   8.949  0.00  0.00    +0.093 C 
ATOM      7  C   LIG    1       31.243 -18.998   7.569  0.00  0.00    +0.229 C 
ENDROOT
BRANCH   3   8
ATOM      8  C   LIG    1       27.878 -20.691   6.788  0.00  0.00    +0.100 C 
ATOM      9  C   LIG    1       26.768 -20.429   7.496  0.00  0.00    +0.023 C 
BRANCH   9  10
ATOM     10  C   LIG    1       25.460 -20.686   6.988  0.00  0.00    +0.012 A 
ATOM     11  S   LIG    1       25.207 -20.653   5.280  0.00  0.00    -0.097 S 
ATOM     12  C   LIG    1       23.546 -21.013   5.434  0.00  0.00    +0.045 A 
ATOM     13  C   LIG    1       23.174 -21.172   6.748  0.00  0.00    +0.008 A 
ATOM     14  C   LIG    1       24.272 -20.986   7.637  0.00  0.00    +0.015 A 
ENDBRANCH   9  10
ENDBRANCH   3   8
TORSDOF 2
ENDMDL
MODEL 2
REMARK VINA RESULT:      -6.8      1.172      1.242
REMARK  Name = *****
REMARK                            x       y       z     vdW  Elec       q    Type
REMARK                         _______ _______ _______ _____ _____    ______ ____
ROOT
ATOM      1  C   LIG    1       29.298 -18.705   5.761  0.00  0.00    +0.276 C 
ATOM      2  N   LIG    1       29.756 -19.322   6.999  0.00  0.00    -0.224 N 
ATOM      3  C   LIG    1       29.063 -20.376   7.593  0.00  0.00    +0.307 C 
ATOM      4  N   LIG    1       29.582 -21.192   8.457  0.00  0.00    -0.083 NA
ATOM      5  C   LIG    1       30.990 -21.051   8.816  0.00  0.00    +0.294 C 
ATOM      6  C   LIG    1       31.464 -19.620   8.696  0.00  0.00    +0.093 C 
ATOM      7  C   LIG    1       31.175 -19.151   7.286  0.00  0.00    +0.229 C 
ENDROOT
BRANCH   3   8
ATOM      8  C   LIG    1       27.606 -20.586   7.296  0.00  0.00    +0.100 C 
ATOM      9  C   LIG    1       26.976 -21.698   7.707  0.00  0.00    +0.023 C 
BRANCH   9  10
ATOM     10  C   LIG    1       25.595 -21.935   7.442  0.00  0.00    +0.012 A 
ATOM     11  S   LIG    1       25.106 -23.497   6.892  0.00  0.00    -0.097 S 
ATOM     12  C   LIG    1       23.464 -23.042   6.796  0.00  0.00    +0.045 A 
ATOM     13  C   LIG    1       23.268 -21.738   7.182  0.00  0.00    +0.008 A 
ATOM     14  C   LIG    1       24.490 -21.105   7.554  0.00  0.00    +0.015 A 
ENDBRANCH   9  10
ENDBRANCH   3   8
TORSDOF 2
ENDMDL
MODEL 3
REMARK VINA RESULT:      -6.7      2.801      6.409
REMARK  Name = *****
REMARK                            x       y       z     vdW  Elec       q    Type
REMARK                         _______ _______ _______ _____ _____    ______ ____
ROOT
ATOM      1  C   LIG    1       23.843 -21.820   7.333  0.00  0.00    +0.276 C 
ATOM      2  N   LIG    1       23.927 -20.868   6.233  0.00  0.00    -0.224 N 
ATOM      3  C   LIG    1       25.149 -20.502   5.671  0.00  0.00    +0.307 C 
ATOM      4  N   LIG    1       25.278 -19.969   4.496  0.00  0.00    -0.083 NA
ATOM      5  C   LIG    1       24.092 -19.767   3.670  0.00  0.00    +0.294 C 
ATOM      6  C   LIG    1       22.850 -19.549   4.505  0.00  0.00    +0.093 C 
ATOM      7  C   LIG    1       22.709 -20.727   5.444  0.00  0.00    +0.229 C 
ENDROOT
BRANCH   3   8
ATOM      8  C   LIG    1       26.420 -20.659   6.456  0.00  0.00    +0.100 C 
ATOM      9  C   LIG    1       27.545 -20.039   6.068  0.00  0.00    +0.023 C 
BRANCH   9  10
ATOM     10  C   LIG    1       28.772 -20.165   6.785  0.00  0.00    +0.012 A 
ATOM     11  S   LIG    1       30.030 -19.019   6.497  0.00  0.00    -0.097 S 
ATOM     12  C   LIG    1       31.082 -19.765   7.615  0.00  0.00    +0.045 A 
ATOM     13  C   LIG    1       30.503 -20.857   8.215  0.00  0.00    +0.008 A 
ATOM     14  C   LIG    1       29.178 -21.084   7.741  0.00  0.00    +0.015 A 
ENDBRANCH   9  10
ENDBRANCH   3   8
TORSDOF 2
ENDMDL
MODEL 4
REMARK VINA RESULT:      -6.7      2.672      6.459
REMARK  Name = *****
REMARK                            x       y       z     vdW  Elec       q    Type
REMARK                         _______ _______ _______ _____ _____    ______ ____
ROOT
ATOM      1  C   LIG    1       24.283 -21.972   7.542  0.00  0.00    +0.276 C 
ATOM      2  N   LIG    1       24.173 -21.067   6.404  0.00  0.00    -0.224 N 
ATOM      3  C   LIG    1       25.299 -20.573   5.748  0.00  0.00    +0.307 C 
ATOM      4  N   LIG    1       25.284 -20.080   4.549  0.00  0.00    -0.083 NA
ATOM      5  C   LIG    1       24.033 -20.070   3.797  0.00  0.00    +0.294 C 
ATOM      6  C   LIG    1       22.827 -19.977   4.705  0.00  0.00    +0.093 C 
ATOM      7  C   LIG    1       22.900 -21.120   5.694  0.00  0.00    +0.229 C 
ENDROOT
BRANCH   3   8
ATOM      8  C   LIG    1       26.625 -20.528   6.452  0.00  0.00    +0.100 C 
ATOM      9  C   LIG    1       27.678 -19.911   5.891  0.00  0.00    +0.023 C 
BRANCH   9  10
ATOM     10  C   LIG    1       28.954 -19.851   6.526  0.00  0.00    +0.012 A 
ATOM     11  S   LIG    1       29.314 -20.975   7.786  0.00  0.00    -0.097 S 
ATOM     12  C   LIG    1       30.874 -20.328   8.032  0.00  0.00    +0.045 A 
ATOM     13  C   LIG    1       31.140 -19.287   7.176  0.00  0.00    +0.008 A 
ATOM     14  C   LIG    1       30.039 -19.015   6.312  0.00  0.00    +0.015 A 
ENDBRANCH   9  10
ENDBRANCH   3   8
TORSDOF 2
ENDMDL
MODEL 5
REMARK VINA RESULT:      -6.4      3.007      6.434
REMARK  Name = *****
REMARK                            x       y       z     vdW  Elec       q    Type
REMARK                         _______ _______ _______ _____ _____    ______ ____
ROOT
ATOM      1  C   LIG    1       25.968 -24.737   6.660  0.00  0.00    +0.276 C 
ATOM      2  N   LIG    1       24.940 -23.711   6.784  0.00  0.00    -0.224 N 
ATOM      3  C   LIG    1       25.241 -22.354   6.680  0.00  0.00    +0.307 C 
ATOM      4  N   LIG    1       24.365 -21.433   6.418  0.00  0.00    -0.083 NA
ATOM      5  C   LIG    1       22.980 -21.816   6.168  0.00  0.00    +0.294 C 
ATOM      6  C   LIG    1       22.600 -23.082   6.905  0.00  0.00    +0.093 C 
ATOM      7  C   LIG    1       23.582 -24.163   6.508  0.00  0.00    +0.229 C 
ENDROOT
BRANCH   3   8
ATOM      8  C   LIG    1       26.638 -21.867   6.937  0.00  0.00    +0.100 C 
ATOM      9  C   LIG    1       27.062 -20.701   6.425  0.00  0.00    +0.023 C 
BRANCH   9  10
ATOM     10  C   LIG    1       28.382 -20.206   6.645  0.00  0.00    +0.012 A 
ATOM     11  S   LIG    1       29.383 -20.989   7.814  0.00  0.00    -0.097 S 
ATOM     12  C   LIG    1       30.685 -19.920   7.538  0.00  0.00    +0.045 A 
ATOM     13  C   LIG    1       30.390 -18.988   6.572  0.00  0.00    +0.008 A 
ATOM     14  C   LIG    1       29.071 -19.154   6.059  0.00  0.00    +0.015 A 
ENDBRANCH   9  10
ENDBRANCH   3   8
TORSDOF 2
ENDMDL
MODEL 6
REMARK VINA RESULT:      -6.4      2.649      6.105
REMARK  Name = *****
REMARK                            x       y       z     vdW  Elec       q    Type
REMARK                         _______ _______ _______ _____ _____    ______ ____
ROOT
ATOM      1  C   LIG    1       25.172 -19.583   3.804  0.00  0.00    +0.276 C 
ATOM      2  N   LIG    1       24.633 -20.393   4.889  0.00  0.00    -0.224 N 
ATOM      3  C   LIG    1       25.316 -20.557   6.092  0.00  0.00    +0.307 C 
ATOM      4  N   LIG    1       24.759 -20.940   7.199  0.00  0.00    -0.083 NA
ATOM      5  C   LIG    1       23.320 -21.179   7.228  0.00  0.00    +0.294 C 
ATOM      6  C   LIG    1       22.792 -21.623   5.882  0.00  0.00    +0.093 C 
ATOM      7  C   LIG    1       23.187 -20.579   4.860  0.00  0.00    +0.229 C 
ENDROOT
BRANCH   3   8
ATOM      8  C   LIG    1       26.803 -20.349   6.152  0.00  0.00    +0.100 C 
ATOM      9  C   LIG    1       27.451 -20.372   7.327  0.00  0.00    +0.023 C 
BRANCH   9  10
ATOM     10  C   LIG    1       28.861 -20.176   7.425  0.00  0.00    +0.012 A 
ATOM     11  S   LIG    1       29.596 -18.922   6.494  0.00  0.00    -0.097 S 
ATOM     12  C   LIG    1       31.156 -19.283   7.084  0.00  0.00    +0.045 A 
ATOM     13  C   LIG    1       31.139 -20.324   7.981  0.00  0.00    +0.008 A 
ATOM     14  C   LIG    1       29.822 -20.834   8.177  0.00  0.00    +0.015 A 
ENDBRANCH   9  10
ENDBRANCH   3   8
TORSDOF 2
ENDMDL
MODEL 7
REMARK VINA RESULT:      -6.2      3.027      6.199
REMARK  Name = *****
REMARK                            x       y       z     vdW  Elec       q    Type
REMARK                         _______ _______ _______ _____ _____    ______ ____
ROOT
ATOM      1  C   LIG    1       23.685 -20.817   7.043  0.00  0.00    +0.276 C 
ATOM      2  N   LIG    1       24.138 -22.158   6.693  0.00  0.00    -0.224 N 
ATOM      3  C   LIG    1       25.491 -22.492   6.670  0.00  0.00    +0.307 C 
ATOM      4  N   LIG    1       25.941 -23.708   6.730  0.00  0.00    -0.083 NA
ATOM      5  C   LIG    1       24.997 -24.811   6.875  0.00  0.00    +0.294 C 
ATOM      6  C   LIG    1       23.655 -24.494   6.254  0.00  0.00    +0.093 C 
ATOM      7  C   LIG    1       23.146 -23.211   6.875  0.00  0.00    +0.229 C 
ENDROOT
BRANCH   3   8
ATOM      8  C   LIG    1       26.532 -21.422   6.507  0.00  0.00    +0.100 C 
ATOM      9  C   LIG    1       27.724 -21.527   7.117  0.00  0.00    +0.023 C 
BRANCH   9  10
ATOM     10  C   LIG    1       28.737 -20.531   6.989  0.00  0.00    +0.012 A 
ATOM     11  S   LIG    1       30.133 -20.623   8.001  0.00  0.00    -0.097 S 
ATOM     12  C   LIG    1       30.818 -19.213   7.327  0.00  0.00    +0.045 A 
ATOM     13  C   LIG    1       30.025 -18.675   6.343  0.00  0.00    +0.008 A 
ATOM     14  C   LIG    1       28.833 -19.432   6.148  0.00  0.00    +0.015 A 
ENDBRANCH   9  10
ENDBRANCH   3   8
TORSDOF 2
ENDMDL
MODEL 8
REMARK VINA RESULT:      -6.1      1.654      2.498
REMARK  Name = *****
REMARK                            x       y       z     vdW  Elec       q    Type
REMARK                         _______ _______ _______ _____ _____    ______ ____
ROOT
ATOM      1  C   LIG    1       30.794 -22.114   9.115  0.00  0.00    +0.276 C 
ATOM      2  N   LIG    1       30.659 -20.824   8.451  0.00  0.00    -0.224 N 
ATOM      3  C   LIG    1       29.448 -20.403   7.904  0.00  0.00    +0.307 C 
ATOM      4  N   LIG    1       29.161 -19.167   7.636  0.00  0.00    -0.083 NA
ATOM      5  C   LIG    1       30.129 -18.124   7.958  0.00  0.00    +0.294 C 
ATOM      6  C   LIG    1       31.552 -18.636   7.903  0.00  0.00    +0.093 C 
ATOM      7  C   LIG    1       31.654 -19.828   8.830  0.00  0.00    +0.229 C 
ENDROOT
BRANCH   3   8
ATOM      8  C   LIG    1       28.398 -21.410   7.527  0.00  0.00    +0.100 C 
ATOM      9  C   LIG    1       27.095 -21.143   7.710  0.00  0.00    +0.023 C 
BRANCH   9  10
ATOM     10  C   LIG    1       26.070 -22.073   7.367  0.00  0.00    +0.012 A 
ATOM     11  S   LIG    1       24.437 -21.522   7.277  0.00  0.00    -0.097 S 
ATOM     12  C   LIG    1       23.848 -23.069   6.860  0.00  0.00    +0.045 A 
ATOM     13  C   LIG    1       24.858 -23.997   6.773  0.00  0.00    +0.008 A 
ATOM     14  C   LIG    1       26.132 -23.425   7.061  0.00  0.00    +0.015 A 
ENDBRANCH   9  10
ENDBRANCH   3   8
TORSDOF 2
ENDMDL
MODEL 9
REMARK VINA RESULT:      -5.9      4.959      6.139
REMARK  Name = *****
REMARK                            x       y       z     vdW  Elec       q    Type
REMARK                         _______ _______ _______ _____ _____    ______ ____
ROOT
ATOM      1  C   LIG    1       23.067 -22.171   6.552  0.00  0.00    +0.276 C 
ATOM      2  N   LIG    1       24.366 -22.027   7.199  0.00  0.00    -0.224 N 
ATOM      3  C   LIG    1       25.355 -23.001   7.085  0.00  0.00    +0.307 C 
ATOM      4  N   LIG    1       26.614 -22.789   7.311  0.00  0.00    -0.083 NA
ATOM      5  C   LIG    1       27.059 -21.445   7.665  0.00  0.00    +0.294 C 
ATOM      6  C   LIG    1       25.984 -20.664   8.387  0.00  0.00    +0.093 C 
ATOM      7  C   LIG    1       24.749 -20.655   7.512  0.00  0.00    +0.229 C 
ENDROOT
BRANCH   3   8
ATOM      8  C   LIG    1       24.986 -24.416   6.741  0.00  0.00    +0.100 C 
ATOM      9  C   LIG    1       25.909 -25.391   6.771  0.00  0.00    +0.023 C 
BRANCH   9  10
ATOM     10  C   LIG    1       25.598 -26.746   6.449  0.00  0.00    +0.012 A 
ATOM     11  S   LIG    1       25.609 -27.234   4.793  0.00  0.00    -0.097 S 
ATOM     12  C   LIG    1       25.173 -28.839   5.176  0.00  0.00    +0.045 A 
ATOM     13  C   LIG    1       25.029 -29.024   6.530  0.00  0.00    +0.008 A 
ATOM     14  C   LIG    1       25.275 -27.824   7.259  0.00  0.00    +0.015 A 
ENDBRANCH   9  10
ENDBRANCH   3   8
TORSDOF 2
ENDMDL
