MODEL 1
REMARK VINA RESULT:      -8.4      0.000      0.000
REMARK  Name = *****
REMARK                            x       y       z     vdW  Elec       q    Type
REMARK                         _______ _______ _______ _____ _____    ______ ____
ROOT
ATOM      1  C   LIG    1       25.919 -21.437   7.038  0.00  0.00    +0.132 C 
ENDROOT
BRANCH   1   2
ATOM      2  C   LIG    1       24.972 -20.665   6.095  0.00  0.00    +0.023 A 
ATOM      3  C   LIG    1       23.622 -20.422   6.402  0.00  0.00    +0.132 A 
ATOM      4  F   LIG    1       23.119 -20.784   7.586  0.00  0.00    -0.205 F 
ATOM      5  C   LIG    1       22.751 -19.812   5.491  0.00  0.00    +0.077 A 
ATOM      6  C   LIG    1       23.233 -19.398   4.267  0.00  0.00    +0.126 A 
ATOM      7  F   LIG    1       22.394 -18.842   3.377  0.00  0.00    -0.205 F 
ATOM      8  C   LIG    1       24.571 -19.554   3.939  0.00  0.00    +0.039 A 
ATOM      9  C   LIG    1       25.435 -20.181   4.850  0.00  0.00    +0.012 A 
ENDBRANCH   1   2
BRANCH   1  10
ATOM     10  O   LIG    1       26.859 -22.094   6.140  0.00  0.00    -0.380 OA
ATOM     11  H   LIG    1       27.541 -21.427   5.900  0.00  0.00    +0.211 HD
ENDBRANCH   1  10
BRANCH   1  12
ATOM     12  C   LIG    1       26.752 -20.484   7.930  0.00  0.00    +0.186 C 
BRANCH  12  13
ATOM     13  N   LIG    1       28.178 -20.460   7.729  0.00  0.00    -0.249 N 
ATOM     14  N   LIG    1       28.956 -21.361   8.349  0.00  0.00    -0.158 NA
ATOM     15  C   LIG    1       30.164 -20.806   8.219  0.00  0.00    +0.244 A 
ATOM     16  N   LIG    1       30.193 -19.640   7.512  0.00  0.00    -0.223 NA
ATOM     17  C   LIG    1       28.926 -19.435   7.225  0.00  0.00    +0.219 A 
ENDBRANCH  12  13
ENDBRANCH   1  12
BRANCH   1  18
ATOM     18  C   LIG    1       25.218 -22.570   7.849  0.00  0.00    +0.186 C 
BRANCH  18  19
ATOM     19  N   LIG    1       24.898 -23.775   7.096  0.00  0.00    -0.249 N 
ATOM     20  N   LIG    1       25.813 -24.741   6.871  0.00  0.00    -0.158 NA
ATOM     21  C   LIG    1       25.049 -25.720   6.375  0.00  0.00    +0.244 A 
ATOM     22  N   LIG    1       23.730 -25.410   6.237  0.00  0.00    -0.223 NA
ATOM     23  C   LIG    1       23.666 -24.169   6.673  0.00  0.00    +0.219 A 
ENDBRANCH  18  19
ENDBRANCH   1  18
TORSDOF 6
ENDMDL
MODEL 2
REMARK VINA RESULT:      -8.3      1.075      1.481
REMARK  Name = *****
REMARK                            x       y       z     vdW  Elec       q    Type
REMARK                         _______ _______ _______ _____ _____    ______ ____
ROOT
ATOM      1  C   LIG    1       25.583 -21.342   6.778  0.00  0.00    +0.132 C 
ENDROOT
BRANCH   1   2
ATOM      2  C   LIG    1       24.606 -20.580   5.858  0.00  0.00    +0.023 A 
ATOM      3  C   LIG    1       25.022 -19.904   4.697  0.00  0.00    +0.132 A 
ATOM      4  F   LIG    1       26.294 -19.970   4.292  0.00  0.00    -0.205 F 
ATOM      5  C   LIG    1       24.141 -19.131   3.932  0.00  0.00    +0.077 A 
ATOM      6  C   LIG    1       22.813 -19.056   4.297  0.00  0.00    +0.126 A 
ATOM      7  F   LIG    1       21.971 -18.290   3.584  0.00  0.00    -0.205 F 
ATOM      8  C   LIG    1       22.336 -19.756   5.395  0.00  0.00    +0.039 A 
ATOM      9  C   LIG    1       23.228 -20.516   6.168  0.00  0.00    +0.012 A 
ENDBRANCH   1   2
BRANCH   1  10
ATOM     10  O   LIG    1       26.468 -22.042   5.857  0.00  0.00    -0.380 OA
ATOM     11  H   LIG    1       27.276 -21.489   5.759  0.00  0.00    +0.211 HD
ENDBRANCH   1  10
BRANCH   1  12
ATOM     12  C   LIG    1       26.472 -20.381   7.603  0.00  0.00    +0.186 C 
BRANCH  12  13
ATOM     13  N   LIG    1       27.900 -20.498   7.451  0.00  0.00    -0.249 N 
ATOM     14  N   LIG    1       28.583 -21.368   8.211  0.00  0.00    -0.158 NA
ATOM     15  C   LIG    1       29.837 -20.934   8.052  0.00  0.00    +0.244 A 
ATOM     16  N   LIG    1       29.981 -19.880   7.199  0.00  0.00    -0.223 NA
ATOM     17  C   LIG    1       28.743 -19.614   6.843  0.00  0.00    +0.219 A 
ENDBRANCH  12  13
ENDBRANCH   1  12
BRANCH   1  18
ATOM     18  C   LIG    1       24.901 -22.439   7.653  0.00  0.00    +0.186 C 
BRANCH  18  19
ATOM     19  N   LIG    1       24.728 -23.736   7.013  0.00  0.00    -0.249 N 
ATOM     20  N   LIG    1       25.746 -24.614   6.892  0.00  0.00    -0.158 NA
ATOM     21  C   LIG    1       25.102 -25.712   6.479  0.00  0.00    +0.244 A 
ATOM     22  N   LIG    1       23.761 -25.560   6.295  0.00  0.00    -0.223 NA
ATOM     23  C   LIG    1       23.555 -24.298   6.611  0.00  0.00    +0.219 A 
ENDBRANCH  18  19
ENDBRANCH   1  18
TORSDOF 6
ENDMDL
MODEL 3
REMARK VINA RESULT:      -8.2      1.129      4.786
REMARK  Name = *****
REMARK                            x       y       z     vdW  Elec       q    Type
REMARK                         _______ _______ _______ _____ _____    ______ ____
ROOT
ATOM      1  C   LIG    1       26.136 -21.255   7.391  0.00  0.00    +0.132 C 
ENDROOT
BRANCH   1   2
ATOM      2  C   LIG    1       25.216 -20.639   6.316  0.00  0.00    +0.023 A 
ATOM      3  C   LIG    1       23.838 -20.442   6.513  0.00  0.00    +0.132 A 
ATOM      4  F   LIG    1       23.277 -20.708   7.696  0.00  0.00    -0.205 F 
ATOM      5  C   LIG    1       23.001 -19.979   5.492  0.00  0.00    +0.077 A 
ATOM      6  C   LIG    1       23.540 -19.666   4.261  0.00  0.00    +0.126 A 
ATOM      7  F   LIG    1       22.736 -19.253   3.269  0.00  0.00    -0.205 F 
ATOM      8  C   LIG    1       24.903 -19.780   4.033  0.00  0.00    +0.039 A 
ATOM      9  C   LIG    1       25.736 -20.260   5.057  0.00  0.00    +0.012 A 
ENDBRANCH   1   2
BRANCH   1  10
ATOM     10  O   LIG    1       26.112 -20.287   8.479  0.00  0.00    -0.380 OA
ATOM     11  H   LIG    1       26.707 -20.631   9.183  0.00  0.00    +0.211 HD
ENDBRANCH   1  10
BRANCH   1  12
ATOM     12  C   LIG    1       25.561 -22.574   7.960  0.00  0.00    +0.186 C 
BRANCH  12  13
ATOM     13  N   LIG    1       25.192 -23.601   7.019  0.00  0.00    -0.249 N 
ATOM     14  N   LIG    1       23.897 -23.904   6.836  0.00  0.00    -0.158 NA
ATOM     15  C   LIG    1       23.985 -25.084   6.214  0.00  0.00    +0.244 A 
ATOM     16  N   LIG    1       25.254 -25.509   5.955  0.00  0.00    -0.223 NA
ATOM     17  C   LIG    1       25.999 -24.562   6.484  0.00  0.00    +0.219 A 
ENDBRANCH  12  13
ENDBRANCH   1  12
BRANCH   1  18
ATOM     18  C   LIG    1       27.627 -21.384   6.949  0.00  0.00    +0.186 C 
BRANCH  18  19
ATOM     19  N   LIG    1       28.454 -20.206   7.178  0.00  0.00    -0.249 N 
ATOM     20  N   LIG    1       28.907 -19.881   8.407  0.00  0.00    -0.158 NA
ATOM     21  C   LIG    1       29.782 -18.912   8.119  0.00  0.00    +0.244 A 
ATOM     22  N   LIG    1       29.870 -18.586   6.800  0.00  0.00    -0.223 NA
ATOM     23  C   LIG    1       29.002 -19.397   6.231  0.00  0.00    +0.219 A 
ENDBRANCH  18  19
ENDBRANCH   1  18
TORSDOF 6
ENDMDL
MODEL 4
REMARK VINA RESULT:      -8.1      1.785      4.626
REMARK  Name = *****
REMARK                            x       y       z     vdW  Elec       q    Type
REMARK                         _______ _______ _______ _____ _____    ______ ____
ROOT
ATOM      1  C   LIG    1       24.378 -23.268   6.292  0.00  0.00    +0.132 C 
ENDROOT
BRANCH   1   2
ATOM      2  C   LIG    1       24.017 -21.894   5.688  0.00  0.00    +0.023 A 
ATOM      3  C   LIG    1       23.198 -20.961   6.349  0.00  0.00    +0.132 A 
ATOM      4  F   LIG    1       22.764 -21.199   7.590  0.00  0.00    -0.205 F 
ATOM      5  C   LIG    1       22.797 -19.765   5.744  0.00  0.00    +0.077 A 
ATOM      6  C   LIG    1       23.243 -19.465   4.473  0.00  0.00    +0.126 A 
ATOM      7  F   LIG    1       22.834 -18.334   3.876  0.00  0.00    -0.205 F 
ATOM      8  C   LIG    1       24.104 -20.320   3.802  0.00  0.00    +0.039 A 
ATOM      9  C   LIG    1       24.490 -21.525   4.408  0.00  0.00    +0.012 A 
ENDBRANCH   1   2
BRANCH   1  10
ATOM     10  O   LIG    1       23.089 -23.908   6.518  0.00  0.00    -0.380 OA
ATOM     11  H   LIG    1       22.991 -24.607   5.833  0.00  0.00    +0.211 HD
ENDBRANCH   1  10
BRANCH   1  12
ATOM     12  C   LIG    1       25.144 -24.160   5.286  0.00  0.00    +0.186 C 
BRANCH  12  13
ATOM     13  N   LIG    1       25.228 -25.569   5.573  0.00  0.00    -0.249 N 
ATOM     14  N   LIG    1       24.124 -26.329   5.515  0.00  0.00    -0.158 NA
ATOM     15  C   LIG    1       24.517 -27.423   6.174  0.00  0.00    +0.244 A 
ATOM     16  N   LIG    1       25.814 -27.411   6.595  0.00  0.00    -0.223 NA
ATOM     17  C   LIG    1       26.238 -26.225   6.216  0.00  0.00    +0.219 A 
ENDBRANCH  12  13
ENDBRANCH   1  12
BRANCH   1  18
ATOM     18  C   LIG    1       25.077 -23.182   7.684  0.00  0.00    +0.186 C 
BRANCH  18  19
ATOM     19  N   LIG    1       26.096 -22.149   7.812  0.00  0.00    -0.249 N 
ATOM     20  N   LIG    1       27.188 -22.120   7.020  0.00  0.00    -0.158 NA
ATOM     21  C   LIG    1       27.698 -20.920   7.315  0.00  0.00    +0.244 A 
ATOM     22  N   LIG    1       27.020 -20.222   8.268  0.00  0.00    -0.223 NA
ATOM     23  C   LIG    1       26.030 -21.031   8.585  0.00  0.00    +0.219 A 
ENDBRANCH  18  19
ENDBRANCH   1  18
TORSDOF 6
ENDMDL
MODEL 5
REMARK VINA RESULT:      -7.9      2.707      5.416
REMARK  Name = *****
REMARK                            x       y       z     vdW  Elec       q    Type
REMARK                         _______ _______ _______ _____ _____    ______ ____
ROOT
ATOM      1  C   LIG    1       25.698 -21.852   6.689  0.00  0.00    +0.132 C 
ENDROOT
BRANCH   1   2
ATOM      2  C   LIG    1       27.067 -21.143   6.748  0.00  0.00    +0.023 A 
ATOM      3  C   LIG    1       27.429 -20.108   5.868  0.00  0.00    +0.132 A 
ATOM      4  F   LIG    1       26.549 -19.630   4.984  0.00  0.00    -0.205 F 
ATOM      5  C   LIG    1       28.712 -19.548   5.869  0.00  0.00    +0.077 A 
ATOM      6  C   LIG    1       29.645 -19.991   6.782  0.00  0.00    +0.126 A 
ATOM      7  F   LIG    1       30.887 -19.480   6.764  0.00  0.00    -0.205 F 
ATOM      8  C   LIG    1       29.321 -20.964   7.715  0.00  0.00    +0.039 A 
ATOM      9  C   LIG    1       28.038 -21.533   7.699  0.00  0.00    +0.012 A 
ENDBRANCH   1   2
BRANCH   1  10
ATOM     10  O   LIG    1       25.535 -22.197   5.283  0.00  0.00    -0.380 OA
ATOM     11  H   LIG    1       26.339 -22.697   5.015  0.00  0.00    +0.211 HD
ENDBRANCH   1  10
BRANCH   1  12
ATOM     12  C   LIG    1       25.701 -23.186   7.474  0.00  0.00    +0.186 C 
BRANCH  12  13
ATOM     13  N   LIG    1       25.318 -24.379   6.764  0.00  0.00    -0.249 N 
ATOM     14  N   LIG    1       26.206 -24.998   5.971  0.00  0.00    -0.158 NA
ATOM     15  C   LIG    1       25.410 -25.787   5.244  0.00  0.00    +0.244 A 
ATOM     16  N   LIG    1       24.087 -25.735   5.570  0.00  0.00    -0.223 NA
ATOM     17  C   LIG    1       24.052 -24.829   6.523  0.00  0.00    +0.219 A 
ENDBRANCH  12  13
ENDBRANCH   1  12
BRANCH   1  18
ATOM     18  C   LIG    1       24.493 -20.932   7.060  0.00  0.00    +0.186 C 
BRANCH  18  19
ATOM     19  N   LIG    1       23.501 -20.744   6.010  0.00  0.00    -0.249 N 
ATOM     20  N   LIG    1       22.604 -21.701   5.694  0.00  0.00    -0.158 NA
ATOM     21  C   LIG    1       21.777 -21.033   4.883  0.00  0.00    +0.244 A 
ATOM     22  N   LIG    1       22.126 -19.739   4.641  0.00  0.00    -0.223 NA
ATOM     23  C   LIG    1       23.232 -19.590   5.340  0.00  0.00    +0.219 A 
ENDBRANCH  18  19
ENDBRANCH   1  18
TORSDOF 6
ENDMDL
MODEL 6
REMARK VINA RESULT:      -7.9      1.174      1.632
REMARK  Name = *****
REMARK                            x       y       z     vdW  Elec       q    Type
REMARK                         _______ _______ _______ _____ _____    ______ ____
ROOT
ATOM      1  C   LIG    1       24.933 -22.848   6.540  0.00  0.00    +0.132 C 
ENDROOT
BRANCH   1   2
ATOM      2  C   LIG    1       24.279 -21.640   5.838  0.00  0.00    +0.023 A 
ATOM      3  C   LIG    1       23.271 -20.863   6.437  0.00  0.00    +0.132 A 
ATOM      4  F   LIG    1       22.895 -21.094   7.698  0.00  0.00    -0.205 F 
ATOM      5  C   LIG    1       22.616 -19.836   5.747  0.00  0.00    +0.077 A 
ATOM      6  C   LIG    1       22.990 -19.544   4.452  0.00  0.00    +0.126 A 
ATOM      7  F   LIG    1       22.342 -18.581   3.775  0.00  0.00    -0.205 F 
ATOM      8  C   LIG    1       24.022 -20.235   3.836  0.00  0.00    +0.039 A 
ATOM      9  C   LIG    1       24.664 -21.275   4.528  0.00  0.00    +0.012 A 
ENDBRANCH   1   2
BRANCH   1  10
ATOM     10  O   LIG    1       25.986 -23.266   5.624  0.00  0.00    -0.380 OA
ATOM     11  H   LIG    1       26.494 -22.459   5.383  0.00  0.00    +0.211 HD
ENDBRANCH   1  10
BRANCH   1  12
ATOM     12  C   LIG    1       25.631 -22.443   7.861  0.00  0.00    +0.186 C 
BRANCH  12  13
ATOM     13  N   LIG    1       26.735 -21.523   7.777  0.00  0.00    -0.249 N 
ATOM     14  N   LIG    1       27.925 -21.946   7.324  0.00  0.00    -0.158 NA
ATOM     15  C   LIG    1       28.732 -20.962   7.731  0.00  0.00    +0.244 A 
ATOM     16  N   LIG    1       28.109 -19.927   8.364  0.00  0.00    -0.223 NA
ATOM     17  C   LIG    1       26.851 -20.310   8.393  0.00  0.00    +0.219 A 
ENDBRANCH  12  13
ENDBRANCH   1  12
BRANCH   1  18
ATOM     18  C   LIG    1       23.982 -24.074   6.707  0.00  0.00    +0.186 C 
BRANCH  18  19
ATOM     19  N   LIG    1       24.561 -25.368   6.372  0.00  0.00    -0.249 N 
ATOM     20  N   LIG    1       25.657 -25.844   6.998  0.00  0.00    -0.158 NA
ATOM     21  C   LIG    1       25.686 -27.107   6.560  0.00  0.00    +0.244 A 
ATOM     22  N   LIG    1       24.707 -27.432   5.671  0.00  0.00    -0.223 NA
ATOM     23  C   LIG    1       24.028 -26.311   5.547  0.00  0.00    +0.219 A 
ENDBRANCH  18  19
ENDBRANCH   1  18
TORSDOF 6
ENDMDL
MODEL 7
REMARK VINA RESULT:      -7.5      3.069      4.896
REMARK  Name = *****
REMARK                            x       y       z     vdW  Elec       q    Type
REMARK                         _______ _______ _______ _____ _____    ______ ____
ROOT
ATOM      1  C   LIG    1       26.060 -21.375   6.623  0.00  0.00    +0.132 C 
ENDROOT
BRANCH   1   2
ATOM      2  C   LIG    1       27.443 -20.689   6.619  0.00  0.00    +0.023 A 
ATOM      3  C   LIG    1       28.414 -20.925   7.608  0.00  0.00    +0.132 A 
ATOM      4  F   LIG    1       28.206 -21.838   8.560  0.00  0.00    -0.205 F 
ATOM      5  C   LIG    1       29.621 -20.217   7.646  0.00  0.00    +0.077 A 
ATOM      6  C   LIG    1       29.892 -19.283   6.667  0.00  0.00    +0.126 A 
ATOM      7  F   LIG    1       31.033 -18.578   6.719  0.00  0.00    -0.205 F 
ATOM      8  C   LIG    1       28.996 -19.058   5.633  0.00  0.00    +0.039 A 
ATOM      9  C   LIG    1       27.781 -19.760   5.609  0.00  0.00    +0.012 A 
ENDBRANCH   1   2
BRANCH   1  10
ATOM     10  O   LIG    1       25.258 -20.555   7.521  0.00  0.00    -0.380 OA
ATOM     11  H   LIG    1       25.297 -20.979   8.408  0.00  0.00    +0.211 HD
ENDBRANCH   1  10
BRANCH   1  12
ATOM     12  C   LIG    1       25.377 -21.310   5.236  0.00  0.00    +0.186 C 
BRANCH  12  13
ATOM     13  N   LIG    1       24.358 -20.311   5.040  0.00  0.00    -0.249 N 
ATOM     14  N   LIG    1       23.174 -20.434   5.659  0.00  0.00    -0.158 NA
ATOM     15  C   LIG    1       22.421 -19.572   4.969  0.00  0.00    +0.244 A 
ATOM     16  N   LIG    1       23.077 -18.883   3.992  0.00  0.00    -0.223 NA
ATOM     17  C   LIG    1       24.295 -19.376   4.048  0.00  0.00    +0.219 A 
ENDBRANCH  12  13
ENDBRANCH   1  12
BRANCH   1  18
ATOM     18  C   LIG    1       26.070 -22.813   7.229  0.00  0.00    +0.186 C 
BRANCH  18  19
ATOM     19  N   LIG    1       25.097 -23.738   6.664  0.00  0.00    -0.249 N 
ATOM     20  N   LIG    1       25.471 -24.822   5.952  0.00  0.00    -0.158 NA
ATOM     21  C   LIG    1       24.313 -25.482   5.845  0.00  0.00    +0.244 A 
ATOM     22  N   LIG    1       23.239 -24.860   6.406  0.00  0.00    -0.223 NA
ATOM     23  C   LIG    1       23.755 -23.749   6.891  0.00  0.00    +0.219 A 
ENDBRANCH  18  19
ENDBRANCH   1  18
TORSDOF 6
ENDMDL
MODEL 8
REMARK VINA RESULT:      -7.4      2.859      5.013
REMARK  Name = *****
REMARK                            x       y       z     vdW  Elec       q    Type
REMARK                         _______ _______ _______ _____ _____    ______ ____
ROOT
ATOM      1  C   LIG    1       26.020 -21.395   6.905  0.00  0.00    +0.132 C 
ENDROOT
BRANCH   1   2
ATOM      2  C   LIG    1       27.460 -20.839   6.942  0.00  0.00    +0.023 A 
ATOM      3  C   LIG    1       27.929 -19.875   6.033  0.00  0.00    +0.132 A 
ATOM      4  F   LIG    1       27.102 -19.327   5.137  0.00  0.00    -0.205 F 
ATOM      5  C   LIG    1       29.265 -19.459   6.015  0.00  0.00    +0.077 A 
ATOM      6  C   LIG    1       30.148 -19.977   6.939  0.00  0.00    +0.126 A 
ATOM      7  F   LIG    1       31.439 -19.605   6.905  0.00  0.00    -0.205 F 
ATOM      8  C   LIG    1       29.724 -20.882   7.900  0.00  0.00    +0.039 A 
ATOM      9  C   LIG    1       28.386 -21.307   7.902  0.00  0.00    +0.012 A 
ENDBRANCH   1   2
BRANCH   1  10
ATOM     10  O   LIG    1       25.242 -20.421   7.658  0.00  0.00    -0.380 OA
ATOM     11  H   LIG    1       24.979 -19.714   7.027  0.00  0.00    +0.211 HD
ENDBRANCH   1  10
BRANCH   1  12
ATOM     12  C   LIG    1       25.441 -21.409   5.469  0.00  0.00    +0.186 C 
BRANCH  12  13
ATOM     13  N   LIG    1       24.361 -20.503   5.177  0.00  0.00    -0.249 N 
ATOM     14  N   LIG    1       23.175 -20.659   5.784  0.00  0.00    -0.158 NA
ATOM     15  C   LIG    1       22.380 -19.910   5.014  0.00  0.00    +0.244 A 
ATOM     16  N   LIG    1       23.009 -19.256   3.996  0.00  0.00    -0.223 NA
ATOM     17  C   LIG    1       24.256 -19.657   4.111  0.00  0.00    +0.219 A 
ENDBRANCH  12  13
ENDBRANCH   1  12
BRANCH   1  18
ATOM     18  C   LIG    1       25.850 -22.760   7.642  0.00  0.00    +0.186 C 
BRANCH  18  19
ATOM     19  N   LIG    1       25.171 -23.802   6.884  0.00  0.00    -0.249 N 
ATOM     20  N   LIG    1       25.846 -24.804   6.283  0.00  0.00    -0.158 NA
ATOM     21  C   LIG    1       24.849 -25.621   5.928  0.00  0.00    +0.244 A 
ATOM     22  N   LIG    1       23.600 -25.173   6.230  0.00  0.00    -0.223 NA
ATOM     23  C   LIG    1       23.828 -24.011   6.807  0.00  0.00    +0.219 A 
ENDBRANCH  18  19
ENDBRANCH   1  18
TORSDOF 6
ENDMDL
MODEL 9
REMARK VINA RESULT:      -7.4      2.488      4.277
REMARK  Name = *****
REMARK                            x       y       z     vdW  Elec       q    Type
REMARK                         _______ _______ _______ _____ _____    ______ ____
ROOT
ATOM      1  C   LIG    1       25.478 -21.776   7.493  0.00  0.00    +0.132 C 
ENDROOT
BRANCH   1   2
ATOM      2  C   LIG    1       25.083 -23.171   6.964  0.00  0.00    +0.023 A 
ATOM      3  C   LIG    1       23.746 -23.580   6.812  0.00  0.00    +0.132 A 
ATOM      4  F   LIG    1       22.745 -22.725   7.041  0.00  0.00    -0.205 F 
ATOM      5  C   LIG    1       23.407 -24.883   6.430  0.00  0.00    +0.077 A 
ATOM      6  C   LIG    1       24.407 -25.792   6.157  0.00  0.00    +0.126 A 
ATOM      7  F   LIG    1       24.086 -27.052   5.823  0.00  0.00    -0.205 F 
ATOM      8  C   LIG    1       25.742 -25.423   6.229  0.00  0.00    +0.039 A 
ATOM      9  C   LIG    1       26.076 -24.119   6.627  0.00  0.00    +0.012 A 
ENDBRANCH   1   2
BRANCH   1  10
ATOM     10  O   LIG    1       24.352 -21.380   8.329  0.00  0.00    -0.380 OA
ATOM     11  H   LIG    1       23.720 -20.898   7.750  0.00  0.00    +0.211 HD
ENDBRANCH   1  10
BRANCH   1  12
ATOM     12  C   LIG    1       26.717 -21.835   8.418  0.00  0.00    +0.186 C 
BRANCH  12  13
ATOM     13  N   LIG    1       27.899 -21.129   7.996  0.00  0.00    -0.249 N 
ATOM     14  N   LIG    1       28.129 -19.885   8.443  0.00  0.00    -0.158 NA
ATOM     15  C   LIG    1       29.060 -19.460   7.584  0.00  0.00    +0.244 A 
ATOM     16  N   LIG    1       29.459 -20.380   6.660  0.00  0.00    -0.223 NA
ATOM     17  C   LIG    1       28.703 -21.422   6.932  0.00  0.00    +0.219 A 
ENDBRANCH  12  13
ENDBRANCH   1  12
BRANCH   1  18
ATOM     18  C   LIG    1       25.603 -20.690   6.379  0.00  0.00    +0.186 C 
BRANCH  18  19
ATOM     19  N   LIG    1       24.423 -20.509   5.544  0.00  0.00    -0.249 N 
ATOM     20  N   LIG    1       23.254 -20.062   6.047  0.00  0.00    -0.158 NA
ATOM     21  C   LIG    1       22.556 -19.829   4.931  0.00  0.00    +0.244 A 
ATOM     22  N   LIG    1       23.199 -20.142   3.772  0.00  0.00    -0.223 NA
ATOM     23  C   LIG    1       24.364 -20.595   4.187  0.00  0.00    +0.219 A 
ENDBRANCH  18  19
ENDBRANCH   1  18
TORSDOF 6
ENDMDL
