MODEL 1
REMARK VINA RESULT:      -9.5      0.000      0.000
REMARK  Name = *****
REMARK                            x       y       z     vdW  Elec       q    Type
REMARK                         _______ _______ _______ _____ _____    ______ ____
ROOT
ATOM      1 CL   LIG    1       21.972 -18.081   3.487  0.00  0.00    -0.084 Cl
ATOM      2  C   LIG    1       23.019 -19.170   4.312  0.00  0.00    +0.041 A 
ATOM      3  C   LIG    1       22.566 -19.829   5.457  0.00  0.00    +0.024 A 
ATOM      4  C   LIG    1       23.412 -20.717   6.134  0.00  0.00    -0.038 A 
ATOM      5  C   LIG    1       22.932 -21.486   7.341  0.00  0.00    +0.040 C 
ATOM      6  C   LIG    1       22.776 -22.984   7.045  0.00  0.00    +0.042 C 
ATOM      7  C   LIG    1       23.990 -23.811   6.669  0.00  0.00    -0.021 A 
ATOM      8  C   LIG    1       25.269 -23.320   6.365  0.00  0.00    +0.075 A 
ATOM      9  C   LIG    1       25.599 -21.869   6.386  0.00  0.00    +0.007 C 
ATOM     10  C   LIG    1       26.638 -21.385   7.121  0.00  0.00    -0.057 C 
ATOM     11  C   LIG    1       27.589 -22.225   7.965  0.00  0.00    +0.046 C 
ATOM     12  C   LIG    1       29.039 -21.993   7.514  0.00  0.00    +0.085 C 
ATOM     13  N   LIG    1       29.437 -20.576   7.598  0.00  0.00    -0.315 NA
ATOM     14  H   LIG    1       29.376 -20.285   8.573  0.00  0.00    +0.122 HD
ATOM     15  C   LIG    1       28.516 -19.746   6.806  0.00  0.00    +0.085 C 
ATOM     16  C   LIG    1       27.046 -19.920   7.222  0.00  0.00    +0.046 C 
ATOM     17  N   LIG    1       26.289 -24.127   5.961  0.00  0.00    -0.255 NA
ATOM     18  C   LIG    1       26.058 -25.452   5.884  0.00  0.00    +0.111 A 
ATOM     19  C   LIG    1       24.843 -26.033   6.180  0.00  0.00    +0.020 A 
ATOM     20  C   LIG    1       23.801 -25.202   6.570  0.00  0.00    +0.007 A 
ATOM     21  C   LIG    1       24.719 -20.923   5.659  0.00  0.00    -0.013 A 
ATOM     22  C   LIG    1       25.153 -20.279   4.493  0.00  0.00    +0.010 A 
ATOM     23  C   LIG    1       24.304 -19.396   3.824  0.00  0.00    +0.020 A 
ENDROOT
TORSDOF 0
ENDMDL
MODEL 2
REMARK VINA RESULT:      -7.7      3.024      5.854
REMARK  Name = *****
REMARK                            x       y       z     vdW  Elec       q    Type
REMARK                         _______ _______ _______ _____ _____    ______ ____
ROOT
ATOM      1 CL   LIG    1       25.502 -27.577   6.270  0.00  0.00    -0.084 Cl
ATOM      2  C   LIG    1       25.356 -25.867   6.145  0.00  0.00    +0.041 A 
ATOM      3  C   LIG    1       25.649 -25.067   7.251  0.00  0.00    +0.024 A 
ATOM      4  C   LIG    1       25.533 -23.673   7.158  0.00  0.00    -0.038 A 
ATOM      5  C   LIG    1       25.898 -22.779   8.318  0.00  0.00    +0.040 C 
ATOM      6  C   LIG    1       27.176 -21.975   8.046  0.00  0.00    +0.042 C 
ATOM      7  C   LIG    1       27.208 -20.966   6.914  0.00  0.00    -0.021 A 
ATOM      8  C   LIG    1       26.231 -20.799   5.922  0.00  0.00    +0.075 A 
ATOM      9  C   LIG    1       24.991 -21.620   5.867  0.00  0.00    +0.007 C 
ATOM     10  C   LIG    1       23.757 -21.047   5.827  0.00  0.00    -0.057 C 
ATOM     11  C   LIG    1       23.481 -19.548   5.800  0.00  0.00    +0.046 C 
ATOM     12  C   LIG    1       22.646 -19.187   4.562  0.00  0.00    +0.085 C 
ATOM     13  N   LIG    1       21.367 -19.918   4.511  0.00  0.00    -0.315 NA
ATOM     14  H   LIG    1       20.817 -19.658   5.329  0.00  0.00    +0.122 HD
ATOM     15  C   LIG    1       21.613 -21.368   4.558  0.00  0.00    +0.085 C 
ATOM     16  C   LIG    1       22.431 -21.797   5.787  0.00  0.00    +0.046 C 
ATOM     17  N   LIG    1       26.372 -19.919   4.892  0.00  0.00    -0.255 NA
ATOM     18  C   LIG    1       27.486 -19.161   4.852  0.00  0.00    +0.111 A 
ATOM     19  C   LIG    1       28.494 -19.238   5.790  0.00  0.00    +0.020 A 
ATOM     20  C   LIG    1       28.353 -20.153   6.825  0.00  0.00    +0.007 A 
ATOM     21  C   LIG    1       25.105 -23.096   5.950  0.00  0.00    -0.013 A 
ATOM     22  C   LIG    1       24.841 -23.907   4.838  0.00  0.00    +0.010 A 
ATOM     23  C   LIG    1       24.959 -25.294   4.940  0.00  0.00    +0.020 A 
ENDROOT
TORSDOF 0
ENDMDL
MODEL 3
REMARK VINA RESULT:      -7.3      6.288      9.321
REMARK  Name = *****
REMARK                            x       y       z     vdW  Elec       q    Type
REMARK                         _______ _______ _______ _____ _____    ______ ____
ROOT
ATOM      1 CL   LIG    1       25.525 -24.871   5.572  0.00  0.00    -0.084 Cl
ATOM      2  C   LIG    1       25.290 -26.482   6.130  0.00  0.00    +0.041 A 
ATOM      3  C   LIG    1       25.979 -26.929   7.258  0.00  0.00    +0.024 A 
ATOM      4  C   LIG    1       25.794 -28.240   7.719  0.00  0.00    -0.038 A 
ATOM      5  C   LIG    1       26.481 -28.733   8.969  0.00  0.00    +0.040 C 
ATOM      6  C   LIG    1       25.493 -28.949  10.123  0.00  0.00    +0.042 C 
ATOM      7  C   LIG    1       24.396 -29.988   9.995  0.00  0.00    -0.021 A 
ATOM      8  C   LIG    1       24.041 -30.683   8.830  0.00  0.00    +0.075 A 
ATOM      9  C   LIG    1       24.734 -30.480   7.528  0.00  0.00    +0.007 C 
ATOM     10  C   LIG    1       25.270 -31.521   6.835  0.00  0.00    -0.057 C 
ATOM     11  C   LIG    1       25.210 -32.985   7.256  0.00  0.00    +0.046 C 
ATOM     12  C   LIG    1       24.550 -33.825   6.152  0.00  0.00    +0.085 C 
ATOM     13  N   LIG    1       25.255 -33.718   4.862  0.00  0.00    -0.315 NA
ATOM     14  H   LIG    1       26.202 -34.077   4.986  0.00  0.00    +0.122 HD
ATOM     15  C   LIG    1       25.342 -32.308   4.450  0.00  0.00    +0.085 C 
ATOM     16  C   LIG    1       26.011 -31.415   5.508  0.00  0.00    +0.046 C 
ATOM     17  N   LIG    1       22.989 -31.548   8.780  0.00  0.00    -0.255 NA
ATOM     18  C   LIG    1       22.289 -31.761   9.912  0.00  0.00    +0.111 A 
ATOM     19  C   LIG    1       22.571 -31.142  11.112  0.00  0.00    +0.020 A 
ATOM     20  C   LIG    1       23.631 -30.244  11.148  0.00  0.00    +0.007 A 
ATOM     21  C   LIG    1       24.922 -29.098   7.026  0.00  0.00    -0.013 A 
ATOM     22  C   LIG    1       24.213 -28.629   5.911  0.00  0.00    +0.010 A 
ATOM     23  C   LIG    1       24.405 -27.322   5.459  0.00  0.00    +0.020 A 
ENDROOT
TORSDOF 0
ENDMDL
MODEL 4
REMARK VINA RESULT:      -6.8      1.261      4.438
REMARK  Name = *****
REMARK                            x       y       z     vdW  Elec       q    Type
REMARK                         _______ _______ _______ _____ _____    ______ ____
ROOT
ATOM      1 CL   LIG    1       21.302 -17.959   4.039  0.00  0.00    -0.084 Cl
ATOM      2  C   LIG    1       22.506 -19.039   4.629  0.00  0.00    +0.041 A 
ATOM      3  C   LIG    1       23.734 -19.129   3.971  0.00  0.00    +0.024 A 
ATOM      4  C   LIG    1       24.719 -20.006   4.444  0.00  0.00    -0.038 A 
ATOM      5  C   LIG    1       26.077 -20.083   3.788  0.00  0.00    +0.040 C 
ATOM      6  C   LIG    1       27.181 -19.499   4.679  0.00  0.00    +0.042 C 
ATOM      7  C   LIG    1       27.495 -20.144   6.016  0.00  0.00    -0.021 A 
ATOM      8  C   LIG    1       26.745 -21.144   6.653  0.00  0.00    +0.075 A 
ATOM      9  C   LIG    1       25.506 -21.720   6.062  0.00  0.00    +0.007 C 
ATOM     10  C   LIG    1       25.357 -23.061   5.888  0.00  0.00    -0.057 C 
ATOM     11  C   LIG    1       26.377 -24.122   6.283  0.00  0.00    +0.046 C 
ATOM     12  C   LIG    1       25.739 -25.135   7.246  0.00  0.00    +0.085 C 
ATOM     13  N   LIG    1       24.553 -25.793   6.668  0.00  0.00    -0.315 NA
ATOM     14  H   LIG    1       24.847 -26.310   5.839  0.00  0.00    +0.122 HD
ATOM     15  C   LIG    1       23.565 -24.782   6.259  0.00  0.00    +0.085 C 
ATOM     16  C   LIG    1       24.139 -23.746   5.279  0.00  0.00    +0.046 C 
ATOM     17  N   LIG    1       27.054 -21.617   7.892  0.00  0.00    -0.255 NA
ATOM     18  C   LIG    1       28.144 -21.119   8.509  0.00  0.00    +0.111 A 
ATOM     19  C   LIG    1       28.956 -20.150   7.958  0.00  0.00    +0.020 A 
ATOM     20  C   LIG    1       28.622 -19.657   6.703  0.00  0.00    +0.007 A 
ATOM     21  C   LIG    1       24.452 -20.800   5.573  0.00  0.00    -0.013 A 
ATOM     22  C   LIG    1       23.226 -20.680   6.242  0.00  0.00    +0.010 A 
ATOM     23  C   LIG    1       22.250 -19.804   5.763  0.00  0.00    +0.020 A 
ENDROOT
TORSDOF 0
ENDMDL
