MODEL 1
REMARK VINA RESULT:      -5.0      0.000      0.000
REMARK  Name = *****
REMARK                            x       y       z     vdW  Elec       q    Type
REMARK                         _______ _______ _______ _____ _____    ______ ____
ROOT
ATOM      1  C   LIG    1       22.825 -20.383   5.178  0.00  0.00    +0.406 C 
ATOM      2  F   LIG    1       21.780 -21.149   4.774  0.00  0.00    -0.170 F 
ATOM      3  F   LIG    1       23.314 -20.948   6.310  0.00  0.00    -0.170 F 
ENDROOT
BRANCH   1   4
ATOM      4  C   LIG    1       23.886 -20.335   4.071  0.00  0.00    +0.355 C 
ATOM      5  F   LIG    1       23.857 -21.485   3.340  0.00  0.00    -0.219 F 
ATOM      6 CL   LIG    1       25.537 -20.128   4.718  0.00  0.00    -0.076 Cl
ENDBRANCH   1   4
BRANCH   1   7
ATOM      7  O   LIG    1       22.333 -19.098   5.500  0.00  0.00    -0.255 OA
BRANCH   7   9
ATOM      8  F   LIG    1       21.005 -18.529   3.821  0.00  0.00    -0.178 F 
ATOM      9  C   LIG    1       22.247 -18.328   4.328  0.00  0.00    +0.487 C 
ATOM     10  F   LIG    1       22.311 -17.023   4.674  0.00  0.00    -0.178 F 
ENDBRANCH   7   9
ENDBRANCH   1   7
TORSDOF 3
ENDMDL
MODEL 2
REMARK VINA RESULT:      -5.0      1.098      1.751
REMARK  Name = *****
REMARK                            x       y       z     vdW  Elec       q    Type
REMARK                         _______ _______ _______ _____ _____    ______ ____
ROOT
ATOM      1  C   LIG    1       23.124 -20.142   5.235  0.00  0.00    +0.406 C 
ATOM      2  F   LIG    1       22.317 -21.169   4.865  0.00  0.00    -0.170 F 
ATOM      3  F   LIG    1       22.620 -19.641   6.390  0.00  0.00    -0.170 F 
ENDROOT
BRANCH   1   4
ATOM      4  C   LIG    1       24.556 -20.657   5.424  0.00  0.00    +0.355 C 
ATOM      5  F   LIG    1       24.977 -20.424   6.699  0.00  0.00    -0.219 F 
ATOM      6 CL   LIG    1       25.712 -19.879   4.307  0.00  0.00    -0.076 Cl
ENDBRANCH   1   4
BRANCH   1   7
ATOM      7  O   LIG    1       23.045 -19.139   4.244  0.00  0.00    -0.255 OA
BRANCH   7   9
ATOM      8  F   LIG    1       22.548 -16.989   4.433  0.00  0.00    -0.178 F 
ATOM      9  C   LIG    1       22.026 -18.232   4.582  0.00  0.00    +0.487 C 
ATOM     10  F   LIG    1       21.039 -18.343   3.665  0.00  0.00    -0.178 F 
ENDBRANCH   7   9
ENDBRANCH   1   7
TORSDOF 3
ENDMDL
MODEL 3
REMARK VINA RESULT:      -5.0      0.754      1.686
REMARK  Name = *****
REMARK                            x       y       z     vdW  Elec       q    Type
REMARK                         _______ _______ _______ _____ _____    ______ ____
ROOT
ATOM      1  C   LIG    1       22.860 -20.346   4.870  0.00  0.00    +0.406 C 
ATOM      2  F   LIG    1       23.370 -20.137   3.630  0.00  0.00    -0.170 F 
ATOM      3  F   LIG    1       21.825 -21.212   4.731  0.00  0.00    -0.170 F 
ENDROOT
BRANCH   1   4
ATOM      4  C   LIG    1       23.951 -20.918   5.785  0.00  0.00    +0.355 C 
ATOM      5  F   LIG    1       23.777 -20.474   7.062  0.00  0.00    -0.219 F 
ATOM      6 CL   LIG    1       25.593 -20.457   5.255  0.00  0.00    -0.076 Cl
ENDBRANCH   1   4
BRANCH   1   7
ATOM      7  O   LIG    1       22.351 -19.119   5.351  0.00  0.00    -0.255 OA
BRANCH   7   9
ATOM      8  F   LIG    1       21.062 -18.343   3.726  0.00  0.00    -0.178 F 
ATOM      9  C   LIG    1       22.286 -18.198   4.292  0.00  0.00    +0.487 C 
ATOM     10  F   LIG    1       22.319 -16.951   4.814  0.00  0.00    -0.178 F 
ENDBRANCH   7   9
ENDBRANCH   1   7
TORSDOF 3
ENDMDL
MODEL 4
REMARK VINA RESULT:      -4.9      6.203      7.416
REMARK  Name = *****
REMARK                            x       y       z     vdW  Elec       q    Type
REMARK                         _______ _______ _______ _____ _____    ______ ____
ROOT
ATOM      1  C   LIG    1       26.334 -14.852   3.313  0.00  0.00    +0.406 C 
ATOM      2  F   LIG    1       26.167 -16.184   3.114  0.00  0.00    -0.170 F 
ATOM      3  F   LIG    1       26.551 -14.296   2.095  0.00  0.00    -0.170 F 
ENDROOT
BRANCH   1   4
ATOM      4  C   LIG    1       25.080 -14.271   3.980  0.00  0.00    +0.355 C 
ATOM      5  F   LIG    1       24.104 -15.219   4.056  0.00  0.00    -0.219 F 
ATOM      6 CL   LIG    1       24.425 -12.868   3.091  0.00  0.00    -0.076 Cl
ENDBRANCH   1   4
BRANCH   1   7
ATOM      7  O   LIG    1       27.492 -14.664   4.100  0.00  0.00    -0.255 OA
BRANCH   7   9
ATOM      8  F   LIG    1       27.873 -12.809   5.247  0.00  0.00    -0.178 F 
ATOM      9  C   LIG    1       27.912 -13.328   3.995  0.00  0.00    +0.487 C 
ATOM     10  F   LIG    1       29.212 -13.322   3.620  0.00  0.00    -0.178 F 
ENDBRANCH   7   9
ENDBRANCH   1   7
TORSDOF 3
ENDMDL
MODEL 5
REMARK VINA RESULT:      -4.9      1.768      2.818
REMARK  Name = *****
REMARK                            x       y       z     vdW  Elec       q    Type
REMARK                         _______ _______ _______ _____ _____    ______ ____
ROOT
ATOM      1  C   LIG    1       22.359 -19.243   4.656  0.00  0.00    +0.406 C 
ATOM      2  F   LIG    1       21.152 -19.190   4.038  0.00  0.00    -0.170 F 
ATOM      3  F   LIG    1       22.314 -18.363   5.686  0.00  0.00    -0.170 F 
ENDROOT
BRANCH   1   4
ATOM      4  C   LIG    1       22.621 -20.672   5.149  0.00  0.00    +0.355 C 
ATOM      5  F   LIG    1       21.488 -21.423   5.044  0.00  0.00    -0.219 F 
ATOM      6 CL   LIG    1       23.162 -20.717   6.850  0.00  0.00    -0.076 Cl
ENDBRANCH   1   4
BRANCH   1   7
ATOM      7  O   LIG    1       23.344 -18.807   3.741  0.00  0.00    -0.255 OA
BRANCH   7   9
ATOM      8  F   LIG    1       24.332 -20.414   2.583  0.00  0.00    -0.178 F 
ATOM      9  C   LIG    1       24.413 -19.717   3.743  0.00  0.00    +0.487 C 
ATOM     10  F   LIG    1       25.567 -19.013   3.685  0.00  0.00    -0.178 F 
ENDBRANCH   7   9
ENDBRANCH   1   7
TORSDOF 3
ENDMDL
MODEL 6
REMARK VINA RESULT:      -4.9      5.607      6.881
REMARK  Name = *****
REMARK                            x       y       z     vdW  Elec       q    Type
REMARK                         _______ _______ _______ _____ _____    ______ ____
ROOT
ATOM      1  C   LIG    1       26.095 -13.687   4.376  0.00  0.00    +0.406 C 
ATOM      2  F   LIG    1       26.852 -14.127   5.413  0.00  0.00    -0.170 F 
ATOM      3  F   LIG    1       25.368 -12.638   4.835  0.00  0.00    -0.170 F 
ENDROOT
BRANCH   1   4
ATOM      4  C   LIG    1       27.007 -13.272   3.214  0.00  0.00    +0.355 C 
ATOM      5  F   LIG    1       26.918 -14.177   2.198  0.00  0.00    -0.219 F 
ATOM      6 CL   LIG    1       28.720 -13.151   3.703  0.00  0.00    -0.076 Cl
ENDBRANCH   1   4
BRANCH   1   7
ATOM      7  O   LIG    1       25.203 -14.719   4.011  0.00  0.00    -0.255 OA
BRANCH   7   9
ATOM      8  F   LIG    1       23.514 -13.768   2.940  0.00  0.00    -0.178 F 
ATOM      9  C   LIG    1       23.882 -14.261   4.149  0.00  0.00    +0.487 C 
ATOM     10  F   LIG    1       23.086 -15.329   4.384  0.00  0.00    -0.178 F 
ENDBRANCH   7   9
ENDBRANCH   1   7
TORSDOF 3
ENDMDL
MODEL 7
REMARK VINA RESULT:      -4.8      1.932      2.925
REMARK  Name = *****
REMARK                            x       y       z     vdW  Elec       q    Type
REMARK                         _______ _______ _______ _____ _____    ______ ____
ROOT
ATOM      1  C   LIG    1       24.234 -19.997   3.653  0.00  0.00    +0.406 C 
ATOM      2  F   LIG    1       23.382 -18.943   3.578  0.00  0.00    -0.170 F 
ATOM      3  F   LIG    1       24.051 -20.732   2.528  0.00  0.00    -0.170 F 
ENDROOT
BRANCH   1   4
ATOM      4  C   LIG    1       25.676 -19.484   3.760  0.00  0.00    +0.355 C 
ATOM      5  F   LIG    1       26.137 -19.637   5.033  0.00  0.00    -0.219 F 
ATOM      6 CL   LIG    1       25.820 -17.760   3.320  0.00  0.00    -0.076 Cl
ENDBRANCH   1   4
BRANCH   1   7
ATOM      7  O   LIG    1       23.865 -20.786   4.765  0.00  0.00    -0.255 OA
BRANCH   7   9
ATOM      8  F   LIG    1       21.702 -21.085   5.135  0.00  0.00    -0.178 F 
ATOM      9  C   LIG    1       22.726 -20.228   5.371  0.00  0.00    +0.487 C 
ATOM     10  F   LIG    1       22.919 -20.224   6.709  0.00  0.00    -0.178 F 
ENDBRANCH   7   9
ENDBRANCH   1   7
TORSDOF 3
ENDMDL
MODEL 8
REMARK VINA RESULT:      -4.8      7.030      8.058
REMARK  Name = *****
REMARK                            x       y       z     vdW  Elec       q    Type
REMARK                         _______ _______ _______ _____ _____    ______ ____
ROOT
ATOM      1  C   LIG    1       25.679 -13.145   2.728  0.00  0.00    +0.406 C 
ATOM      2  F   LIG    1       26.061 -14.071   1.812  0.00  0.00    -0.170 F 
ATOM      3  F   LIG    1       25.942 -11.928   2.192  0.00  0.00    -0.170 F 
ENDROOT
BRANCH   1   4
ATOM      4  C   LIG    1       24.185 -13.313   3.034  0.00  0.00    +0.355 C 
ATOM      5  F   LIG    1       23.632 -12.112   3.362  0.00  0.00    -0.219 F 
ATOM      6 CL   LIG    1       23.890 -14.447   4.381  0.00  0.00    -0.076 Cl
ENDBRANCH   1   4
BRANCH   1   7
ATOM      7  O   LIG    1       26.480 -13.307   3.880  0.00  0.00    -0.255 OA
BRANCH   7   9
ATOM      8  F   LIG    1       28.680 -13.061   3.933  0.00  0.00    -0.178 F 
ATOM      9  C   LIG    1       27.700 -13.900   3.516  0.00  0.00    +0.487 C 
ATOM     10  F   LIG    1       27.845 -15.040   4.231  0.00  0.00    -0.178 F 
ENDBRANCH   7   9
ENDBRANCH   1   7
TORSDOF 3
ENDMDL
MODEL 9
REMARK VINA RESULT:      -4.8      6.163      6.838
REMARK  Name = *****
REMARK                            x       y       z     vdW  Elec       q    Type
REMARK                         _______ _______ _______ _____ _____    ______ ____
ROOT
ATOM      1  C   LIG    1       26.401 -14.815   3.440  0.00  0.00    +0.406 C 
ATOM      2  F   LIG    1       26.512 -14.197   2.236  0.00  0.00    -0.170 F 
ATOM      3  F   LIG    1       26.480 -16.149   3.207  0.00  0.00    -0.170 F 
ENDROOT
BRANCH   1   4
ATOM      4  C   LIG    1       27.527 -14.339   4.366  0.00  0.00    +0.355 C 
ATOM      5  F   LIG    1       27.008 -13.843   5.524  0.00  0.00    -0.219 F 
ATOM      6 CL   LIG    1       28.533 -13.068   3.618  0.00  0.00    -0.076 Cl
ENDBRANCH   1   4
BRANCH   1   7
ATOM      7  O   LIG    1       25.122 -14.530   3.966  0.00  0.00    -0.255 OA
BRANCH   7   9
ATOM      8  F   LIG    1       23.431 -13.638   2.849  0.00  0.00    -0.178 F 
ATOM      9  C   LIG    1       24.638 -13.343   3.391  0.00  0.00    +0.487 C 
ATOM     10  F   LIG    1       24.403 -12.457   4.386  0.00  0.00    -0.178 F 
ENDBRANCH   7   9
ENDBRANCH   1   7
TORSDOF 3
ENDMDL
