MODEL 1
REMARK VINA RESULT:      -2.3      0.000      0.000
REMARK  Name = *****
REMARK                            x       y       z     vdW  Elec       q    Type
REMARK                         _______ _______ _______ _____ _____    ______ ____
ROOT
ATOM      1  C   LIG    1       27.525 -14.533   5.626  0.00  0.00    +0.158 C 
ATOM      2  N   LIG    1       27.494 -14.905   4.184  0.00  0.00    -0.197 N 
ATOM      3  S   LIG    1       27.648 -13.563   3.120  0.00  0.00    +0.076 S 
ATOM      4  O   LIG    1       28.013 -14.061   1.812  0.00  0.00    -0.150 OA
ATOM      5  O   LIG    1       28.350 -12.494   3.783  0.00  0.00    -0.150 OA
ATOM      6  C   LIG    1       26.054 -12.956   2.879  0.00  0.00    +0.127 A 
ATOM      7  C   LIG    1       24.957 -13.734   3.169  0.00  0.00    +0.087 A 
ATOM      8  S   LIG    1       23.507 -12.897   2.842  0.00  0.00    -0.091 S 
ATOM      9  C   LIG    1       24.357 -11.532   2.240  0.00  0.00    +0.048 A 
ATOM     10  C   LIG    1       24.968 -15.108   3.646  0.00  0.00    +0.222 C 
ATOM     11  O   LIG    1       23.962 -15.765   3.898  0.00  0.00    -0.284 OA
ATOM     12  C   LIG    1       25.724 -11.692   2.322  0.00  0.00    +0.037 A 
ATOM     13  C   LIG    1       26.340 -15.717   3.806  0.00  0.00    +0.156 C 
ATOM     14  C   LIG    1       26.639 -17.019   3.626  0.00  0.00    +0.210 C 
ENDROOT
BRANCH  14  15
ATOM     15  N   LIG    1       25.756 -18.006   3.258  0.00  0.00    -0.269 N 
ATOM     16  H   LIG    1       25.677 -18.214   2.265  0.00  0.00    +0.157 HD
BRANCH  15  17
ATOM     17  C   LIG    1       25.180 -19.032   4.011  0.00  0.00    +0.125 A 
ATOM     18  N   LIG    1       26.037 -19.774   4.746  0.00  0.00    -0.240 NA
ATOM     19  C   LIG    1       25.524 -20.774   5.502  0.00  0.00    +0.113 A 
ATOM     20  C   LIG    1       24.183 -21.106   5.542  0.00  0.00    +0.020 A 
ATOM     21  C   LIG    1       23.311 -20.360   4.767  0.00  0.00    +0.005 A 
ATOM     22  C   LIG    1       23.815 -19.312   4.001  0.00  0.00    +0.044 A 
ENDBRANCH  15  17
ENDBRANCH  14  15
BRANCH  14  23
ATOM     23  O   LIG    1       27.973 -17.399   3.750  0.00  0.00    -0.494 OA
ATOM     24  H   LIG    1       28.069 -18.221   3.232  0.00  0.00    +0.293 HD
ENDBRANCH  14  23
TORSDOF 3
ENDMDL
