MODEL 1
REMARK VINA RESULT:      -4.8      0.000      0.000
REMARK  Name = *****
REMARK                            x       y       z     vdW  Elec       q    Type
REMARK                         _______ _______ _______ _____ _____    ______ ____
ROOT
ATOM      1  C   LIG    1       22.356 -20.074   5.972  0.00  0.00    +0.141 C 
ATOM      2  N   LIG    1       23.644 -20.182   5.328  0.00  0.00    -0.245 N 
ATOM      3  C   LIG    1       24.704 -20.835   5.888  0.00  0.00    +0.229 C 
ATOM      4  O   LIG    1       24.711 -21.391   6.977  0.00  0.00    -0.275 OA
ATOM      5  C   LIG    1       25.872 -20.778   4.929  0.00  0.00    +0.114 C 
ATOM      6  C   LIG    1       25.319 -20.050   3.706  0.00  0.00    +0.114 C 
ATOM      7  C   LIG    1       23.897 -19.741   4.065  0.00  0.00    +0.223 C 
ATOM      8  O   LIG    1       23.105 -19.194   3.311  0.00  0.00    -0.275 OA
ENDROOT
BRANCH   5   9
ATOM      9  C   LIG    1       27.115 -20.107   5.476  0.00  0.00    -0.035 A 
ATOM     10  C   LIG    1       27.791 -20.694   6.557  0.00  0.00    +0.004 A 
ATOM     11  C   LIG    1       28.961 -20.124   7.062  0.00  0.00    +0.000 A 
ATOM     12  C   LIG    1       29.474 -18.963   6.490  0.00  0.00    +0.000 A 
ATOM     13  C   LIG    1       28.820 -18.373   5.412  0.00  0.00    +0.000 A 
ATOM     14  C   LIG    1       27.651 -18.943   4.903  0.00  0.00    +0.004 A 
ENDBRANCH   5   9
TORSDOF 1
ENDMDL
MODEL 2
REMARK VINA RESULT:      -4.7      2.789      3.930
REMARK  Name = *****
REMARK                            x       y       z     vdW  Elec       q    Type
REMARK                         _______ _______ _______ _____ _____    ______ ____
ROOT
ATOM      1  C   LIG    1       24.948 -21.250   6.449  0.00  0.00    +0.141 C 
ATOM      2  N   LIG    1       24.662 -20.390   5.327  0.00  0.00    -0.245 N 
ATOM      3  C   LIG    1       25.629 -19.712   4.641  0.00  0.00    +0.229 C 
ATOM      4  O   LIG    1       26.827 -19.733   4.882  0.00  0.00    -0.275 OA
ATOM      5  C   LIG    1       24.977 -18.941   3.515  0.00  0.00    +0.114 C 
ATOM      6  C   LIG    1       23.500 -19.317   3.608  0.00  0.00    +0.114 C 
ATOM      7  C   LIG    1       23.424 -20.253   4.776  0.00  0.00    +0.223 C 
ATOM      8  O   LIG    1       22.398 -20.808   5.140  0.00  0.00    -0.275 OA
ENDROOT
BRANCH   5   9
ATOM      9  C   LIG    1       25.187 -17.442   3.563  0.00  0.00    -0.035 A 
ATOM     10  C   LIG    1       24.116 -16.612   3.931  0.00  0.00    +0.004 A 
ATOM     11  C   LIG    1       24.285 -15.229   4.024  0.00  0.00    +0.000 A 
ATOM     12  C   LIG    1       25.525 -14.658   3.755  0.00  0.00    +0.000 A 
ATOM     13  C   LIG    1       26.599 -15.468   3.396  0.00  0.00    +0.000 A 
ATOM     14  C   LIG    1       26.435 -16.852   3.306  0.00  0.00    +0.004 A 
ENDBRANCH   5   9
TORSDOF 1
ENDMDL
MODEL 3
REMARK VINA RESULT:      -4.7      2.836      3.988
REMARK  Name = *****
REMARK                            x       y       z     vdW  Elec       q    Type
REMARK                         _______ _______ _______ _____ _____    ______ ____
ROOT
ATOM      1  C   LIG    1       24.908 -21.306   6.349  0.00  0.00    +0.141 C 
ATOM      2  N   LIG    1       24.590 -20.396   5.275  0.00  0.00    -0.245 N 
ATOM      3  C   LIG    1       25.538 -19.689   4.592  0.00  0.00    +0.229 C 
ATOM      4  O   LIG    1       26.742 -19.722   4.796  0.00  0.00    -0.275 OA
ATOM      5  C   LIG    1       24.855 -18.867   3.522  0.00  0.00    +0.114 C 
ATOM      6  C   LIG    1       23.380 -19.245   3.642  0.00  0.00    +0.114 C 
ATOM      7  C   LIG    1       23.336 -20.232   4.768  0.00  0.00    +0.223 C 
ATOM      8  O   LIG    1       22.320 -20.803   5.138  0.00  0.00    -0.275 OA
ENDROOT
BRANCH   5   9
ATOM      9  C   LIG    1       25.069 -17.372   3.631  0.00  0.00    -0.035 A 
ATOM     10  C   LIG    1       26.322 -16.834   3.297  0.00  0.00    +0.004 A 
ATOM     11  C   LIG    1       26.543 -15.457   3.349  0.00  0.00    +0.000 A 
ATOM     12  C   LIG    1       25.516 -14.598   3.729  0.00  0.00    +0.000 A 
ATOM     13  C   LIG    1       24.265 -15.116   4.055  0.00  0.00    +0.000 A 
ATOM     14  C   LIG    1       24.039 -16.493   4.001  0.00  0.00    +0.004 A 
ENDBRANCH   5   9
TORSDOF 1
ENDMDL
MODEL 4
REMARK VINA RESULT:      -4.5      2.894      4.520
REMARK  Name = *****
REMARK                            x       y       z     vdW  Elec       q    Type
REMARK                         _______ _______ _______ _____ _____    ______ ____
ROOT
ATOM      1  C   LIG    1       25.233 -21.570   5.404  0.00  0.00    +0.141 C 
ATOM      2  N   LIG    1       24.379 -20.473   5.014  0.00  0.00    -0.245 N 
ATOM      3  C   LIG    1       24.634 -19.678   3.933  0.00  0.00    +0.229 C 
ATOM      4  O   LIG    1       25.592 -19.778   3.180  0.00  0.00    -0.275 OA
ATOM      5  C   LIG    1       23.523 -18.660   3.805  0.00  0.00    +0.114 C 
ATOM      6  C   LIG    1       22.555 -19.017   4.931  0.00  0.00    +0.114 C 
ATOM      7  C   LIG    1       23.190 -20.190   5.614  0.00  0.00    +0.223 C 
ATOM      8  O   LIG    1       22.684 -20.792   6.550  0.00  0.00    -0.275 OA
ENDROOT
BRANCH   5   9
ATOM      9  C   LIG    1       23.970 -17.215   3.876  0.00  0.00    -0.035 A 
ATOM     10  C   LIG    1       25.258 -16.874   3.432  0.00  0.00    +0.004 A 
ATOM     11  C   LIG    1       25.688 -15.546   3.447  0.00  0.00    +0.000 A 
ATOM     12  C   LIG    1       24.838 -14.541   3.900  0.00  0.00    +0.000 A 
ATOM     13  C   LIG    1       23.555 -14.863   4.336  0.00  0.00    +0.000 A 
ATOM     14  C   LIG    1       23.120 -16.190   4.320  0.00  0.00    +0.004 A 
ENDBRANCH   5   9
TORSDOF 1
ENDMDL
MODEL 5
REMARK VINA RESULT:      -4.4      2.934      4.334
REMARK  Name = *****
REMARK                            x       y       z     vdW  Elec       q    Type
REMARK                         _______ _______ _______ _____ _____    ______ ____
ROOT
ATOM      1  C   LIG    1       24.002 -15.079   4.076  0.00  0.00    +0.141 C 
ATOM      2  N   LIG    1       24.329 -16.471   3.879  0.00  0.00    -0.245 N 
ATOM      3  C   LIG    1       23.435 -17.483   4.086  0.00  0.00    +0.229 C 
ATOM      4  O   LIG    1       22.280 -17.353   4.463  0.00  0.00    -0.275 OA
ATOM      5  C   LIG    1       24.104 -18.798   3.754  0.00  0.00    +0.114 C 
ATOM      6  C   LIG    1       25.495 -18.399   3.266  0.00  0.00    +0.114 C 
ATOM      7  C   LIG    1       25.515 -16.904   3.369  0.00  0.00    +0.223 C 
ATOM      8  O   LIG    1       26.457 -16.208   3.022  0.00  0.00    -0.275 OA
ENDROOT
BRANCH   5   9
ATOM      9  C   LIG    1       24.165 -19.789   4.897  0.00  0.00    -0.035 A 
ATOM     10  C   LIG    1       25.405 -20.336   5.264  0.00  0.00    +0.004 A 
ATOM     11  C   LIG    1       25.503 -21.223   6.338  0.00  0.00    +0.000 A 
ATOM     12  C   LIG    1       24.367 -21.572   7.062  0.00  0.00    +0.000 A 
ATOM     13  C   LIG    1       23.131 -21.031   6.715  0.00  0.00    +0.000 A 
ATOM     14  C   LIG    1       23.029 -20.141   5.644  0.00  0.00    +0.004 A 
ENDBRANCH   5   9
TORSDOF 1
ENDMDL
MODEL 6
REMARK VINA RESULT:      -4.1      5.601      7.035
REMARK  Name = *****
REMARK                            x       y       z     vdW  Elec       q    Type
REMARK                         _______ _______ _______ _____ _____    ______ ____
ROOT
ATOM      1  C   LIG    1       24.654 -11.626   1.812  0.00  0.00    +0.141 C 
ATOM      2  N   LIG    1       24.746 -12.597   2.876  0.00  0.00    -0.245 N 
ATOM      3  C   LIG    1       25.498 -13.734   2.785  0.00  0.00    +0.229 C 
ATOM      4  O   LIG    1       26.163 -14.078   1.818  0.00  0.00    -0.275 OA
ATOM      5  C   LIG    1       25.388 -14.496   4.086  0.00  0.00    +0.114 C 
ATOM      6  C   LIG    1       24.515 -13.608   4.969  0.00  0.00    +0.114 C 
ATOM      7  C   LIG    1       24.187 -12.427   4.106  0.00  0.00    +0.223 C 
ATOM      8  O   LIG    1       23.533 -11.466   4.482  0.00  0.00    -0.275 OA
ENDROOT
BRANCH   5   9
ATOM      9  C   LIG    1       24.830 -15.898   3.960  0.00  0.00    -0.035 A 
ATOM     10  C   LIG    1       23.490 -16.136   4.308  0.00  0.00    +0.004 A 
ATOM     11  C   LIG    1       22.932 -17.407   4.168  0.00  0.00    +0.000 A 
ATOM     12  C   LIG    1       23.701 -18.457   3.674  0.00  0.00    +0.000 A 
ATOM     13  C   LIG    1       25.029 -18.235   3.317  0.00  0.00    +0.000 A 
ATOM     14  C   LIG    1       25.590 -16.963   3.453  0.00  0.00    +0.004 A 
ENDBRANCH   5   9
TORSDOF 1
ENDMDL
MODEL 7
REMARK VINA RESULT:      -3.7      2.230      5.015
REMARK  Name = *****
REMARK                            x       y       z     vdW  Elec       q    Type
REMARK                         _______ _______ _______ _____ _____    ______ ____
ROOT
ATOM      1  C   LIG    1       29.338 -18.198   6.025  0.00  0.00    +0.141 C 
ATOM      2  N   LIG    1       28.353 -19.201   5.697  0.00  0.00    -0.245 N 
ATOM      3  C   LIG    1       27.404 -19.025   4.731  0.00  0.00    +0.229 C 
ATOM      4  O   LIG    1       27.258 -18.025   4.043  0.00  0.00    -0.275 OA
ATOM      5  C   LIG    1       26.568 -20.281   4.636  0.00  0.00    +0.114 C 
ATOM      6  C   LIG    1       27.206 -21.235   5.643  0.00  0.00    +0.114 C 
ATOM      7  C   LIG    1       28.337 -20.451   6.237  0.00  0.00    +0.223 C 
ATOM      8  O   LIG    1       29.120 -20.899   7.062  0.00  0.00    -0.275 OA
ENDROOT
BRANCH   5   9
ATOM      9  C   LIG    1       25.089 -20.086   4.897  0.00  0.00    -0.035 A 
ATOM     10  C   LIG    1       24.540 -20.542   6.106  0.00  0.00    +0.004 A 
ATOM     11  C   LIG    1       23.189 -20.343   6.396  0.00  0.00    +0.000 A 
ATOM     12  C   LIG    1       22.370 -19.682   5.485  0.00  0.00    +0.000 A 
ATOM     13  C   LIG    1       22.901 -19.217   4.285  0.00  0.00    +0.000 A 
ATOM     14  C   LIG    1       24.253 -19.411   3.993  0.00  0.00    +0.004 A 
ENDBRANCH   5   9
TORSDOF 1
ENDMDL
MODEL 8
REMARK VINA RESULT:      -3.7      4.169      5.871
REMARK  Name = *****
REMARK                            x       y       z     vdW  Elec       q    Type
REMARK                         _______ _______ _______ _____ _____    ______ ____
ROOT
ATOM      1  C   LIG    1       25.460 -12.959   5.249  0.00  0.00    +0.141 C 
ATOM      2  N   LIG    1       25.692 -14.152   4.469  0.00  0.00    -0.245 N 
ATOM      3  C   LIG    1       24.684 -14.881   3.905  0.00  0.00    +0.229 C 
ATOM      4  O   LIG    1       23.489 -14.637   3.989  0.00  0.00    -0.275 OA
ATOM      5  C   LIG    1       25.289 -16.035   3.138  0.00  0.00    +0.114 C 
ATOM      6  C   LIG    1       26.795 -15.837   3.287  0.00  0.00    +0.114 C 
ATOM      7  C   LIG    1       26.930 -14.605   4.129  0.00  0.00    +0.223 C 
ATOM      8  O   LIG    1       28.000 -14.096   4.431  0.00  0.00    -0.275 OA
ENDROOT
BRANCH   5   9
ATOM      9  C   LIG    1       24.848 -17.409   3.599  0.00  0.00    -0.035 A 
ATOM     10  C   LIG    1       23.516 -17.604   3.994  0.00  0.00    +0.004 A 
ATOM     11  C   LIG    1       23.066 -18.865   4.388  0.00  0.00    +0.000 A 
ATOM     12  C   LIG    1       23.939 -19.949   4.387  0.00  0.00    +0.000 A 
ATOM     13  C   LIG    1       25.262 -19.774   3.989  0.00  0.00    +0.000 A 
ATOM     14  C   LIG    1       25.715 -18.514   3.592  0.00  0.00    +0.004 A 
ENDBRANCH   5   9
TORSDOF 1
ENDMDL
MODEL 9
REMARK VINA RESULT:      -3.7      1.546      2.266
REMARK  Name = *****
REMARK                            x       y       z     vdW  Elec       q    Type
REMARK                         _______ _______ _______ _____ _____    ______ ____
ROOT
ATOM      1  C   LIG    1       21.718 -19.302   4.092  0.00  0.00    +0.141 C 
ATOM      2  N   LIG    1       23.152 -19.165   4.005  0.00  0.00    -0.245 N 
ATOM      3  C   LIG    1       24.002 -20.232   3.962  0.00  0.00    +0.229 C 
ATOM      4  O   LIG    1       23.676 -21.410   4.001  0.00  0.00    -0.275 OA
ATOM      5  C   LIG    1       25.420 -19.721   3.840  0.00  0.00    +0.114 C 
ATOM      6  C   LIG    1       25.266 -18.204   3.756  0.00  0.00    +0.114 C 
ATOM      7  C   LIG    1       23.789 -17.971   3.850  0.00  0.00    +0.223 C 
ATOM      8  O   LIG    1       23.265 -16.869   3.774  0.00  0.00    -0.275 OA
ENDROOT
BRANCH   5   9
ATOM      9  C   LIG    1       26.348 -20.137   4.962  0.00  0.00    -0.035 A 
ATOM     10  C   LIG    1       27.642 -19.595   5.018  0.00  0.00    +0.004 A 
ATOM     11  C   LIG    1       28.509 -19.927   6.060  0.00  0.00    +0.000 A 
ATOM     12  C   LIG    1       28.096 -20.800   7.062  0.00  0.00    +0.000 A 
ATOM     13  C   LIG    1       26.813 -21.340   7.025  0.00  0.00    +0.000 A 
ATOM     14  C   LIG    1       25.941 -21.008   5.986  0.00  0.00    +0.004 A 
ENDBRANCH   5   9
TORSDOF 1
ENDMDL
