MODEL 1
REMARK VINA RESULT:      -7.2      0.000      0.000
REMARK  Name = *****
REMARK                            x       y       z     vdW  Elec       q    Type
REMARK                         _______ _______ _______ _____ _____    ______ ____
ROOT
ATOM      1  O   LIG    1       26.035 -21.353   6.168  0.00  0.00    -0.474 OA
ENDROOT
BRANCH   1   2
ATOM      2  C   LIG    1       24.805 -20.998   5.670  0.00  0.00    +0.158 A 
ATOM      3  C   LIG    1       23.614 -21.637   6.043  0.00  0.00    +0.084 A 
ATOM      4 CL   LIG    1       23.585 -23.060   7.022  0.00  0.00    -0.080 Cl
ATOM      5  C   LIG    1       22.380 -21.163   5.580  0.00  0.00    +0.024 A 
ATOM      6  C   LIG    1       22.326 -20.098   4.684  0.00  0.00    +0.003 A 
ATOM      7  C   LIG    1       23.510 -19.526   4.223  0.00  0.00    +0.024 A 
ATOM      8  C   LIG    1       24.743 -19.977   4.708  0.00  0.00    +0.084 A 
ATOM      9 CL   LIG    1       26.174 -19.234   4.087  0.00  0.00    -0.080 Cl
ENDBRANCH   1   2
BRANCH   1  11
ATOM     10  C   LIG    1       25.980 -20.743   8.474  0.00  0.00    +0.065 C 
ATOM     11  C   LIG    1       26.598 -20.429   7.109  0.00  0.00    +0.284 C 
BRANCH  11  12
ATOM     12  C   LIG    1       28.138 -20.378   7.213  0.00  0.00    +0.322 C 
ATOM     13  N   LIG    1       28.911 -19.728   6.280  0.00  0.00    -0.231 N 
ATOM     14  H   LIG    1       28.497 -18.961   5.763  0.00  0.00    +0.291 HD
ATOM     15  C   LIG    1       30.228 -19.540   6.832  0.00  0.00    +0.273 C 
ATOM     16  C   LIG    1       30.216 -20.548   7.982  0.00  0.00    +0.333 C 
ATOM     17  N   LIG    1       28.791 -20.879   8.241  0.00  0.00    -0.080 NA
ENDBRANCH  11  12
ENDBRANCH   1  11
TORSDOF 3
ENDMDL
MODEL 2
REMARK VINA RESULT:      -6.9      0.477      2.300
REMARK  Name = *****
REMARK                            x       y       z     vdW  Elec       q    Type
REMARK                         _______ _______ _______ _____ _____    ______ ____
ROOT
ATOM      1  O   LIG    1       25.914 -21.311   6.394  0.00  0.00    -0.474 OA
ENDROOT
BRANCH   1   2
ATOM      2  C   LIG    1       24.863 -20.754   5.707  0.00  0.00    +0.158 A 
ATOM      3  C   LIG    1       25.033 -19.845   4.652  0.00  0.00    +0.084 A 
ATOM      4 CL   LIG    1       26.571 -19.182   4.229  0.00  0.00    -0.080 Cl
ATOM      5  C   LIG    1       23.927 -19.391   3.923  0.00  0.00    +0.024 A 
ATOM      6  C   LIG    1       22.638 -19.779   4.282  0.00  0.00    +0.003 A 
ATOM      7  C   LIG    1       22.451 -20.596   5.395  0.00  0.00    +0.024 A 
ATOM      8  C   LIG    1       23.556 -21.076   6.107  0.00  0.00    +0.084 A 
ATOM      9 CL   LIG    1       23.255 -22.076   7.485  0.00  0.00    -0.080 Cl
ENDBRANCH   1   2
BRANCH   1  11
ATOM     10  C   LIG    1       25.956 -20.670   8.693  0.00  0.00    +0.065 C 
ATOM     11  C   LIG    1       26.572 -20.428   7.313  0.00  0.00    +0.284 C 
BRANCH  11  12
ATOM     12  C   LIG    1       28.113 -20.510   7.388  0.00  0.00    +0.322 C 
ATOM     13  N   LIG    1       28.923 -19.802   6.533  0.00  0.00    -0.231 N 
ATOM     14  H   LIG    1       28.565 -18.942   6.131  0.00  0.00    +0.291 HD
ATOM     15  C   LIG    1       30.258 -19.792   7.075  0.00  0.00    +0.273 C 
ATOM     16  C   LIG    1       30.180 -20.940   8.082  0.00  0.00    +0.333 C 
ATOM     17  N   LIG    1       28.736 -21.192   8.325  0.00  0.00    -0.080 NA
ENDBRANCH  11  12
ENDBRANCH   1  11
TORSDOF 3
ENDMDL
MODEL 3
REMARK VINA RESULT:      -6.8      0.872      1.026
REMARK  Name = *****
REMARK                            x       y       z     vdW  Elec       q    Type
REMARK                         _______ _______ _______ _____ _____    ______ ____
ROOT
ATOM      1  O   LIG    1       26.773 -21.286   6.058  0.00  0.00    -0.474 OA
ENDROOT
BRANCH   1   2
ATOM      2  C   LIG    1       25.408 -21.361   5.924  0.00  0.00    +0.158 A 
ATOM      3  C   LIG    1       24.630 -22.352   6.540  0.00  0.00    +0.084 A 
ATOM      4 CL   LIG    1       25.322 -23.696   7.377  0.00  0.00    -0.080 Cl
ATOM      5  C   LIG    1       23.233 -22.315   6.450  0.00  0.00    +0.024 A 
ATOM      6  C   LIG    1       22.602 -21.335   5.685  0.00  0.00    +0.003 A 
ATOM      7  C   LIG    1       23.370 -20.411   4.982  0.00  0.00    +0.024 A 
ATOM      8  C   LIG    1       24.766 -20.427   5.095  0.00  0.00    +0.084 A 
ATOM      9 CL   LIG    1       25.661 -19.260   4.187  0.00  0.00    -0.080 Cl
ENDBRANCH   1   2
BRANCH   1  11
ATOM     10  C   LIG    1       26.491 -20.496   8.292  0.00  0.00    +0.065 C 
ATOM     11  C   LIG    1       27.239 -20.285   6.973  0.00  0.00    +0.284 C 
BRANCH  11  12
ATOM     12  C   LIG    1       28.762 -20.211   7.221  0.00  0.00    +0.322 C 
ATOM     13  N   LIG    1       29.598 -19.482   6.411  0.00  0.00    -0.231 N 
ATOM     14  H   LIG    1       29.213 -18.688   5.911  0.00  0.00    +0.291 HD
ATOM     15  C   LIG    1       30.855 -19.307   7.093  0.00  0.00    +0.273 C 
ATOM     16  C   LIG    1       30.765 -20.393   8.166  0.00  0.00    +0.333 C 
ATOM     17  N   LIG    1       29.331 -20.770   8.268  0.00  0.00    -0.080 NA
ENDBRANCH  11  12
ENDBRANCH   1  11
TORSDOF 3
ENDMDL
MODEL 4
REMARK VINA RESULT:      -6.7      1.868      2.580
REMARK  Name = *****
REMARK                            x       y       z     vdW  Elec       q    Type
REMARK                         _______ _______ _______ _____ _____    ______ ____
ROOT
ATOM      1  O   LIG    1       25.326 -20.430   6.581  0.00  0.00    -0.474 OA
ENDROOT
BRANCH   1   2
ATOM      2  C   LIG    1       24.462 -21.498   6.551  0.00  0.00    +0.158 A 
ATOM      3  C   LIG    1       24.851 -22.807   6.868  0.00  0.00    +0.084 A 
ATOM      4 CL   LIG    1       26.497 -23.250   7.149  0.00  0.00    -0.080 Cl
ATOM      5  C   LIG    1       23.902 -23.836   6.919  0.00  0.00    +0.024 A 
ATOM      6  C   LIG    1       22.574 -23.587   6.581  0.00  0.00    +0.003 A 
ATOM      7  C   LIG    1       22.199 -22.313   6.159  0.00  0.00    +0.024 A 
ATOM      8  C   LIG    1       23.139 -21.276   6.138  0.00  0.00    +0.084 A 
ATOM      9 CL   LIG    1       22.612 -19.722   5.593  0.00  0.00    -0.080 Cl
ENDBRANCH   1   2
BRANCH   1  11
ATOM     10  C   LIG    1       25.866 -19.703   4.373  0.00  0.00    +0.065 C 
ATOM     11  C   LIG    1       26.370 -20.467   5.599  0.00  0.00    +0.284 C 
BRANCH  11  12
ATOM     12  C   LIG    1       27.760 -19.945   6.028  0.00  0.00    +0.322 C 
ATOM     13  N   LIG    1       28.534 -19.168   5.200  0.00  0.00    -0.231 N 
ATOM     14  H   LIG    1       28.071 -18.605   4.495  0.00  0.00    +0.291 HD
ATOM     15  C   LIG    1       29.565 -18.547   5.992  0.00  0.00    +0.273 C 
ATOM     16  C   LIG    1       29.539 -19.416   7.250  0.00  0.00    +0.333 C 
ATOM     17  N   LIG    1       28.241 -20.141   7.237  0.00  0.00    -0.080 NA
ENDBRANCH  11  12
ENDBRANCH   1  11
TORSDOF 3
ENDMDL
MODEL 5
REMARK VINA RESULT:      -6.6      1.868      2.875
REMARK  Name = *****
REMARK                            x       y       z     vdW  Elec       q    Type
REMARK                         _______ _______ _______ _____ _____    ______ ____
ROOT
ATOM      1  O   LIG    1       25.444 -20.342   6.516  0.00  0.00    -0.474 OA
ENDROOT
BRANCH   1   2
ATOM      2  C   LIG    1       24.489 -21.329   6.525  0.00  0.00    +0.158 A 
ATOM      3  C   LIG    1       23.179 -21.132   6.066  0.00  0.00    +0.084 A 
ATOM      4 CL   LIG    1       22.571 -19.579   5.615  0.00  0.00    -0.080 Cl
ATOM      5  C   LIG    1       22.280 -22.205   6.005  0.00  0.00    +0.024 A 
ATOM      6  C   LIG    1       22.654 -23.464   6.471  0.00  0.00    +0.003 A 
ATOM      7  C   LIG    1       23.917 -23.644   7.029  0.00  0.00    +0.024 A 
ATOM      8  C   LIG    1       24.828 -22.582   7.062  0.00  0.00    +0.084 A 
ATOM      9 CL   LIG    1       26.374 -22.868   7.779  0.00  0.00    -0.080 Cl
ENDBRANCH   1   2
BRANCH   1  11
ATOM     10  C   LIG    1       25.818 -19.652   4.262  0.00  0.00    +0.065 C 
ATOM     11  C   LIG    1       26.396 -20.430   5.446  0.00  0.00    +0.284 C 
BRANCH  11  12
ATOM     12  C   LIG    1       27.838 -19.963   5.746  0.00  0.00    +0.322 C 
ATOM     13  N   LIG    1       28.409 -18.896   5.096  0.00  0.00    -0.231 N 
ATOM     14  H   LIG    1       27.800 -18.173   4.729  0.00  0.00    +0.291 HD
ATOM     15  C   LIG    1       29.577 -18.486   5.833  0.00  0.00    +0.273 C 
ATOM     16  C   LIG    1       29.829 -19.719   6.702  0.00  0.00    +0.333 C 
ATOM     17  N   LIG    1       28.568 -20.505   6.698  0.00  0.00    -0.080 NA
ENDBRANCH  11  12
ENDBRANCH   1  11
TORSDOF 3
ENDMDL
MODEL 6
REMARK VINA RESULT:      -6.4      3.087      4.378
REMARK  Name = *****
REMARK                            x       y       z     vdW  Elec       q    Type
REMARK                         _______ _______ _______ _____ _____    ______ ____
ROOT
ATOM      1  O   LIG    1       24.656 -21.561   6.632  0.00  0.00    -0.474 OA
ENDROOT
BRANCH   1   2
ATOM      2  C   LIG    1       24.810 -20.698   5.574  0.00  0.00    +0.158 A 
ATOM      3  C   LIG    1       26.027 -20.075   5.263  0.00  0.00    +0.084 A 
ATOM      4 CL   LIG    1       27.416 -20.177   6.287  0.00  0.00    -0.080 Cl
ATOM      5  C   LIG    1       26.146 -19.286   4.112  0.00  0.00    +0.024 A 
ATOM      6  C   LIG    1       25.038 -19.050   3.302  0.00  0.00    +0.003 A 
ATOM      7  C   LIG    1       23.799 -19.576   3.661  0.00  0.00    +0.024 A 
ATOM      8  C   LIG    1       23.684 -20.390   4.794  0.00  0.00    +0.084 A 
ATOM      9 CL   LIG    1       22.116 -21.001   5.190  0.00  0.00    -0.080 Cl
ENDBRANCH   1   2
BRANCH   1  11
ATOM     10  C   LIG    1       26.066 -22.559   8.278  0.00  0.00    +0.065 C 
ATOM     11  C   LIG    1       25.711 -22.520   6.790  0.00  0.00    +0.284 C 
BRANCH  11  12
ATOM     12  C   LIG    1       25.452 -23.947   6.258  0.00  0.00    +0.322 C 
ATOM     13  N   LIG    1       24.926 -24.175   5.009  0.00  0.00    -0.231 N 
ATOM     14  H   LIG    1       25.075 -23.477   4.289  0.00  0.00    +0.291 HD
ATOM     15  C   LIG    1       25.148 -25.558   4.668  0.00  0.00    +0.273 C 
ATOM     16  C   LIG    1       25.452 -26.158   6.041  0.00  0.00    +0.333 C 
ATOM     17  N   LIG    1       25.799 -25.022   6.934  0.00  0.00    -0.080 NA
ENDBRANCH  11  12
ENDBRANCH   1  11
TORSDOF 3
ENDMDL
MODEL 7
REMARK VINA RESULT:      -6.3      2.955      4.652
REMARK  Name = *****
REMARK                            x       y       z     vdW  Elec       q    Type
REMARK                         _______ _______ _______ _____ _____    ______ ____
ROOT
ATOM      1  O   LIG    1       24.358 -21.214   6.420  0.00  0.00    -0.474 OA
ENDROOT
BRANCH   1   2
ATOM      2  C   LIG    1       25.649 -20.751   6.484  0.00  0.00    +0.158 A 
ATOM      3  C   LIG    1       26.384 -20.689   7.677  0.00  0.00    +0.084 A 
ATOM      4 CL   LIG    1       25.683 -21.011   9.223  0.00  0.00    -0.080 Cl
ATOM      5  C   LIG    1       27.730 -20.303   7.661  0.00  0.00    +0.024 A 
ATOM      6  C   LIG    1       28.335 -19.904   6.472  0.00  0.00    +0.003 A 
ATOM      7  C   LIG    1       27.584 -19.859   5.299  0.00  0.00    +0.024 A 
ATOM      8  C   LIG    1       26.247 -20.273   5.306  0.00  0.00    +0.084 A 
ATOM      9 CL   LIG    1       25.367 -20.180   3.821  0.00  0.00    -0.080 Cl
ENDBRANCH   1   2
BRANCH   1  11
ATOM     10  C   LIG    1       22.603 -22.574   7.295  0.00  0.00    +0.065 C 
ATOM     11  C   LIG    1       24.118 -22.438   7.129  0.00  0.00    +0.284 C 
BRANCH  11  12
ATOM     12  C   LIG    1       24.714 -23.730   6.527  0.00  0.00    +0.322 C 
ATOM     13  N   LIG    1       24.237 -24.278   5.361  0.00  0.00    -0.231 N 
ATOM     14  H   LIG    1       23.792 -23.665   4.687  0.00  0.00    +0.291 HD
ATOM     15  C   LIG    1       25.206 -25.228   4.875  0.00  0.00    +0.273 C 
ATOM     16  C   LIG    1       26.049 -25.461   6.129  0.00  0.00    +0.333 C 
ATOM     17  N   LIG    1       25.763 -24.328   7.048  0.00  0.00    -0.080 NA
ENDBRANCH  11  12
ENDBRANCH   1  11
TORSDOF 3
ENDMDL
MODEL 8
REMARK VINA RESULT:      -6.3      1.855      3.180
REMARK  Name = *****
REMARK                            x       y       z     vdW  Elec       q    Type
REMARK                         _______ _______ _______ _____ _____    ______ ____
ROOT
ATOM      1  O   LIG    1       26.945 -19.890   6.747  0.00  0.00    -0.474 OA
ENDROOT
BRANCH   1   2
ATOM      2  C   LIG    1       26.068 -20.862   6.332  0.00  0.00    +0.158 A 
ATOM      3  C   LIG    1       25.398 -20.815   5.101  0.00  0.00    +0.084 A 
ATOM      4 CL   LIG    1       25.459 -19.439   4.057  0.00  0.00    -0.080 Cl
ATOM      5  C   LIG    1       24.595 -21.886   4.689  0.00  0.00    +0.024 A 
ATOM      6  C   LIG    1       24.392 -22.978   5.529  0.00  0.00    +0.003 A 
ATOM      7  C   LIG    1       24.966 -22.986   6.799  0.00  0.00    +0.024 A 
ATOM      8  C   LIG    1       25.794 -21.931   7.201  0.00  0.00    +0.084 A 
ATOM      9 CL   LIG    1       26.465 -21.995   8.792  0.00  0.00    -0.080 Cl
ENDBRANCH   1   2
BRANCH   1  11
ATOM     10  C   LIG    1       28.663 -18.968   5.371  0.00  0.00    +0.065 C 
ATOM     11  C   LIG    1       28.308 -20.092   6.347  0.00  0.00    +0.284 C 
BRANCH  11  12
ATOM     12  C   LIG    1       29.365 -20.188   7.469  0.00  0.00    +0.322 C 
ATOM     13  N   LIG    1       29.819 -21.396   7.942  0.00  0.00    -0.231 N 
ATOM     14  H   LIG    1       29.787 -22.199   7.323  0.00  0.00    +0.291 HD
ATOM     15  C   LIG    1       31.029 -21.166   8.689  0.00  0.00    +0.273 C 
ATOM     16  C   LIG    1       30.940 -19.661   8.945  0.00  0.00    +0.333 C 
ATOM     17  N   LIG    1       29.952 -19.124   7.974  0.00  0.00    -0.080 NA
ENDBRANCH  11  12
ENDBRANCH   1  11
TORSDOF 3
ENDMDL
MODEL 9
REMARK VINA RESULT:      -6.2      2.864      5.400
REMARK  Name = *****
REMARK                            x       y       z     vdW  Elec       q    Type
REMARK                         _______ _______ _______ _____ _____    ______ ____
ROOT
ATOM      1  O   LIG    1       27.726 -22.004   6.967  0.00  0.00    -0.474 OA
ENDROOT
BRANCH   1   2
ATOM      2  C   LIG    1       28.500 -20.885   6.779  0.00  0.00    +0.158 A 
ATOM      3  C   LIG    1       29.691 -20.650   7.482  0.00  0.00    +0.084 A 
ATOM      4 CL   LIG    1       30.214 -21.648   8.792  0.00  0.00    -0.080 Cl
ATOM      5  C   LIG    1       30.489 -19.541   7.174  0.00  0.00    +0.024 A 
ATOM      6  C   LIG    1       30.074 -18.618   6.217  0.00  0.00    +0.003 A 
ATOM      7  C   LIG    1       28.840 -18.784   5.591  0.00  0.00    +0.024 A 
ATOM      8  C   LIG    1       28.055 -19.908   5.875  0.00  0.00    +0.084 A 
ATOM      9 CL   LIG    1       26.531 -20.049   5.072  0.00  0.00    -0.080 Cl
ENDBRANCH   1   2
BRANCH   1  11
ATOM     10  C   LIG    1       26.698 -20.418   8.423  0.00  0.00    +0.065 C 
ATOM     11  C   LIG    1       26.724 -21.884   7.986  0.00  0.00    +0.284 C 
BRANCH  11  12
ATOM     12  C   LIG    1       25.300 -22.368   7.634  0.00  0.00    +0.322 C 
ATOM     13  N   LIG    1       24.187 -21.602   7.884  0.00  0.00    -0.231 N 
ATOM     14  H   LIG    1       24.293 -20.594   7.918  0.00  0.00    +0.291 HD
ATOM     15  C   LIG    1       23.084 -22.141   7.129  0.00  0.00    +0.273 C 
ATOM     16  C   LIG    1       23.608 -23.538   6.793  0.00  0.00    +0.333 C 
ATOM     17  N   LIG    1       25.079 -23.500   7.000  0.00  0.00    -0.080 NA
ENDBRANCH  11  12
ENDBRANCH   1  11
TORSDOF 3
ENDMDL
