MODEL 1
REMARK VINA RESULT:      -3.0      0.000      0.000
REMARK  Name = *****
REMARK                            x       y       z     vdW  Elec       q    Type
REMARK                         _______ _______ _______ _____ _____    ______ ____
ROOT
ATOM      1  C   LIG    1       25.035 -17.185   3.488  0.00  0.00    +0.036 A 
ATOM      2  C   LIG    1       23.703 -17.599   3.626  0.00  0.00    +0.038 A 
ATOM      3  C   LIG    1       23.383 -18.968   3.828  0.00  0.00    +0.060 A 
ATOM      4  C   LIG    1       24.404 -19.940   3.796  0.00  0.00    +0.131 A 
ATOM      5  C   LIG    1       25.703 -19.500   3.509  0.00  0.00    +0.048 A 
ATOM      6  C   LIG    1       26.011 -18.152   3.336  0.00  0.00    +0.027 A 
ENDROOT
BRANCH   1   9
ATOM      7  N   LIG    1       25.107 -13.483   3.979  0.00  0.00    -0.286 N 
ATOM      8  C   LIG    1       24.506 -14.745   3.878  0.00  0.00    +0.306 C 
ATOM      9  N   LIG    1       25.360 -15.821   3.684  0.00  0.00    -0.269 N 
ATOM     10  H   LIG    1       26.247 -15.609   3.258  0.00  0.00    +0.156 HD
ATOM     11  O   LIG    1       23.257 -14.854   3.971  0.00  0.00    -0.252 OA
BRANCH   7  13
ATOM     12  C   LIG    1       23.812 -11.478   3.028  0.00  0.00    +0.024 C 
ATOM     13  C   LIG    1       24.256 -12.294   4.249  0.00  0.00    +0.106 C 
ENDBRANCH   7  13
BRANCH   7  14
ATOM     14  C   LIG    1       26.528 -13.240   3.718  0.00  0.00    +0.106 C 
ATOM     15  C   LIG    1       27.342 -12.819   4.921  0.00  0.00    +0.024 C 
ENDBRANCH   7  14
ENDBRANCH   1   9
BRANCH   3  16
ATOM     16  C   LIG    1       21.953 -19.253   4.164  0.00  0.00    +0.164 C 
ATOM     17  O   LIG    1       21.689 -20.077   5.039  0.00  0.00    -0.292 OA
ATOM     18  C   LIG    1       20.858 -18.599   3.363  0.00  0.00    +0.091 C 
ENDBRANCH   3  16
BRANCH   4  19
ATOM     19  O   LIG    1       24.118 -21.272   4.030  0.00  0.00    -0.489 OA
BRANCH  19  20
ATOM     20  C   LIG    1       23.444 -21.572   5.282  0.00  0.00    +0.261 C 
BRANCH  20  21
ATOM     21  C   LIG    1       24.308 -21.203   6.517  0.00  0.00    +0.166 C 
BRANCH  21  22
ATOM     22  O   LIG    1       24.081 -19.831   6.856  0.00  0.00    -0.387 OA
ATOM     23  H   LIG    1       24.468 -19.717   7.745  0.00  0.00    +0.210 HD
ENDBRANCH  21  22
BRANCH  21  24
ATOM     24  C   LIG    1       25.828 -21.442   6.234  0.00  0.00    +0.116 C 
BRANCH  24  25
ATOM     25  N   LIG    1       26.757 -20.634   7.062  0.00  0.00    -0.309 NA
ATOM     26  H   LIG    1       26.299 -19.744   7.275  0.00  0.00    +0.122 HD
BRANCH  25  27
ATOM     27  C   LIG    1       28.103 -20.379   6.476  0.00  0.00    +0.011 C 
ATOM     28  C   LIG    1       29.067 -21.571   6.639  0.00  0.00    +0.027 C 
ATOM     29  C   LIG    1       28.744 -19.105   7.061  0.00  0.00    +0.027 C 
ATOM     30  C   LIG    1       27.946 -20.156   4.951  0.00  0.00    +0.027 C 
ENDBRANCH  25  27
ENDBRANCH  24  25
ENDBRANCH  21  24
ENDBRANCH  20  21
ENDBRANCH  19  20
ENDBRANCH   4  19
TORSDOF 11
ENDMDL
MODEL 2
REMARK VINA RESULT:      -2.3      1.115      1.736
REMARK  Name = *****
REMARK                            x       y       z     vdW  Elec       q    Type
REMARK                         _______ _______ _______ _____ _____    ______ ____
ROOT
ATOM      1  C   LIG    1       25.154 -17.100   3.453  0.00  0.00    +0.036 A 
ATOM      2  C   LIG    1       23.909 -17.707   3.668  0.00  0.00    +0.038 A 
ATOM      3  C   LIG    1       23.817 -19.088   3.984  0.00  0.00    +0.060 A 
ATOM      4  C   LIG    1       24.981 -19.886   3.993  0.00  0.00    +0.131 A 
ATOM      5  C   LIG    1       26.186 -19.270   3.630  0.00  0.00    +0.048 A 
ATOM      6  C   LIG    1       26.270 -17.909   3.344  0.00  0.00    +0.027 A 
ENDROOT
BRANCH   1   9
ATOM      7  N   LIG    1       26.210 -13.520   3.584  0.00  0.00    -0.286 N 
ATOM      8  C   LIG    1       26.388 -14.895   3.385  0.00  0.00    +0.306 C 
ATOM      9  N   LIG    1       25.260 -15.690   3.532  0.00  0.00    -0.269 N 
ATOM     10  H   LIG    1       24.532 -15.319   4.119  0.00  0.00    +0.156 HD
ATOM     11  O   LIG    1       27.522 -15.344   3.084  0.00  0.00    -0.252 OA
BRANCH   7  13
ATOM     12  C   LIG    1       28.429 -12.590   4.484  0.00  0.00    +0.024 C 
ATOM     13  C   LIG    1       27.362 -12.603   3.382  0.00  0.00    +0.106 C 
ENDBRANCH   7  13
BRANCH   7  14
ATOM     14  C   LIG    1       24.971 -12.930   4.097  0.00  0.00    +0.106 C 
ATOM     15  C   LIG    1       24.176 -12.123   3.094  0.00  0.00    +0.024 C 
ENDBRANCH   7  14
ENDBRANCH   1   9
BRANCH   3  16
ATOM     16  C   LIG    1       22.459 -19.568   4.390  0.00  0.00    +0.164 C 
ATOM     17  O   LIG    1       22.354 -20.411   5.279  0.00  0.00    -0.292 OA
ATOM     18  C   LIG    1       21.247 -19.083   3.638  0.00  0.00    +0.091 C 
ENDBRANCH   3  16
BRANCH   4  19
ATOM     19  O   LIG    1       24.917 -21.223   4.339  0.00  0.00    -0.489 OA
BRANCH  19  20
ATOM     20  C   LIG    1       24.009 -21.562   5.422  0.00  0.00    +0.261 C 
BRANCH  20  21
ATOM     21  C   LIG    1       24.579 -21.169   6.811  0.00  0.00    +0.166 C 
BRANCH  21  22
ATOM     22  O   LIG    1       24.295 -19.790   7.062  0.00  0.00    -0.387 OA
ATOM     23  H   LIG    1       24.270 -19.704   8.034  0.00  0.00    +0.210 HD
ENDBRANCH  21  22
BRANCH  21  24
ATOM     24  C   LIG    1       26.122 -21.422   6.879  0.00  0.00    +0.116 C 
BRANCH  24  25
ATOM     25  N   LIG    1       26.952 -20.205   7.051  0.00  0.00    -0.309 NA
ATOM     26  H   LIG    1       26.472 -19.426   6.591  0.00  0.00    +0.122 HD
BRANCH  25  27
ATOM     27  C   LIG    1       28.354 -20.293   6.558  0.00  0.00    +0.011 C 
ATOM     28  C   LIG    1       29.078 -21.572   7.024  0.00  0.00    +0.027 C 
ATOM     29  C   LIG    1       29.177 -19.052   6.960  0.00  0.00    +0.027 C 
ATOM     30  C   LIG    1       28.333 -20.348   5.010  0.00  0.00    +0.027 C 
ENDBRANCH  25  27
ENDBRANCH  24  25
ENDBRANCH  21  24
ENDBRANCH  20  21
ENDBRANCH  19  20
ENDBRANCH   4  19
TORSDOF 11
ENDMDL
MODEL 3
REMARK VINA RESULT:      -0.9      1.999      4.537
REMARK  Name = *****
REMARK                            x       y       z     vdW  Elec       q    Type
REMARK                         _______ _______ _______ _____ _____    ______ ____
ROOT
ATOM      1  C   LIG    1       26.820 -16.824   4.167  0.00  0.00    +0.036 A 
ATOM      2  C   LIG    1       27.646 -17.525   5.056  0.00  0.00    +0.038 A 
ATOM      3  C   LIG    1       27.561 -18.938   5.170  0.00  0.00    +0.060 A 
ATOM      4  C   LIG    1       26.572 -19.642   4.451  0.00  0.00    +0.131 A 
ATOM      5  C   LIG    1       25.672 -18.887   3.686  0.00  0.00    +0.048 A 
ATOM      6  C   LIG    1       25.779 -17.504   3.562  0.00  0.00    +0.027 A 
ENDROOT
BRANCH   1   9
ATOM      7  N   LIG    1       27.033 -13.341   2.835  0.00  0.00    -0.286 N 
ATOM      8  C   LIG    1       26.393 -14.542   3.167  0.00  0.00    +0.306 C 
ATOM      9  N   LIG    1       27.177 -15.509   3.780  0.00  0.00    -0.269 N 
ATOM     10  H   LIG    1       28.165 -15.455   3.600  0.00  0.00    +0.156 HD
ATOM     11  O   LIG    1       25.172 -14.693   2.914  0.00  0.00    -0.252 OA
BRANCH   7  13
ATOM     12  C   LIG    1       24.765 -12.146   2.653  0.00  0.00    +0.024 C 
ATOM     13  C   LIG    1       26.238 -12.239   2.232  0.00  0.00    +0.106 C 
ENDBRANCH   7  13
BRANCH   7  14
ATOM     14  C   LIG    1       28.479 -13.138   2.941  0.00  0.00    +0.106 C 
ATOM     15  C   LIG    1       28.927 -12.261   4.088  0.00  0.00    +0.024 C 
ENDBRANCH   7  14
ENDBRANCH   1   9
BRANCH   3  16
ATOM     16  C   LIG    1       28.629 -19.584   5.995  0.00  0.00    +0.164 C 
ATOM     17  O   LIG    1       28.768 -20.806   5.958  0.00  0.00    -0.292 OA
ATOM     18  C   LIG    1       29.454 -18.741   6.931  0.00  0.00    +0.091 C 
ENDBRANCH   3  16
BRANCH   4  19
ATOM     19  O   LIG    1       26.499 -21.021   4.517  0.00  0.00    -0.489 OA
BRANCH  19  20
ATOM     20  C   LIG    1       25.595 -21.567   5.516  0.00  0.00    +0.261 C 
BRANCH  20  21
ATOM     21  C   LIG    1       24.117 -21.543   5.044  0.00  0.00    +0.166 C 
BRANCH  21  22
ATOM     22  O   LIG    1       24.080 -21.571   3.614  0.00  0.00    -0.387 OA
ATOM     23  H   LIG    1       24.373 -20.684   3.330  0.00  0.00    +0.210 HD
ENDBRANCH  21  22
BRANCH  21  24
ATOM     24  C   LIG    1       23.375 -20.272   5.577  0.00  0.00    +0.116 C 
BRANCH  24  25
ATOM     25  N   LIG    1       22.011 -20.065   5.032  0.00  0.00    -0.309 NA
ATOM     26  H   LIG    1       21.712 -20.937   4.585  0.00  0.00    +0.122 HD
BRANCH  25  27
ATOM     27  C   LIG    1       21.851 -18.932   4.080  0.00  0.00    +0.011 C 
ATOM     28  C   LIG    1       22.299 -17.580   4.669  0.00  0.00    +0.027 C 
ATOM     29  C   LIG    1       20.401 -18.822   3.566  0.00  0.00    +0.027 C 
ATOM     30  C   LIG    1       22.756 -19.186   2.848  0.00  0.00    +0.027 C 
ENDBRANCH  25  27
ENDBRANCH  24  25
ENDBRANCH  21  24
ENDBRANCH  20  21
ENDBRANCH  19  20
ENDBRANCH   4  19
TORSDOF 11
ENDMDL
MODEL 4
REMARK VINA RESULT:      -0.6      2.273      4.722
REMARK  Name = *****
REMARK                            x       y       z     vdW  Elec       q    Type
REMARK                         _______ _______ _______ _____ _____    ______ ____
ROOT
ATOM      1  C   LIG    1       26.436 -17.000   3.829  0.00  0.00    +0.036 A 
ATOM      2  C   LIG    1       27.303 -17.669   4.704  0.00  0.00    +0.038 A 
ATOM      3  C   LIG    1       27.173 -19.064   4.933  0.00  0.00    +0.060 A 
ATOM      4  C   LIG    1       26.104 -19.776   4.349  0.00  0.00    +0.131 A 
ATOM      5  C   LIG    1       25.176 -19.041   3.600  0.00  0.00    +0.048 A 
ATOM      6  C   LIG    1       25.324 -17.676   3.361  0.00  0.00    +0.027 A 
ENDROOT
BRANCH   1   9
ATOM      7  N   LIG    1       27.809 -13.591   3.164  0.00  0.00    -0.286 N 
ATOM      8  C   LIG    1       27.675 -14.798   3.863  0.00  0.00    +0.306 C 
ATOM      9  N   LIG    1       26.811 -15.735   3.316  0.00  0.00    -0.269 N 
ATOM     10  H   LIG    1       26.085 -15.372   2.721  0.00  0.00    +0.156 HD
ATOM     11  O   LIG    1       28.325 -14.985   4.922  0.00  0.00    -0.252 OA
BRANCH   7  13
ATOM     12  C   LIG    1       28.647 -12.181   5.141  0.00  0.00    +0.024 C 
ATOM     13  C   LIG    1       28.765 -12.567   3.661  0.00  0.00    +0.106 C 
ENDBRANCH   7  13
BRANCH   7  14
ATOM     14  C   LIG    1       26.972 -13.221   2.020  0.00  0.00    +0.106 C 
ATOM     15  C   LIG    1       25.493 -13.107   2.313  0.00  0.00    +0.024 C 
ENDBRANCH   7  14
ENDBRANCH   1   9
BRANCH   3  16
ATOM     16  C   LIG    1       28.278 -19.694   5.721  0.00  0.00    +0.164 C 
ATOM     17  O   LIG    1       29.448 -19.463   5.418  0.00  0.00    -0.292 OA
ATOM     18  C   LIG    1       27.943 -20.676   6.813  0.00  0.00    +0.091 C 
ENDBRANCH   3  16
BRANCH   4  19
ATOM     19  O   LIG    1       25.984 -21.141   4.527  0.00  0.00    -0.489 OA
BRANCH  19  20
ATOM     20  C   LIG    1       25.308 -21.571   5.740  0.00  0.00    +0.261 C 
BRANCH  20  21
ATOM     21  C   LIG    1       23.944 -20.859   5.936  0.00  0.00    +0.166 C 
BRANCH  21  22
ATOM     22  O   LIG    1       23.267 -21.441   7.054  0.00  0.00    -0.387 OA
ATOM     23  H   LIG    1       23.732 -22.281   7.229  0.00  0.00    +0.210 HD
ENDBRANCH  21  22
BRANCH  21  24
ATOM     24  C   LIG    1       23.058 -20.974   4.651  0.00  0.00    +0.116 C 
BRANCH  24  25
ATOM     25  N   LIG    1       21.738 -20.301   4.735  0.00  0.00    -0.309 NA
ATOM     26  H   LIG    1       21.023 -20.966   4.428  0.00  0.00    +0.122 HD
BRANCH  25  27
ATOM     27  C   LIG    1       21.603 -19.029   3.973  0.00  0.00    +0.011 C 
ATOM     28  C   LIG    1       22.365 -19.043   2.634  0.00  0.00    +0.027 C 
ATOM     29  C   LIG    1       22.047 -17.814   4.813  0.00  0.00    +0.027 C 
ATOM     30  C   LIG    1       20.110 -18.820   3.618  0.00  0.00    +0.027 C 
ENDBRANCH  25  27
ENDBRANCH  24  25
ENDBRANCH  21  24
ENDBRANCH  20  21
ENDBRANCH  19  20
ENDBRANCH   4  19
TORSDOF 11
ENDMDL
MODEL 5
REMARK VINA RESULT:      -0.4      2.491      7.272
REMARK  Name = *****
REMARK                            x       y       z     vdW  Elec       q    Type
REMARK                         _______ _______ _______ _____ _____    ______ ____
ROOT
ATOM      1  C   LIG    1       25.397 -19.101   4.205  0.00  0.00    +0.036 A 
ATOM      2  C   LIG    1       26.637 -19.409   4.780  0.00  0.00    +0.038 A 
ATOM      3  C   LIG    1       27.682 -18.449   4.815  0.00  0.00    +0.060 A 
ATOM      4  C   LIG    1       27.510 -17.199   4.184  0.00  0.00    +0.131 A 
ATOM      5  C   LIG    1       26.309 -16.987   3.494  0.00  0.00    +0.048 A 
ATOM      6  C   LIG    1       25.279 -17.926   3.485  0.00  0.00    +0.027 A 
ENDROOT
BRANCH   1   9
ATOM      7  N   LIG    1       22.032 -20.676   4.595  0.00  0.00    -0.286 N 
ATOM      8  C   LIG    1       22.968 -19.784   4.054  0.00  0.00    +0.306 C 
ATOM      9  N   LIG    1       24.269 -19.897   4.522  0.00  0.00    -0.269 N 
ATOM     10  H   LIG    1       24.376 -20.303   5.437  0.00  0.00    +0.156 HD
ATOM     11  O   LIG    1       22.609 -18.948   3.188  0.00  0.00    -0.252 OA
BRANCH   7  13
ATOM     12  C   LIG    1       20.049 -19.272   3.758  0.00  0.00    +0.024 C 
ATOM     13  C   LIG    1       20.633 -20.651   4.093  0.00  0.00    +0.106 C 
ENDBRANCH   7  13
BRANCH   7  14
ATOM     14  C   LIG    1       22.321 -21.567   5.721  0.00  0.00    +0.106 C 
ATOM     15  C   LIG    1       23.281 -21.016   6.751  0.00  0.00    +0.024 C 
ENDBRANCH   7  14
ENDBRANCH   1   9
BRANCH   3  16
ATOM     16  C   LIG    1       28.878 -18.827   5.633  0.00  0.00    +0.164 C 
ATOM     17  O   LIG    1       29.314 -19.976   5.574  0.00  0.00    -0.292 OA
ATOM     18  C   LIG    1       29.471 -17.823   6.586  0.00  0.00    +0.091 C 
ENDBRANCH   3  16
BRANCH   4  19
ATOM     19  O   LIG    1       28.500 -16.237   4.242  0.00  0.00    -0.489 OA
BRANCH  19  20
ATOM     20  C   LIG    1       28.337 -15.096   3.356  0.00  0.00    +0.261 C 
BRANCH  20  21
ATOM     21  C   LIG    1       28.085 -13.778   4.136  0.00  0.00    +0.166 C 
BRANCH  21  22
ATOM     22  O   LIG    1       27.685 -14.094   5.473  0.00  0.00    -0.387 OA
ATOM     23  H   LIG    1       28.353 -14.726   5.800  0.00  0.00    +0.210 HD
ENDBRANCH  21  22
BRANCH  21  24
ATOM     24  C   LIG    1       26.987 -12.910   3.437  0.00  0.00    +0.116 C 
BRANCH  24  25
ATOM     25  N   LIG    1       25.759 -13.645   3.045  0.00  0.00    -0.309 NA
ATOM     26  H   LIG    1       25.688 -13.622   2.024  0.00  0.00    +0.122 HD
BRANCH  25  27
ATOM     27  C   LIG    1       24.486 -13.162   3.648  0.00  0.00    +0.011 C 
ATOM     28  C   LIG    1       23.452 -14.286   3.856  0.00  0.00    +0.027 C 
ATOM     29  C   LIG    1       23.860 -12.023   2.818  0.00  0.00    +0.027 C 
ATOM     30  C   LIG    1       24.790 -12.590   5.056  0.00  0.00    +0.027 C 
ENDBRANCH  25  27
ENDBRANCH  24  25
ENDBRANCH  21  24
ENDBRANCH  20  21
ENDBRANCH  19  20
ENDBRANCH   4  19
TORSDOF 11
ENDMDL
MODEL 6
REMARK VINA RESULT:      -0.0      2.342      7.565
REMARK  Name = *****
REMARK                            x       y       z     vdW  Elec       q    Type
REMARK                         _______ _______ _______ _____ _____    ______ ____
ROOT
ATOM      1  C   LIG    1       27.258 -17.015   3.941  0.00  0.00    +0.036 A 
ATOM      2  C   LIG    1       28.038 -15.891   4.246  0.00  0.00    +0.038 A 
ATOM      3  C   LIG    1       27.724 -14.618   3.700  0.00  0.00    +0.060 A 
ATOM      4  C   LIG    1       26.674 -14.493   2.766  0.00  0.00    +0.131 A 
ATOM      5  C   LIG    1       26.015 -15.668   2.379  0.00  0.00    +0.048 A 
ATOM      6  C   LIG    1       26.313 -16.908   2.938  0.00  0.00    +0.027 A 
ENDROOT
BRANCH   1   9
ATOM      7  N   LIG    1       26.761 -20.210   5.811  0.00  0.00    -0.286 N 
ATOM      8  C   LIG    1       26.480 -19.249   4.831  0.00  0.00    +0.306 C 
ATOM      9  N   LIG    1       27.333 -18.156   4.777  0.00  0.00    -0.269 N 
ATOM     10  H   LIG    1       27.818 -17.933   5.629  0.00  0.00    +0.156 HD
ATOM     11  O   LIG    1       25.503 -19.410   4.058  0.00  0.00    -0.252 OA
BRANCH   7  13
ATOM     12  C   LIG    1       24.801 -21.438   6.931  0.00  0.00    +0.024 C 
ATOM     13  C   LIG    1       25.924 -21.437   5.886  0.00  0.00    +0.106 C 
ENDBRANCH   7  13
BRANCH   7  14
ATOM     14  C   LIG    1       27.770 -20.028   6.857  0.00  0.00    +0.106 C 
ATOM     15  C   LIG    1       29.162 -20.499   6.500  0.00  0.00    +0.024 C 
ENDBRANCH   7  14
ENDBRANCH   1   9
BRANCH   3  16
ATOM     16  C   LIG    1       28.501 -13.468   4.258  0.00  0.00    +0.164 C 
ATOM     17  O   LIG    1       29.474 -13.036   3.640  0.00  0.00    -0.292 OA
ATOM     18  C   LIG    1       28.140 -12.918   5.613  0.00  0.00    +0.091 C 
ENDBRANCH   3  16
BRANCH   4  19
ATOM     19  O   LIG    1       26.328 -13.257   2.254  0.00  0.00    -0.489 OA
BRANCH  19  20
ATOM     20  C   LIG    1       25.676 -12.342   3.177  0.00  0.00    +0.261 C 
BRANCH  20  21
ATOM     21  C   LIG    1       24.140 -12.287   2.961  0.00  0.00    +0.166 C 
BRANCH  21  22
ATOM     22  O   LIG    1       23.529 -11.660   4.093  0.00  0.00    -0.387 OA
ATOM     23  H   LIG    1       23.034 -10.900   3.731  0.00  0.00    +0.210 HD
ENDBRANCH  21  22
BRANCH  21  24
ATOM     24  C   LIG    1       23.547 -13.721   2.756  0.00  0.00    +0.116 C 
BRANCH  24  25
ATOM     25  N   LIG    1       22.537 -14.133   3.762  0.00  0.00    -0.309 NA
ATOM     26  H   LIG    1       22.194 -13.291   4.231  0.00  0.00    +0.122 HD
BRANCH  25  27
ATOM     27  C   LIG    1       22.990 -15.125   4.776  0.00  0.00    +0.011 C 
ATOM     28  C   LIG    1       23.072 -16.560   4.223  0.00  0.00    +0.027 C 
ATOM     29  C   LIG    1       22.096 -15.100   6.033  0.00  0.00    +0.027 C 
ATOM     30  C   LIG    1       24.425 -14.753   5.227  0.00  0.00    +0.027 C 
ENDBRANCH  25  27
ENDBRANCH  24  25
ENDBRANCH  21  24
ENDBRANCH  20  21
ENDBRANCH  19  20
ENDBRANCH   4  19
TORSDOF 11
ENDMDL
