MODEL 1
REMARK VINA RESULT:      -5.5      0.000      0.000
REMARK  Name = *****
REMARK                            x       y       z     vdW  Elec       q    Type
REMARK                         _______ _______ _______ _____ _____    ______ ____
ROOT
ATOM      1  C   LIG    1       26.597 -16.471   3.602  0.00  0.00    +0.341 C 
ATOM      2  O   LIG    1       27.708 -16.665   4.046  0.00  0.00    -0.245 OA
ENDROOT
BRANCH   1   3
ATOM      3  C   LIG    1       25.859 -15.181   3.646  0.00  0.00    +0.077 A 
ATOM      4  C   LIG    1       26.514 -13.946   3.577  0.00  0.00    +0.057 A 
ATOM      5 CL   LIG    1       28.224 -13.774   3.385  0.00  0.00    -0.083 Cl
ATOM      6  C   LIG    1       25.770 -12.755   3.640  0.00  0.00    +0.043 A 
ATOM      7  C   LIG    1       24.377 -12.777   3.732  0.00  0.00    +0.026 A 
ATOM      8  C   LIG    1       23.737 -14.009   3.865  0.00  0.00    +0.023 A 
ATOM      9  C   LIG    1       24.467 -15.200   3.804  0.00  0.00    +0.018 A 
BRANCH   7  10
ATOM     10  N   LIG    1       23.662 -11.592   3.928  0.00  0.00    -0.358 N 
ATOM     11  H   LIG    1       23.459 -11.380   4.901  0.00  0.00    +0.142 HD
ATOM     12  H   LIG    1       24.040 -10.790   3.433  0.00  0.00    +0.142 HD
ENDBRANCH   7  10
ENDBRANCH   1   3
BRANCH   1  13
ATOM     13  O   LIG    1       25.819 -17.403   2.984  0.00  0.00    -0.460 OA
BRANCH  13  14
ATOM     14  C   LIG    1       25.731 -18.673   3.650  0.00  0.00    +0.247 C 
BRANCH  14  15
ATOM     15  C   LIG    1       24.346 -19.328   3.461  0.00  0.00    +0.125 C 
BRANCH  15  16
ATOM     16  N   LIG    1       23.918 -20.210   4.573  0.00  0.00    -0.300 NA
BRANCH  16  18
ATOM     17  C   LIG    1       24.569 -20.844   6.952  0.00  0.00    +0.020 C 
ATOM     18  C   LIG    1       24.997 -20.513   5.525  0.00  0.00    +0.081 C 
ENDBRANCH  16  18
BRANCH  16  19
ATOM     19  C   LIG    1       22.696 -19.676   5.203  0.00  0.00    +0.081 C 
ATOM     20  C   LIG    1       22.158 -18.411   4.537  0.00  0.00    +0.020 C 
ENDBRANCH  16  19
ENDBRANCH  15  16
ENDBRANCH  14  15
ENDBRANCH  13  14
ENDBRANCH   1  13
TORSDOF 8
ENDMDL
MODEL 2
REMARK VINA RESULT:      -4.8      1.634      2.079
REMARK  Name = *****
REMARK                            x       y       z     vdW  Elec       q    Type
REMARK                         _______ _______ _______ _____ _____    ______ ____
ROOT
ATOM      1  C   LIG    1       26.626 -16.246   3.575  0.00  0.00    +0.341 C 
ATOM      2  O   LIG    1       27.612 -16.333   4.274  0.00  0.00    -0.245 OA
ENDROOT
BRANCH   1   3
ATOM      3  C   LIG    1       25.879 -14.994   3.282  0.00  0.00    +0.077 A 
ATOM      4  C   LIG    1       24.533 -14.831   3.631  0.00  0.00    +0.057 A 
ATOM      5 CL   LIG    1       23.606 -16.024   4.473  0.00  0.00    -0.083 Cl
ATOM      6  C   LIG    1       23.869 -13.633   3.316  0.00  0.00    +0.043 A 
ATOM      7  C   LIG    1       24.539 -12.578   2.692  0.00  0.00    +0.026 A 
ATOM      8  C   LIG    1       25.861 -12.771   2.291  0.00  0.00    +0.023 A 
ATOM      9  C   LIG    1       26.531 -13.959   2.599  0.00  0.00    +0.018 A 
BRANCH   7  10
ATOM     10  N   LIG    1       23.836 -11.447   2.265  0.00  0.00    -0.358 N 
ATOM     11  H   LIG    1       24.365 -10.581   2.315  0.00  0.00    +0.142 HD
ATOM     12  H   LIG    1       23.370 -11.559   1.370  0.00  0.00    +0.142 HD
ENDBRANCH   7  10
ENDBRANCH   1   3
BRANCH   1  13
ATOM     13  O   LIG    1       26.020 -17.282   2.930  0.00  0.00    -0.460 OA
BRANCH  13  14
ATOM     14  C   LIG    1       26.260 -18.582   3.491  0.00  0.00    +0.247 C 
BRANCH  14  15
ATOM     15  C   LIG    1       24.990 -19.175   4.138  0.00  0.00    +0.125 C 
BRANCH  15  16
ATOM     16  N   LIG    1       25.155 -20.538   4.697  0.00  0.00    -0.300 NA
BRANCH  16  18
ATOM     17  C   LIG    1       27.143 -20.522   6.290  0.00  0.00    +0.020 C 
ATOM     18  C   LIG    1       25.630 -20.543   6.089  0.00  0.00    +0.081 C 
ENDBRANCH  16  18
BRANCH  16  19
ATOM     19  C   LIG    1       23.929 -21.328   4.480  0.00  0.00    +0.081 C 
ATOM     20  C   LIG    1       22.652 -20.630   4.945  0.00  0.00    +0.020 C 
ENDBRANCH  16  19
ENDBRANCH  15  16
ENDBRANCH  14  15
ENDBRANCH  13  14
ENDBRANCH   1  13
TORSDOF 8
ENDMDL
MODEL 3
REMARK VINA RESULT:      -4.5      1.661      2.564
REMARK  Name = *****
REMARK                            x       y       z     vdW  Elec       q    Type
REMARK                         _______ _______ _______ _____ _____    ______ ____
ROOT
ATOM      1  C   LIG    1       26.098 -16.598   3.573  0.00  0.00    +0.341 C 
ATOM      2  O   LIG    1       27.272 -16.854   3.741  0.00  0.00    -0.245 OA
ENDROOT
BRANCH   1   3
ATOM      3  C   LIG    1       25.538 -15.251   3.288  0.00  0.00    +0.077 A 
ATOM      4  C   LIG    1       24.263 -14.868   3.717  0.00  0.00    +0.057 A 
ATOM      5 CL   LIG    1       23.221 -15.878   4.658  0.00  0.00    -0.083 Cl
ATOM      6  C   LIG    1       23.775 -13.587   3.406  0.00  0.00    +0.043 A 
ATOM      7  C   LIG    1       24.557 -12.667   2.704  0.00  0.00    +0.026 A 
ATOM      8  C   LIG    1       25.801 -13.076   2.225  0.00  0.00    +0.023 A 
ATOM      9  C   LIG    1       26.296 -14.349   2.529  0.00  0.00    +0.018 A 
BRANCH   7  10
ATOM     10  N   LIG    1       24.012 -11.449   2.286  0.00  0.00    -0.358 N 
ATOM     11  H   LIG    1       23.085 -11.255   2.654  0.00  0.00    +0.142 HD
ATOM     12  H   LIG    1       24.637 -10.655   2.391  0.00  0.00    +0.142 HD
ENDBRANCH   7  10
ENDBRANCH   1   3
BRANCH   1  13
ATOM     13  O   LIG    1       25.078 -17.499   3.617  0.00  0.00    -0.460 OA
BRANCH  13  14
ATOM     14  C   LIG    1       25.327 -18.746   2.948  0.00  0.00    +0.247 C 
BRANCH  14  15
ATOM     15  C   LIG    1       25.502 -19.910   3.946  0.00  0.00    +0.125 C 
BRANCH  15  16
ATOM     16  N   LIG    1       24.596 -19.867   5.119  0.00  0.00    -0.300 NA
BRANCH  16  18
ATOM     17  C   LIG    1       22.172 -19.213   4.690  0.00  0.00    +0.020 C 
ATOM     18  C   LIG    1       23.227 -20.309   4.814  0.00  0.00    +0.081 C 
ENDBRANCH  16  18
BRANCH  16  19
ATOM     19  C   LIG    1       25.210 -20.566   6.262  0.00  0.00    +0.081 C 
ATOM     20  C   LIG    1       26.737 -20.526   6.265  0.00  0.00    +0.020 C 
ENDBRANCH  16  19
ENDBRANCH  15  16
ENDBRANCH  14  15
ENDBRANCH  13  14
ENDBRANCH   1  13
TORSDOF 8
ENDMDL
MODEL 4
REMARK VINA RESULT:      -4.3      2.490      6.452
REMARK  Name = *****
REMARK                            x       y       z     vdW  Elec       q    Type
REMARK                         _______ _______ _______ _____ _____    ______ ____
ROOT
ATOM      1  C   LIG    1       26.418 -18.835   4.197  0.00  0.00    +0.341 C 
ATOM      2  O   LIG    1       27.466 -19.041   4.772  0.00  0.00    -0.245 OA
ENDROOT
BRANCH   1   3
ATOM      3  C   LIG    1       25.137 -19.547   4.452  0.00  0.00    +0.077 A 
ATOM      4  C   LIG    1       25.046 -20.620   5.345  0.00  0.00    +0.057 A 
ATOM      5 CL   LIG    1       26.376 -21.207   6.283  0.00  0.00    -0.083 Cl
ATOM      6  C   LIG    1       23.814 -21.269   5.536  0.00  0.00    +0.043 A 
ATOM      7  C   LIG    1       22.660 -20.837   4.877  0.00  0.00    +0.026 A 
ATOM      8  C   LIG    1       22.772 -19.809   3.941  0.00  0.00    +0.023 A 
ATOM      9  C   LIG    1       23.993 -19.157   3.743  0.00  0.00    +0.018 A 
BRANCH   7  10
ATOM     10  N   LIG    1       21.474 -21.571   4.973  0.00  0.00    -0.358 N 
ATOM     11  H   LIG    1       21.464 -22.425   4.422  0.00  0.00    +0.142 HD
ATOM     12  H   LIG    1       21.156 -21.727   5.925  0.00  0.00    +0.142 HD
ENDBRANCH   7  10
ENDBRANCH   1   3
BRANCH   1  13
ATOM     13  O   LIG    1       26.223 -17.916   3.212  0.00  0.00    -0.460 OA
BRANCH  13  14
ATOM     14  C   LIG    1       26.848 -16.640   3.427  0.00  0.00    +0.247 C 
BRANCH  14  15
ATOM     15  C   LIG    1       25.818 -15.491   3.455  0.00  0.00    +0.125 C 
BRANCH  15  16
ATOM     16  N   LIG    1       26.327 -14.212   4.005  0.00  0.00    -0.300 NA
BRANCH  16  18
ATOM     17  C   LIG    1       28.457 -12.836   3.770  0.00  0.00    +0.020 C 
ATOM     18  C   LIG    1       27.792 -14.166   4.113  0.00  0.00    +0.081 C 
ENDBRANCH  16  18
BRANCH  16  19
ATOM     19  C   LIG    1       25.746 -13.075   3.267  0.00  0.00    +0.081 C 
ATOM     20  C   LIG    1       24.234 -13.172   3.071  0.00  0.00    +0.020 C 
ENDBRANCH  16  19
ENDBRANCH  15  16
ENDBRANCH  14  15
ENDBRANCH  13  14
ENDBRANCH   1  13
TORSDOF 8
ENDMDL
MODEL 5
REMARK VINA RESULT:      -4.3      2.288      3.194
REMARK  Name = *****
REMARK                            x       y       z     vdW  Elec       q    Type
REMARK                         _______ _______ _______ _____ _____    ______ ____
ROOT
ATOM      1  C   LIG    1       23.620 -15.076   3.982  0.00  0.00    +0.341 C 
ATOM      2  O   LIG    1       22.643 -14.405   3.726  0.00  0.00    -0.245 OA
ENDROOT
BRANCH   1   3
ATOM      3  C   LIG    1       25.029 -14.603   3.939  0.00  0.00    +0.077 A 
ATOM      4  C   LIG    1       25.394 -13.310   4.331  0.00  0.00    +0.057 A 
ATOM      5 CL   LIG    1       24.278 -12.142   4.949  0.00  0.00    -0.083 Cl
ATOM      6  C   LIG    1       26.738 -12.909   4.254  0.00  0.00    +0.043 A 
ATOM      7  C   LIG    1       27.733 -13.792   3.828  0.00  0.00    +0.026 A 
ATOM      8  C   LIG    1       27.355 -15.057   3.380  0.00  0.00    +0.023 A 
ATOM      9  C   LIG    1       26.020 -15.467   3.451  0.00  0.00    +0.018 A 
BRANCH   7  10
ATOM     10  N   LIG    1       29.042 -13.341   3.630  0.00  0.00    -0.358 N 
ATOM     11  H   LIG    1       29.641 -13.997   3.137  0.00  0.00    +0.142 HD
ATOM     12  H   LIG    1       29.106 -12.403   3.247  0.00  0.00    +0.142 HD
ENDBRANCH   7  10
ENDBRANCH   1   3
BRANCH   1  13
ATOM     13  O   LIG    1       23.606 -16.386   4.353  0.00  0.00    -0.460 OA
BRANCH  13  14
ATOM     14  C   LIG    1       22.316 -16.914   4.701  0.00  0.00    +0.247 C 
BRANCH  14  15
ATOM     15  C   LIG    1       22.148 -18.377   4.239  0.00  0.00    +0.125 C 
BRANCH  15  16
ATOM     16  N   LIG    1       23.178 -19.313   4.750  0.00  0.00    -0.300 NA
BRANCH  16  18
ATOM     17  C   LIG    1       23.412 -20.736   6.849  0.00  0.00    +0.020 C 
ATOM     18  C   LIG    1       22.624 -20.386   5.590  0.00  0.00    +0.081 C 
ENDBRANCH  16  18
BRANCH  16  19
ATOM     19  C   LIG    1       24.021 -19.795   3.641  0.00  0.00    +0.081 C 
ATOM     20  C   LIG    1       25.471 -19.318   3.713  0.00  0.00    +0.020 C 
ENDBRANCH  16  19
ENDBRANCH  15  16
ENDBRANCH  14  15
ENDBRANCH  13  14
ENDBRANCH   1  13
TORSDOF 8
ENDMDL
MODEL 6
REMARK VINA RESULT:      -4.2      3.107      6.609
REMARK  Name = *****
REMARK                            x       y       z     vdW  Elec       q    Type
REMARK                         _______ _______ _______ _____ _____    ______ ____
ROOT
ATOM      1  C   LIG    1       22.264 -18.396   4.300  0.00  0.00    +0.341 C 
ATOM      2  O   LIG    1       21.346 -18.940   3.725  0.00  0.00    -0.245 OA
ENDROOT
BRANCH   1   3
ATOM      3  C   LIG    1       23.640 -18.941   4.444  0.00  0.00    +0.077 A 
ATOM      4  C   LIG    1       23.947 -19.958   5.355  0.00  0.00    +0.057 A 
ATOM      5 CL   LIG    1       22.775 -20.726   6.370  0.00  0.00    -0.083 Cl
ATOM      6  C   LIG    1       25.268 -20.425   5.464  0.00  0.00    +0.043 A 
ATOM      7  C   LIG    1       26.282 -19.920   4.648  0.00  0.00    +0.026 A 
ATOM      8  C   LIG    1       25.983 -18.864   3.788  0.00  0.00    +0.023 A 
ATOM      9  C   LIG    1       24.672 -18.390   3.673  0.00  0.00    +0.018 A 
BRANCH   7  10
ATOM     10  N   LIG    1       27.612 -20.297   4.857  0.00  0.00    -0.358 N 
ATOM     11  H   LIG    1       27.907 -20.274   5.829  0.00  0.00    +0.142 HD
ATOM     12  H   LIG    1       27.877 -21.164   4.399  0.00  0.00    +0.142 HD
ENDBRANCH   7  10
ENDBRANCH   1   3
BRANCH   1  13
ATOM     13  O   LIG    1       22.202 -17.186   4.922  0.00  0.00    -0.460 OA
BRANCH  13  14
ATOM     14  C   LIG    1       22.402 -16.045   4.071  0.00  0.00    +0.247 C 
BRANCH  14  15
ATOM     15  C   LIG    1       23.402 -15.039   4.681  0.00  0.00    +0.125 C 
BRANCH  15  16
ATOM     16  N   LIG    1       24.318 -14.403   3.705  0.00  0.00    -0.300 NA
BRANCH  16  18
ATOM     17  C   LIG    1       24.624 -12.466   2.079  0.00  0.00    +0.020 C 
ATOM     18  C   LIG    1       23.857 -13.085   3.245  0.00  0.00    +0.081 C 
ENDBRANCH  16  18
BRANCH  16  19
ATOM     19  C   LIG    1       25.698 -14.407   4.226  0.00  0.00    +0.081 C 
ATOM     20  C   LIG    1       26.681 -15.204   3.371  0.00  0.00    +0.020 C 
ENDBRANCH  16  19
ENDBRANCH  15  16
ENDBRANCH  14  15
ENDBRANCH  13  14
ENDBRANCH   1  13
TORSDOF 8
ENDMDL
MODEL 7
REMARK VINA RESULT:      -4.2      2.098      2.792
REMARK  Name = *****
REMARK                            x       y       z     vdW  Elec       q    Type
REMARK                         _______ _______ _______ _____ _____    ______ ____
ROOT
ATOM      1  C   LIG    1       24.546 -16.224   3.743  0.00  0.00    +0.341 C 
ATOM      2  O   LIG    1       23.407 -16.001   4.095  0.00  0.00    -0.245 OA
ENDROOT
BRANCH   1   3
ATOM      3  C   LIG    1       25.642 -15.222   3.671  0.00  0.00    +0.077 A 
ATOM      4  C   LIG    1       25.416 -13.896   3.284  0.00  0.00    +0.057 A 
ATOM      5 CL   LIG    1       23.854 -13.261   2.896  0.00  0.00    -0.083 Cl
ATOM      6  C   LIG    1       26.491 -12.994   3.216  0.00  0.00    +0.043 A 
ATOM      7  C   LIG    1       27.785 -13.384   3.568  0.00  0.00    +0.026 A 
ATOM      8  C   LIG    1       28.014 -14.721   3.892  0.00  0.00    +0.023 A 
ATOM      9  C   LIG    1       26.952 -15.627   3.962  0.00  0.00    +0.018 A 
BRANCH   7  10
ATOM     10  N   LIG    1       28.864 -12.517   3.370  0.00  0.00    -0.358 N 
ATOM     11  H   LIG    1       29.111 -11.961   4.184  0.00  0.00    +0.142 HD
ATOM     12  H   LIG    1       29.676 -12.953   2.944  0.00  0.00    +0.142 HD
ENDBRANCH   7  10
ENDBRANCH   1   3
BRANCH   1  13
ATOM     13  O   LIG    1       25.029 -17.434   3.347  0.00  0.00    -0.460 OA
BRANCH  13  14
ATOM     14  C   LIG    1       24.264 -18.573   3.775  0.00  0.00    +0.247 C 
BRANCH  14  15
ATOM     15  C   LIG    1       25.111 -19.862   3.793  0.00  0.00    +0.125 C 
BRANCH  15  16
ATOM     16  N   LIG    1       24.847 -20.764   4.940  0.00  0.00    -0.300 NA
BRANCH  16  18
ATOM     17  C   LIG    1       27.184 -19.988   5.592  0.00  0.00    +0.020 C 
ATOM     18  C   LIG    1       25.902 -20.728   5.964  0.00  0.00    +0.081 C 
ENDBRANCH  16  18
BRANCH  16  19
ATOM     19  C   LIG    1       23.491 -20.529   5.470  0.00  0.00    +0.081 C 
ATOM     20  C   LIG    1       23.375 -20.719   6.981  0.00  0.00    +0.020 C 
ENDBRANCH  16  19
ENDBRANCH  15  16
ENDBRANCH  14  15
ENDBRANCH  13  14
ENDBRANCH   1  13
TORSDOF 8
ENDMDL
MODEL 8
REMARK VINA RESULT:      -4.2      2.460      6.645
REMARK  Name = *****
REMARK                            x       y       z     vdW  Elec       q    Type
REMARK                         _______ _______ _______ _____ _____    ______ ____
ROOT
ATOM      1  C   LIG    1       22.284 -18.390   4.413  0.00  0.00    +0.341 C 
ATOM      2  O   LIG    1       21.417 -18.806   3.674  0.00  0.00    -0.245 OA
ENDROOT
BRANCH   1   3
ATOM      3  C   LIG    1       23.438 -19.177   4.922  0.00  0.00    +0.077 A 
ATOM      4  C   LIG    1       24.706 -19.106   4.334  0.00  0.00    +0.057 A 
ATOM      5 CL   LIG    1       25.091 -18.075   2.999  0.00  0.00    -0.083 Cl
ATOM      6  C   LIG    1       25.759 -19.884   4.845  0.00  0.00    +0.043 A 
ATOM      7  C   LIG    1       25.576 -20.705   5.960  0.00  0.00    +0.026 A 
ATOM      8  C   LIG    1       24.296 -20.819   6.501  0.00  0.00    +0.023 A 
ATOM      9  C   LIG    1       23.241 -20.050   6.001  0.00  0.00    +0.018 A 
BRANCH   7  10
ATOM     10  N   LIG    1       26.591 -21.572   6.375  0.00  0.00    -0.358 N 
ATOM     11  H   LIG    1       26.326 -22.553   6.390  0.00  0.00    +0.142 HD
ATOM     12  H   LIG    1       27.482 -21.424   5.909  0.00  0.00    +0.142 HD
ENDBRANCH   7  10
ENDBRANCH   1   3
BRANCH   1  13
ATOM     13  O   LIG    1       22.358 -17.126   4.912  0.00  0.00    -0.460 OA
BRANCH  13  14
ATOM     14  C   LIG    1       22.694 -16.105   3.959  0.00  0.00    +0.247 C 
BRANCH  14  15
ATOM     15  C   LIG    1       23.431 -14.920   4.619  0.00  0.00    +0.125 C 
BRANCH  15  16
ATOM     16  N   LIG    1       24.392 -14.215   3.737  0.00  0.00    -0.300 NA
BRANCH  16  18
ATOM     17  C   LIG    1       24.556 -12.294   2.073  0.00  0.00    +0.020 C 
ATOM     18  C   LIG    1       23.949 -12.868   3.350  0.00  0.00    +0.081 C 
ENDBRANCH  16  18
BRANCH  16  19
ATOM     19  C   LIG    1       25.744 -14.255   4.324  0.00  0.00    +0.081 C 
ATOM     20  C   LIG    1       26.797 -14.881   3.411  0.00  0.00    +0.020 C 
ENDBRANCH  16  19
ENDBRANCH  15  16
ENDBRANCH  14  15
ENDBRANCH  13  14
ENDBRANCH   1  13
TORSDOF 8
ENDMDL
MODEL 9
REMARK VINA RESULT:      -4.0      3.090      6.482
REMARK  Name = *****
REMARK                            x       y       z     vdW  Elec       q    Type
REMARK                         _______ _______ _______ _____ _____    ______ ____
ROOT
ATOM      1  C   LIG    1       22.213 -18.214   4.264  0.00  0.00    +0.341 C 
ATOM      2  O   LIG    1       21.261 -18.727   3.716  0.00  0.00    -0.245 OA
ENDROOT
BRANCH   1   3
ATOM      3  C   LIG    1       23.564 -18.820   4.401  0.00  0.00    +0.077 A 
ATOM      4  C   LIG    1       23.816 -19.888   5.269  0.00  0.00    +0.057 A 
ATOM      5 CL   LIG    1       22.600 -20.651   6.234  0.00  0.00    -0.083 Cl
ATOM      6  C   LIG    1       25.116 -20.413   5.373  0.00  0.00    +0.043 A 
ATOM      7  C   LIG    1       26.162 -19.914   4.594  0.00  0.00    +0.026 A 
ATOM      8  C   LIG    1       25.917 -18.810   3.778  0.00  0.00    +0.023 A 
ATOM      9  C   LIG    1       24.628 -18.279   3.667  0.00  0.00    +0.018 A 
BRANCH   7  10
ATOM     10  N   LIG    1       27.472 -20.354   4.802  0.00  0.00    -0.358 N 
ATOM     11  H   LIG    1       28.129 -19.617   5.044  0.00  0.00    +0.142 HD
ATOM     12  H   LIG    1       27.549 -21.153   5.425  0.00  0.00    +0.142 HD
ENDBRANCH   7  10
ENDBRANCH   1   3
BRANCH   1  13
ATOM     13  O   LIG    1       22.219 -16.987   4.855  0.00  0.00    -0.460 OA
BRANCH  13  14
ATOM     14  C   LIG    1       22.722 -15.913   4.043  0.00  0.00    +0.247 C 
BRANCH  14  15
ATOM     15  C   LIG    1       23.513 -14.882   4.876  0.00  0.00    +0.125 C 
BRANCH  15  16
ATOM     16  N   LIG    1       24.512 -14.099   4.110  0.00  0.00    -0.300 NA
BRANCH  16  18
ATOM     17  C   LIG    1       26.625 -14.214   2.694  0.00  0.00    +0.020 C 
ATOM     18  C   LIG    1       25.653 -14.902   3.648  0.00  0.00    +0.081 C 
ENDBRANCH  16  18
BRANCH  16  19
ATOM     19  C   LIG    1       23.846 -13.334   3.040  0.00  0.00    +0.081 C 
ATOM     20  C   LIG    1       23.874 -11.821   3.250  0.00  0.00    +0.020 C 
ENDBRANCH  16  19
ENDBRANCH  15  16
ENDBRANCH  14  15
ENDBRANCH  13  14
ENDBRANCH   1  13
TORSDOF 8
ENDMDL
