MODEL 1
REMARK VINA RESULT:      -5.7      0.000      0.000
REMARK  Name = *****
REMARK                            x       y       z     vdW  Elec       q    Type
REMARK                         _______ _______ _______ _____ _____    ______ ____
ROOT
ATOM      1  CA  GLN A  1       30.795 -17.183   9.109  0.00  0.00    +0.161 C 
ENDROOT
BRANCH   1   2
ATOM      2  N   GLN A  1       32.244 -17.250   8.787  0.00  0.00    -0.318 NA
ATOM      3  H1  GLN A  1       32.766 -16.697   9.472  0.00  0.00    +0.119 HD
ATOM      4  H2  GLN A  1       32.576 -18.206   8.940  0.00  0.00    +0.119 HD
ENDBRANCH   1   2
BRANCH   1   5
ATOM      5  C   GLN A  1       30.575 -17.258  10.636  0.00  0.00    +0.322 C 
ATOM      6  O   GLN A  1       30.340 -16.298  11.345  0.00  0.00    -0.249 OA
BRANCH   5   7
ATOM      7  OXT GLN A  1       30.701 -18.521  11.128  0.00  0.00    -0.479 OA
ATOM      8  HXT GLN A  1       30.936 -18.592  12.084  0.00  0.00    +0.295 HD
ENDBRANCH   5   7
ENDBRANCH   1   5
BRANCH   1   9
ATOM      9  CB  GLN A  1       30.073 -18.338   8.397  0.00  0.00    +0.039 C 
BRANCH   9  10
ATOM     10  CG  GLN A  1       30.995 -19.322   7.670  0.00  0.00    +0.098 C 
BRANCH  10  14
ATOM     11  NE2 GLN A  1       30.469 -21.607   8.322  0.00  0.00    -0.329 N 
ATOM     12 HE21 GLN A  1       29.633 -21.562   7.754  0.00  0.00    +0.145 HD
ATOM     13 HE22 GLN A  1       30.591 -22.419   8.915  0.00  0.00    +0.145 HD
ATOM     14  CD  GLN A  1       31.297 -20.544   8.501  0.00  0.00    +0.210 C 
ATOM     15  OE1 GLN A  1       32.196 -20.538   9.338  0.00  0.00    -0.276 OA
ENDBRANCH  10  14
ENDBRANCH   9  10
ENDBRANCH   1   9
TORSDOF 6
ENDMDL
MODEL 2
REMARK VINA RESULT:      -5.6      3.269      4.342
REMARK  Name = *****
REMARK                            x       y       z     vdW  Elec       q    Type
REMARK                         _______ _______ _______ _____ _____    ______ ____
ROOT
ATOM      1  CA  GLN A  1       30.528 -20.666   8.363  0.00  0.00    +0.161 C 
ENDROOT
BRANCH   1   2
ATOM      2  N   GLN A  1       31.517 -20.107   7.404  0.00  0.00    -0.318 NA
ATOM      3  H1  GLN A  1       31.041 -19.876   6.528  0.00  0.00    +0.119 HD
ATOM      4  H2  GLN A  1       31.844 -19.201   7.752  0.00  0.00    +0.119 HD
ENDBRANCH   1   2
BRANCH   1   5
ATOM      5  C   GLN A  1       31.156 -21.816   9.181  0.00  0.00    +0.322 C 
ATOM      6  O   GLN A  1       30.778 -22.161  10.284  0.00  0.00    -0.249 OA
BRANCH   5   7
ATOM      7  OXT GLN A  1       32.212 -22.399   8.551  0.00  0.00    -0.479 OA
ATOM      8  HXT GLN A  1       33.096 -22.261   8.968  0.00  0.00    +0.295 HD
ENDBRANCH   5   7
ENDBRANCH   1   5
BRANCH   1   9
ATOM      9  CB  GLN A  1       29.300 -21.160   7.581  0.00  0.00    +0.039 C 
BRANCH   9  10
ATOM     10  CG  GLN A  1       28.252 -20.084   7.283  0.00  0.00    +0.098 C 
BRANCH  10  14
ATOM     11  NE2 GLN A  1       27.507 -20.036   4.967  0.00  0.00    -0.329 N 
ATOM     12 HE21 GLN A  1       26.882 -20.806   5.167  0.00  0.00    +0.145 HD
ATOM     13 HE22 GLN A  1       27.607 -19.751   4.000  0.00  0.00    +0.145 HD
ATOM     14  CD  GLN A  1       28.377 -19.535   5.883  0.00  0.00    +0.210 C 
ATOM     15  OE1 GLN A  1       29.264 -18.739   5.588  0.00  0.00    -0.276 OA
ENDBRANCH  10  14
ENDBRANCH   9  10
ENDBRANCH   1   9
TORSDOF 6
ENDMDL
MODEL 3
REMARK VINA RESULT:      -5.4      2.386      2.612
REMARK  Name = *****
REMARK                            x       y       z     vdW  Elec       q    Type
REMARK                         _______ _______ _______ _____ _____    ______ ____
ROOT
ATOM      1  CA  GLN A  1       31.753 -18.466   8.513  0.00  0.00    +0.161 C 
ENDROOT
BRANCH   1   2
ATOM      2  N   GLN A  1       31.919 -19.807   9.135  0.00  0.00    -0.318 NA
ATOM      3  H1  GLN A  1       31.631 -19.760  10.115  0.00  0.00    +0.119 HD
ATOM      4  H2  GLN A  1       31.248 -20.455   8.713  0.00  0.00    +0.119 HD
ENDBRANCH   1   2
BRANCH   1   5
ATOM      5  C   GLN A  1       32.315 -17.366   9.441  0.00  0.00    +0.322 C 
ATOM      6  O   GLN A  1       32.504 -17.504  10.635  0.00  0.00    -0.249 OA
BRANCH   5   7
ATOM      7  OXT GLN A  1       32.555 -16.196   8.789  0.00  0.00    -0.479 OA
ATOM      8  HXT GLN A  1       33.283 -16.213   8.122  0.00  0.00    +0.295 HD
ENDBRANCH   5   7
ENDBRANCH   1   5
BRANCH   1   9
ATOM      9  CB  GLN A  1       30.261 -18.230   8.229  0.00  0.00    +0.039 C 
BRANCH   9  10
ATOM     10  CG  GLN A  1       29.768 -18.778   6.887  0.00  0.00    +0.098 C 
BRANCH  10  14
ATOM     11  NE2 GLN A  1       28.307 -20.490   5.960  0.00  0.00    -0.329 N 
ATOM     12 HE21 GLN A  1       28.178 -19.915   5.138  0.00  0.00    +0.145 HD
ATOM     13 HE22 GLN A  1       27.735 -21.321   6.047  0.00  0.00    +0.145 HD
ATOM     14  CD  GLN A  1       29.026 -20.083   7.039  0.00  0.00    +0.210 C 
ATOM     15  OE1 GLN A  1       29.022 -20.692   8.106  0.00  0.00    -0.276 OA
ENDBRANCH  10  14
ENDBRANCH   9  10
ENDBRANCH   1   9
TORSDOF 6
ENDMDL
MODEL 4
REMARK VINA RESULT:      -5.4      1.690      3.980
REMARK  Name = *****
REMARK                            x       y       z     vdW  Elec       q    Type
REMARK                         _______ _______ _______ _____ _____    ______ ____
ROOT
ATOM      1  CA  GLN A  1       30.317 -20.998   8.092  0.00  0.00    +0.161 C 
ENDROOT
BRANCH   1   2
ATOM      2  N   GLN A  1       28.867 -20.898   8.404  0.00  0.00    -0.318 NA
ATOM      3  H1  GLN A  1       28.360 -21.614   7.877  0.00  0.00    +0.119 HD
ATOM      4  H2  GLN A  1       28.717 -21.162   9.382  0.00  0.00    +0.119 HD
ENDBRANCH   1   2
BRANCH   1   5
ATOM      5  C   GLN A  1       31.075 -21.681   9.252  0.00  0.00    +0.322 C 
ATOM      6  O   GLN A  1       30.592 -22.520   9.989  0.00  0.00    -0.249 OA
BRANCH   5   7
ATOM      7  OXT GLN A  1       32.349 -21.226   9.392  0.00  0.00    -0.479 OA
ATOM      8  HXT GLN A  1       32.580 -20.417   8.875  0.00  0.00    +0.295 HD
ENDBRANCH   5   7
ENDBRANCH   1   5
BRANCH   1   9
ATOM      9  CB  GLN A  1       30.870 -19.587   7.836  0.00  0.00    +0.039 C 
BRANCH   9  10
ATOM     10  CG  GLN A  1       30.177 -18.472   8.624  0.00  0.00    +0.098 C 
BRANCH  10  14
ATOM     11  NE2 GLN A  1       30.271 -17.344  10.778  0.00  0.00    -0.329 N 
ATOM     12 HE21 GLN A  1       29.339 -16.985  10.616  0.00  0.00    +0.145 HD
ATOM     13 HE22 GLN A  1       30.775 -16.994  11.584  0.00  0.00    +0.145 HD
ATOM     14  CD  GLN A  1       30.951 -18.077   9.857  0.00  0.00    +0.210 C 
ATOM     15  OE1 GLN A  1       32.144 -18.344   9.973  0.00  0.00    -0.276 OA
ENDBRANCH  10  14
ENDBRANCH   9  10
ENDBRANCH   1   9
TORSDOF 6
ENDMDL
MODEL 5
REMARK VINA RESULT:      -5.3      7.646      8.961
REMARK  Name = *****
REMARK                            x       y       z     vdW  Elec       q    Type
REMARK                         _______ _______ _______ _____ _____    ______ ____
ROOT
ATOM      1  CA  GLN A  1       25.202 -24.276   5.809  0.00  0.00    +0.161 C 
ENDROOT
BRANCH   1   2
ATOM      2  N   GLN A  1       24.812 -23.063   5.043  0.00  0.00    -0.318 NA
ATOM      3  H1  GLN A  1       25.101 -23.174   4.068  0.00  0.00    +0.119 HD
ATOM      4  H2  GLN A  1       23.790 -23.015   4.992  0.00  0.00    +0.119 HD
ENDBRANCH   1   2
BRANCH   1   5
ATOM      5  C   GLN A  1       23.950 -25.084   6.218  0.00  0.00    +0.322 C 
ATOM      6  O   GLN A  1       23.875 -26.298   6.184  0.00  0.00    -0.249 OA
BRANCH   5   7
ATOM      7  OXT GLN A  1       22.911 -24.294   6.600  0.00  0.00    -0.479 OA
ATOM      8  HXT GLN A  1       23.145 -23.378   6.885  0.00  0.00    +0.295 HD
ENDBRANCH   5   7
ENDBRANCH   1   5
BRANCH   1   9
ATOM      9  CB  GLN A  1       26.002 -23.846   7.049  0.00  0.00    +0.039 C 
BRANCH   9  10
ATOM     10  CG  GLN A  1       26.232 -22.337   7.175  0.00  0.00    +0.098 C 
BRANCH  10  14
ATOM     11  NE2 GLN A  1       24.035 -21.614   7.930  0.00  0.00    -0.329 N 
ATOM     12 HE21 GLN A  1       23.660 -21.843   7.019  0.00  0.00    +0.145 HD
ATOM     13 HE22 GLN A  1       23.426 -21.132   8.580  0.00  0.00    +0.145 HD
ATOM     14  CD  GLN A  1       25.357 -21.711   8.231  0.00  0.00    +0.210 C 
ATOM     15  OE1 GLN A  1       25.836 -21.252   9.265  0.00  0.00    -0.276 OA
ENDBRANCH  10  14
ENDBRANCH   9  10
ENDBRANCH   1   9
TORSDOF 6
ENDMDL
MODEL 6
REMARK VINA RESULT:      -5.2      8.658      9.741
REMARK  Name = *****
REMARK                            x       y       z     vdW  Elec       q    Type
REMARK                         _______ _______ _______ _____ _____    ______ ____
ROOT
ATOM      1  CA  GLN A  1       24.457 -23.102   6.720  0.00  0.00    +0.161 C 
ENDROOT
BRANCH   1   2
ATOM      2  N   GLN A  1       25.116 -22.851   5.411  0.00  0.00    -0.318 NA
ATOM      3  H1  GLN A  1       24.439 -22.427   4.771  0.00  0.00    +0.119 HD
ATOM      4  H2  GLN A  1       25.828 -22.125   5.530  0.00  0.00    +0.119 HD
ENDBRANCH   1   2
BRANCH   1   5
ATOM      5  C   GLN A  1       23.429 -24.249   6.599  0.00  0.00    +0.322 C 
ATOM      6  O   GLN A  1       23.721 -25.417   6.423  0.00  0.00    -0.249 OA
BRANCH   5   7
ATOM      7  OXT GLN A  1       22.142 -23.817   6.679  0.00  0.00    -0.479 OA
ATOM      8  HXT GLN A  1       22.014 -22.838   6.705  0.00  0.00    +0.295 HD
ENDBRANCH   5   7
ENDBRANCH   1   5
BRANCH   1   9
ATOM      9  CB  GLN A  1       23.775 -21.807   7.191  0.00  0.00    +0.039 C 
BRANCH   9  10
ATOM     10  CG  GLN A  1       23.970 -20.604   6.263  0.00  0.00    +0.098 C 
BRANCH  10  14
ATOM     11  NE2 GLN A  1       22.049 -21.315   4.949  0.00  0.00    -0.329 N 
ATOM     12 HE21 GLN A  1       22.411 -22.259   4.954  0.00  0.00    +0.145 HD
ATOM     13 HE22 GLN A  1       21.245 -21.123   4.363  0.00  0.00    +0.145 HD
ATOM     14  CD  GLN A  1       22.716 -20.264   5.495  0.00  0.00    +0.210 C 
ATOM     15  OE1 GLN A  1       22.374 -19.098   5.320  0.00  0.00    -0.276 OA
ENDBRANCH  10  14
ENDBRANCH   9  10
ENDBRANCH   1   9
TORSDOF 6
ENDMDL
MODEL 7
REMARK VINA RESULT:      -5.2      2.069      2.158
REMARK  Name = *****
REMARK                            x       y       z     vdW  Elec       q    Type
REMARK                         _______ _______ _______ _____ _____    ______ ____
ROOT
ATOM      1  CA  GLN A  1       31.021 -17.532  10.059  0.00  0.00    +0.161 C 
ENDROOT
BRANCH   1   2
ATOM      2  N   GLN A  1       30.171 -16.975  11.144  0.00  0.00    -0.318 NA
ATOM      3  H1  GLN A  1       30.459 -16.011  11.333  0.00  0.00    +0.119 HD
ATOM      4  H2  GLN A  1       29.211 -16.881  10.800  0.00  0.00    +0.119 HD
ENDBRANCH   1   2
BRANCH   1   5
ATOM      5  C   GLN A  1       32.197 -16.580   9.747  0.00  0.00    +0.322 C 
ATOM      6  O   GLN A  1       32.711 -15.834  10.559  0.00  0.00    -0.249 OA
BRANCH   5   7
ATOM      7  OXT GLN A  1       32.592 -16.634   8.446  0.00  0.00    -0.479 OA
ATOM      8  HXT GLN A  1       31.870 -16.612   7.773  0.00  0.00    +0.295 HD
ENDBRANCH   5   7
ENDBRANCH   1   5
BRANCH   1   9
ATOM      9  CB  GLN A  1       30.153 -17.752   8.809  0.00  0.00    +0.039 C 
BRANCH   9  10
ATOM     10  CG  GLN A  1       29.897 -19.220   8.455  0.00  0.00    +0.098 C 
BRANCH  10  14
ATOM     11  NE2 GLN A  1       31.427 -21.112   8.463  0.00  0.00    -0.329 N 
ATOM     12 HE21 GLN A  1       30.928 -21.496   9.254  0.00  0.00    +0.145 HD
ATOM     13 HE22 GLN A  1       32.288 -21.568   8.185  0.00  0.00    +0.145 HD
ATOM     14  CD  GLN A  1       31.130 -19.903   7.918  0.00  0.00    +0.210 C 
ATOM     15  OE1 GLN A  1       31.853 -19.353   7.091  0.00  0.00    -0.276 OA
ENDBRANCH  10  14
ENDBRANCH   9  10
ENDBRANCH   1   9
TORSDOF 6
ENDMDL
MODEL 8
REMARK VINA RESULT:      -5.0      2.588      3.256
REMARK  Name = *****
REMARK                            x       y       z     vdW  Elec       q    Type
REMARK                         _______ _______ _______ _____ _____    ______ ____
ROOT
ATOM      1  CA  GLN A  1       31.408 -20.153   8.321  0.00  0.00    +0.161 C 
ENDROOT
BRANCH   1   2
ATOM      2  N   GLN A  1       32.064 -21.139   9.221  0.00  0.00    -0.318 NA
ATOM      3  H1  GLN A  1       32.952 -21.433   8.806  0.00  0.00    +0.119 HD
ATOM      4  H2  GLN A  1       32.342 -20.667  10.086  0.00  0.00    +0.119 HD
ENDBRANCH   1   2
BRANCH   1   5
ATOM      5  C   GLN A  1       31.388 -18.753   8.974  0.00  0.00    +0.322 C 
ATOM      6  O   GLN A  1       31.743 -17.731   8.418  0.00  0.00    -0.249 OA
BRANCH   5   7
ATOM      7  OXT GLN A  1       30.954 -18.776  10.263  0.00  0.00    -0.479 OA
ATOM      8  HXT GLN A  1       30.343 -19.514  10.501  0.00  0.00    +0.295 HD
ENDBRANCH   5   7
ENDBRANCH   1   5
BRANCH   1   9
ATOM      9  CB  GLN A  1       29.980 -20.632   8.013  0.00  0.00    +0.039 C 
BRANCH   9  10
ATOM     10  CG  GLN A  1       29.004 -19.524   7.609  0.00  0.00    +0.098 C 
BRANCH  10  14
ATOM     11  NE2 GLN A  1       28.250 -19.972   5.339  0.00  0.00    -0.329 N 
ATOM     12 HE21 GLN A  1       27.717 -20.759   5.685  0.00  0.00    +0.145 HD
ATOM     13 HE22 GLN A  1       28.313 -19.853   4.335  0.00  0.00    +0.145 HD
ATOM     14  CD  GLN A  1       29.060 -19.222   6.131  0.00  0.00    +0.210 C 
ATOM     15  OE1 GLN A  1       29.850 -18.397   5.680  0.00  0.00    -0.276 OA
ENDBRANCH  10  14
ENDBRANCH   9  10
ENDBRANCH   1   9
TORSDOF 6
ENDMDL
MODEL 9
REMARK VINA RESULT:      -5.0      7.051      7.982
REMARK  Name = *****
REMARK                            x       y       z     vdW  Elec       q    Type
REMARK                         _______ _______ _______ _____ _____    ______ ____
ROOT
ATOM      1  CA  GLN A  1       24.601 -23.383   6.340  0.00  0.00    +0.161 C 
ENDROOT
BRANCH   1   2
ATOM      2  N   GLN A  1       24.813 -22.731   5.020  0.00  0.00    -0.318 NA
ATOM      3  H1  GLN A  1       24.193 -21.921   4.943  0.00  0.00    +0.119 HD
ATOM      4  H2  GLN A  1       25.752 -22.324   4.997  0.00  0.00    +0.119 HD
ENDBRANCH   1   2
BRANCH   1   5
ATOM      5  C   GLN A  1       23.261 -22.928   6.960  0.00  0.00    +0.322 C 
ATOM      6  O   GLN A  1       23.126 -21.940   7.657  0.00  0.00    -0.249 OA
BRANCH   5   7
ATOM      7  OXT GLN A  1       22.231 -23.770   6.672  0.00  0.00    -0.479 OA
ATOM      8  HXT GLN A  1       21.809 -23.651   5.787  0.00  0.00    +0.295 HD
ENDBRANCH   5   7
ENDBRANCH   1   5
BRANCH   1   9
ATOM      9  CB  GLN A  1       25.777 -23.029   7.264  0.00  0.00    +0.039 C 
BRANCH   9  10
ATOM     10  CG  GLN A  1       26.491 -21.718   6.924  0.00  0.00    +0.098 C 
BRANCH  10  14
ATOM     11  NE2 GLN A  1       25.540 -20.703   8.921  0.00  0.00    -0.329 N 
ATOM     12 HE21 GLN A  1       24.642 -21.104   8.681  0.00  0.00    +0.145 HD
ATOM     13 HE22 GLN A  1       25.571 -20.048   9.693  0.00  0.00    +0.145 HD
ATOM     14  CD  GLN A  1       26.635 -20.816   8.124  0.00  0.00    +0.210 C 
ATOM     15  OE1 GLN A  1       27.663 -20.171   8.315  0.00  0.00    -0.276 OA
ENDBRANCH  10  14
ENDBRANCH   9  10
ENDBRANCH   1   9
TORSDOF 6
ENDMDL
