MODEL 1
REMARK VINA RESULT:      -9.2      0.000      0.000
REMARK  Name = *****
REMARK                            x       y       z     vdW  Elec       q    Type
REMARK                         _______ _______ _______ _____ _____    ______ ____
ROOT
ATOM      1  C   LIG    1       28.507 -20.342   7.177  0.00  0.00    +0.042 A 
ATOM      2  C   LIG    1       27.693 -19.970   6.109  0.00  0.00    +0.063 A 
ATOM      3  C   LIG    1       26.521 -20.682   5.819  0.00  0.00    +0.146 A 
ATOM      4  F   LIG    1       25.815 -20.238   4.766  0.00  0.00    -0.203 F 
ATOM      5  C   LIG    1       26.103 -21.810   6.557  0.00  0.00    +0.066 A 
ATOM      6  C   LIG    1       26.934 -22.158   7.630  0.00  0.00    +0.028 A 
ATOM      7  C   LIG    1       28.109 -21.453   7.922  0.00  0.00    +0.026 A 
ENDROOT
BRANCH   1  12
ATOM      8  C   LIG    1       31.525 -18.789   8.650  0.00  0.00    +0.213 C 
ATOM      9  O   LIG    1       31.562 -18.398   7.269  0.00  0.00    -0.444 OA
ATOM     10  C   LIG    1       30.405 -18.796   6.664  0.00  0.00    +0.408 C 
ATOM     11  O   LIG    1       30.143 -18.446   5.519  0.00  0.00    -0.226 OA
ATOM     12  N   LIG    1       29.671 -19.602   7.518  0.00  0.00    -0.234 N 
ATOM     13  C   LIG    1       30.424 -19.831   8.717  0.00  0.00    +0.163 C 
BRANCH   8  14
ATOM     14  C   LIG    1       31.225 -17.558   9.514  0.00  0.00    +0.150 C 
BRANCH  14  17
ATOM     15  C   LIG    1       33.025 -16.524  12.699  0.00  0.00    +0.109 C 
ATOM     16  C   LIG    1       31.877 -16.669  11.734  0.00  0.00    +0.210 C 
ATOM     17  N   LIG    1       32.188 -17.364  10.590  0.00  0.00    -0.312 N 
ATOM     18  H   LIG    1       33.091 -17.817  10.513  0.00  0.00    +0.149 HD
ATOM     19  O   LIG    1       30.776 -16.167  11.937  0.00  0.00    -0.276 OA
ENDBRANCH  14  17
ENDBRANCH   8  14
ENDBRANCH   1  12
BRANCH   5  20
ATOM     20  N   LIG    1       24.921 -22.551   6.310  0.00  0.00    -0.323 N 
ATOM     21  C   LIG    1       23.687 -21.923   6.855  0.00  0.00    +0.133 C 
ATOM     22  C   LIG    1       22.437 -22.742   6.500  0.00  0.00    +0.178 C 
ATOM     23  O   LIG    1       22.558 -24.109   6.913  0.00  0.00    -0.377 OA
ATOM     24  C   LIG    1       23.673 -24.710   6.242  0.00  0.00    +0.178 C 
ATOM     25  C   LIG    1       24.986 -24.004   6.597  0.00  0.00    +0.133 C 
ENDBRANCH   5  20
TORSDOF 4
ENDMDL
MODEL 2
REMARK VINA RESULT:      -8.6      1.457      1.930
REMARK  Name = *****
REMARK                            x       y       z     vdW  Elec       q    Type
REMARK                         _______ _______ _______ _____ _____    ______ ____
ROOT
ATOM      1  C   LIG    1       28.496 -19.703   7.528  0.00  0.00    +0.042 A 
ATOM      2  C   LIG    1       27.669 -20.005   8.608  0.00  0.00    +0.063 A 
ATOM      3  C   LIG    1       26.364 -20.475   8.402  0.00  0.00    +0.146 A 
ATOM      4  F   LIG    1       25.655 -20.731   9.515  0.00  0.00    -0.203 F 
ATOM      5  C   LIG    1       25.803 -20.653   7.119  0.00  0.00    +0.066 A 
ATOM      6  C   LIG    1       26.657 -20.350   6.051  0.00  0.00    +0.028 A 
ATOM      7  C   LIG    1       27.961 -19.876   6.251  0.00  0.00    +0.026 A 
ENDROOT
BRANCH   1  12
ATOM      8  C   LIG    1       31.875 -18.739   8.687  0.00  0.00    +0.213 C 
ATOM      9  O   LIG    1       32.002 -18.833   7.260  0.00  0.00    -0.444 OA
ATOM     10  C   LIG    1       30.766 -19.038   6.717  0.00  0.00    +0.408 C 
ATOM     11  O   LIG    1       30.601 -19.004   5.503  0.00  0.00    -0.226 OA
ATOM     12  N   LIG    1       29.838 -19.275   7.716  0.00  0.00    -0.234 N 
ATOM     13  C   LIG    1       30.508 -19.328   8.983  0.00  0.00    +0.163 C 
BRANCH   8  14
ATOM     14  C   LIG    1       31.986 -17.268   9.106  0.00  0.00    +0.150 C 
BRANCH  14  17
ATOM     15  C   LIG    1       32.084 -16.477  12.824  0.00  0.00    +0.109 C 
ATOM     16  C   LIG    1       31.483 -16.646  11.452  0.00  0.00    +0.210 C 
ATOM     17  N   LIG    1       32.367 -17.097  10.502  0.00  0.00    -0.312 N 
ATOM     18  H   LIG    1       33.296 -17.386  10.785  0.00  0.00    +0.149 HD
ATOM     19  O   LIG    1       30.316 -16.359  11.202  0.00  0.00    -0.276 OA
ENDBRANCH  14  17
ENDBRANCH   8  14
ENDBRANCH   1  12
BRANCH   5  20
ATOM     20  N   LIG    1       24.497 -21.138   6.863  0.00  0.00    -0.323 N 
ATOM     21  C   LIG    1       24.346 -22.604   7.061  0.00  0.00    +0.133 C 
ATOM     22  C   LIG    1       22.895 -23.055   6.829  0.00  0.00    +0.178 C 
ATOM     23  O   LIG    1       22.407 -22.644   5.546  0.00  0.00    -0.377 OA
ATOM     24  C   LIG    1       22.433 -21.213   5.465  0.00  0.00    +0.178 C 
ATOM     25  C   LIG    1       23.859 -20.670   5.609  0.00  0.00    +0.133 C 
ENDBRANCH   5  20
TORSDOF 4
ENDMDL
MODEL 3
REMARK VINA RESULT:      -8.3      2.421      8.705
REMARK  Name = *****
REMARK                            x       y       z     vdW  Elec       q    Type
REMARK                         _______ _______ _______ _____ _____    ______ ____
ROOT
ATOM      1  C   LIG    1       26.898 -20.997   6.859  0.00  0.00    +0.042 A 
ATOM      2  C   LIG    1       27.680 -20.314   5.930  0.00  0.00    +0.063 A 
ATOM      3  C   LIG    1       28.708 -19.458   6.349  0.00  0.00    +0.146 A 
ATOM      4  F   LIG    1       29.395 -18.849   5.368  0.00  0.00    -0.203 F 
ATOM      5  C   LIG    1       29.005 -19.219   7.708  0.00  0.00    +0.066 A 
ATOM      6  C   LIG    1       28.210 -19.923   8.621  0.00  0.00    +0.028 A 
ATOM      7  C   LIG    1       27.179 -20.777   8.209  0.00  0.00    +0.026 A 
ENDROOT
BRANCH   1  12
ATOM      8  C   LIG    1       24.612 -23.828   6.189  0.00  0.00    +0.213 C 
ATOM      9  O   LIG    1       23.881 -22.671   5.755  0.00  0.00    -0.444 OA
ATOM     10  C   LIG    1       24.699 -21.579   5.819  0.00  0.00    +0.408 C 
ATOM     11  O   LIG    1       24.343 -20.501   5.360  0.00  0.00    -0.226 OA
ATOM     12  N   LIG    1       25.886 -21.907   6.453  0.00  0.00    -0.234 N 
ATOM     13  C   LIG    1       25.814 -23.262   6.922  0.00  0.00    +0.163 C 
BRANCH   8  14
ATOM     14  C   LIG    1       25.007 -24.662   4.965  0.00  0.00    +0.150 C 
BRANCH  14  17
ATOM     15  C   LIG    1       25.290 -28.433   5.362  0.00  0.00    +0.109 C 
ATOM     16  C   LIG    1       25.761 -27.005   5.262  0.00  0.00    +0.210 C 
ATOM     17  N   LIG    1       24.747 -26.086   5.133  0.00  0.00    -0.312 N 
ATOM     18  H   LIG    1       23.785 -26.391   5.224  0.00  0.00    +0.149 HD
ATOM     19  O   LIG    1       26.950 -26.700   5.248  0.00  0.00    -0.276 OA
ENDBRANCH  14  17
ENDBRANCH   8  14
ENDBRANCH   1  12
BRANCH   5  20
ATOM     20  N   LIG    1       30.042 -18.376   8.177  0.00  0.00    -0.323 N 
ATOM     21  C   LIG    1       31.410 -18.914   7.950  0.00  0.00    +0.133 C 
ATOM     22  C   LIG    1       32.487 -17.926   8.424  0.00  0.00    +0.178 C 
ATOM     23  O   LIG    1       32.293 -17.538   9.790  0.00  0.00    -0.377 OA
ATOM     24  C   LIG    1       31.023 -16.889   9.924  0.00  0.00    +0.178 C 
ATOM     25  C   LIG    1       29.872 -17.827   9.545  0.00  0.00    +0.133 C 
ENDBRANCH   5  20
TORSDOF 4
ENDMDL
MODEL 4
REMARK VINA RESULT:      -8.0      4.353      7.555
REMARK  Name = *****
REMARK                            x       y       z     vdW  Elec       q    Type
REMARK                         _______ _______ _______ _____ _____    ______ ____
ROOT
ATOM      1  C   LIG    1       24.671 -25.259   6.341  0.00  0.00    +0.042 A 
ATOM      2  C   LIG    1       25.615 -25.759   7.234  0.00  0.00    +0.063 A 
ATOM      3  C   LIG    1       25.914 -27.129   7.268  0.00  0.00    +0.146 A 
ATOM      4  F   LIG    1       26.837 -27.501   8.171  0.00  0.00    -0.203 F 
ATOM      5  C   LIG    1       25.281 -28.076   6.434  0.00  0.00    +0.066 A 
ATOM      6  C   LIG    1       24.343 -27.546   5.540  0.00  0.00    +0.028 A 
ATOM      7  C   LIG    1       24.037 -26.179   5.504  0.00  0.00    +0.026 A 
ENDROOT
BRANCH   1  12
ATOM      8  C   LIG    1       24.579 -21.594   5.835  0.00  0.00    +0.213 C 
ATOM      9  O   LIG    1       23.214 -21.950   6.103  0.00  0.00    -0.444 OA
ATOM     10  C   LIG    1       23.160 -23.268   6.455  0.00  0.00    +0.408 C 
ATOM     11  O   LIG    1       22.120 -23.764   6.872  0.00  0.00    -0.226 OA
ATOM     12  N   LIG    1       24.392 -23.868   6.256  0.00  0.00    -0.234 N 
ATOM     13  C   LIG    1       25.285 -22.924   5.648  0.00  0.00    +0.163 C 
BRANCH   8  14
ATOM     14  C   LIG    1       25.132 -20.795   7.021  0.00  0.00    +0.150 C 
BRANCH  14  17
ATOM     15  C   LIG    1       28.867 -20.202   7.417  0.00  0.00    +0.109 C 
ATOM     16  C   LIG    1       27.505 -20.760   7.738  0.00  0.00    +0.210 C 
ATOM     17  N   LIG    1       26.523 -20.399   6.846  0.00  0.00    -0.312 N 
ATOM     18  H   LIG    1       26.778 -19.900   6.002  0.00  0.00    +0.149 HD
ATOM     19  O   LIG    1       27.287 -21.438   8.738  0.00  0.00    -0.276 OA
ENDBRANCH  14  17
ENDBRANCH   8  14
ENDBRANCH   1  12
BRANCH   5  20
ATOM     20  N   LIG    1       25.561 -29.464   6.424  0.00  0.00    -0.323 N 
ATOM     21  C   LIG    1       25.249 -30.136   5.133  0.00  0.00    +0.133 C 
ATOM     22  C   LIG    1       25.633 -31.623   5.168  0.00  0.00    +0.178 C 
ATOM     23  O   LIG    1       25.031 -32.305   6.275  0.00  0.00    -0.377 OA
ATOM     24  C   LIG    1       25.485 -31.714   7.499  0.00  0.00    +0.178 C 
ATOM     25  C   LIG    1       25.079 -30.239   7.593  0.00  0.00    +0.133 C 
ENDBRANCH   5  20
TORSDOF 4
ENDMDL
MODEL 5
REMARK VINA RESULT:      -8.0      1.537      1.947
REMARK  Name = *****
REMARK                            x       y       z     vdW  Elec       q    Type
REMARK                         _______ _______ _______ _____ _____    ______ ____
ROOT
ATOM      1  C   LIG    1       28.000 -20.054   7.026  0.00  0.00    +0.042 A 
ATOM      2  C   LIG    1       27.536 -20.070   5.713  0.00  0.00    +0.063 A 
ATOM      3  C   LIG    1       26.187 -20.333   5.432  0.00  0.00    +0.146 A 
ATOM      4  F   LIG    1       25.851 -20.328   4.131  0.00  0.00    -0.203 F 
ATOM      5  C   LIG    1       25.233 -20.613   6.434  0.00  0.00    +0.066 A 
ATOM      6  C   LIG    1       25.723 -20.582   7.745  0.00  0.00    +0.028 A 
ATOM      7  C   LIG    1       27.070 -20.323   8.032  0.00  0.00    +0.026 A 
ENDROOT
BRANCH   1  12
ATOM      8  C   LIG    1       31.488 -19.793   8.234  0.00  0.00    +0.213 C 
ATOM      9  O   LIG    1       31.438 -18.914   7.100  0.00  0.00    -0.444 OA
ATOM     10  C   LIG    1       30.145 -18.820   6.668  0.00  0.00    +0.408 C 
ATOM     11  O   LIG    1       29.831 -18.011   5.803  0.00  0.00    -0.226 OA
ATOM     12  N   LIG    1       29.351 -19.738   7.333  0.00  0.00    -0.234 N 
ATOM     13  C   LIG    1       30.174 -20.551   8.181  0.00  0.00    +0.163 C 
BRANCH   8  14
ATOM     14  C   LIG    1       31.637 -18.959   9.512  0.00  0.00    +0.150 C 
BRANCH  14  17
ATOM     15  C   LIG    1       33.025 -15.435   9.841  0.00  0.00    +0.109 C 
ATOM     16  C   LIG    1       32.501 -16.773  10.297  0.00  0.00    +0.210 C 
ATOM     17  N   LIG    1       32.207 -17.640   9.272  0.00  0.00    -0.312 N 
ATOM     18  H   LIG    1       32.455 -17.390   8.322  0.00  0.00    +0.149 HD
ATOM     19  O   LIG    1       32.310 -17.040  11.479  0.00  0.00    -0.276 OA
ENDBRANCH  14  17
ENDBRANCH   8  14
ENDBRANCH   1  12
BRANCH   5  20
ATOM     20  N   LIG    1       23.860 -20.870   6.199  0.00  0.00    -0.323 N 
ATOM     21  C   LIG    1       23.500 -22.313   6.224  0.00  0.00    +0.133 C 
ATOM     22  C   LIG    1       21.990 -22.518   6.026  0.00  0.00    +0.178 C 
ATOM     23  O   LIG    1       21.516 -21.877   4.835  0.00  0.00    -0.377 OA
ATOM     24  C   LIG    1       21.750 -20.467   4.929  0.00  0.00    +0.178 C 
ATOM     25  C   LIG    1       23.247 -20.156   5.053  0.00  0.00    +0.133 C 
ENDBRANCH   5  20
TORSDOF 4
ENDMDL
MODEL 6
REMARK VINA RESULT:      -7.7      4.377      7.547
REMARK  Name = *****
REMARK                            x       y       z     vdW  Elec       q    Type
REMARK                         _______ _______ _______ _____ _____    ______ ____
ROOT
ATOM      1  C   LIG    1       24.710 -25.242   6.232  0.00  0.00    +0.042 A 
ATOM      2  C   LIG    1       24.005 -26.208   5.517  0.00  0.00    +0.063 A 
ATOM      3  C   LIG    1       24.314 -27.569   5.654  0.00  0.00    +0.146 A 
ATOM      4  F   LIG    1       23.573 -28.411   4.914  0.00  0.00    -0.203 F 
ATOM      5  C   LIG    1       25.348 -28.043   6.490  0.00  0.00    +0.066 A 
ATOM      6  C   LIG    1       26.035 -27.053   7.203  0.00  0.00    +0.028 A 
ATOM      7  C   LIG    1       25.733 -25.691   7.068  0.00  0.00    +0.026 A 
ENDROOT
BRANCH   1  12
ATOM      8  C   LIG    1       24.449 -21.593   5.675  0.00  0.00    +0.213 C 
ATOM      9  O   LIG    1       23.123 -21.990   6.056  0.00  0.00    -0.444 OA
ATOM     10  C   LIG    1       23.143 -23.302   6.433  0.00  0.00    +0.408 C 
ATOM     11  O   LIG    1       22.158 -23.825   6.940  0.00  0.00    -0.226 OA
ATOM     12  N   LIG    1       24.376 -23.863   6.146  0.00  0.00    -0.234 N 
ATOM     13  C   LIG    1       25.185 -22.902   5.454  0.00  0.00    +0.163 C 
BRANCH   8  14
ATOM     14  C   LIG    1       25.066 -20.753   6.799  0.00  0.00    +0.150 C 
BRANCH  14  17
ATOM     15  C   LIG    1       28.768 -20.063   7.324  0.00  0.00    +0.109 C 
ATOM     16  C   LIG    1       27.334 -20.328   7.704  0.00  0.00    +0.210 C 
ATOM     17  N   LIG    1       26.497 -20.537   6.634  0.00  0.00    -0.312 N 
ATOM     18  H   LIG    1       26.890 -20.613   5.703  0.00  0.00    +0.149 HD
ATOM     19  O   LIG    1       26.944 -20.310   8.868  0.00  0.00    -0.276 OA
ENDBRANCH  14  17
ENDBRANCH   8  14
ENDBRANCH   1  12
BRANCH   5  20
ATOM     20  N   LIG    1       25.686 -29.407   6.670  0.00  0.00    -0.323 N 
ATOM     21  C   LIG    1       25.581 -30.226   5.433  0.00  0.00    +0.133 C 
ATOM     22  C   LIG    1       26.020 -31.677   5.682  0.00  0.00    +0.178 C 
ATOM     23  O   LIG    1       25.303 -32.273   6.771  0.00  0.00    -0.377 OA
ATOM     24  C   LIG    1       25.560 -31.532   7.970  0.00  0.00    +0.178 C 
ATOM     25  C   LIG    1       25.082 -30.081   7.845  0.00  0.00    +0.133 C 
ENDBRANCH   5  20
TORSDOF 4
ENDMDL
MODEL 7
REMARK VINA RESULT:      -7.7      3.735      6.433
REMARK  Name = *****
REMARK                            x       y       z     vdW  Elec       q    Type
REMARK                         _______ _______ _______ _____ _____    ______ ____
ROOT
ATOM      1  C   LIG    1       25.151 -24.065   6.439  0.00  0.00    +0.042 A 
ATOM      2  C   LIG    1       26.255 -24.907   6.556  0.00  0.00    +0.063 A 
ATOM      3  C   LIG    1       26.102 -26.300   6.507  0.00  0.00    +0.146 A 
ATOM      4  F   LIG    1       27.233 -27.014   6.635  0.00  0.00    -0.203 F 
ATOM      5  C   LIG    1       24.849 -26.932   6.360  0.00  0.00    +0.066 A 
ATOM      6  C   LIG    1       23.757 -26.064   6.236  0.00  0.00    +0.028 A 
ATOM      7  C   LIG    1       23.903 -24.672   6.288  0.00  0.00    +0.026 A 
ENDROOT
BRANCH   1  12
ATOM      8  C   LIG    1       25.251 -20.424   5.784  0.00  0.00    +0.213 C 
ATOM      9  O   LIG    1       25.442 -20.536   7.203  0.00  0.00    -0.444 OA
ATOM     10  C   LIG    1       25.573 -21.855   7.531  0.00  0.00    +0.408 C 
ATOM     11  O   LIG    1       25.892 -22.191   8.666  0.00  0.00    -0.226 OA
ATOM     12  N   LIG    1       25.291 -22.651   6.434  0.00  0.00    -0.234 N 
ATOM     13  C   LIG    1       24.855 -21.823   5.347  0.00  0.00    +0.163 C 
BRANCH   8  14
ATOM     14  C   LIG    1       26.557 -19.951   5.136  0.00  0.00    +0.150 C 
BRANCH  14  17
ATOM     15  C   LIG    1       29.963 -19.828   6.821  0.00  0.00    +0.109 C 
ATOM     16  C   LIG    1       28.828 -19.371   5.941  0.00  0.00    +0.210 C 
ATOM     17  N   LIG    1       27.729 -20.196   5.965  0.00  0.00    -0.312 N 
ATOM     18  H   LIG    1       27.698 -20.963   6.626  0.00  0.00    +0.149 HD
ATOM     19  O   LIG    1       28.904 -18.374   5.230  0.00  0.00    -0.276 OA
ENDBRANCH  14  17
ENDBRANCH   8  14
ENDBRANCH   1  12
BRANCH   5  20
ATOM     20  N   LIG    1       24.649 -28.333   6.291  0.00  0.00    -0.323 N 
ATOM     21  C   LIG    1       24.769 -29.028   7.601  0.00  0.00    +0.133 C 
ATOM     22  C   LIG    1       24.480 -30.531   7.467  0.00  0.00    +0.178 C 
ATOM     23  O   LIG    1       25.301 -31.147   6.467  0.00  0.00    -0.377 OA
ATOM     24  C   LIG    1       25.035 -30.542   5.196  0.00  0.00    +0.178 C 
ATOM     25  C   LIG    1       25.369 -29.045   5.208  0.00  0.00    +0.133 C 
ENDBRANCH   5  20
TORSDOF 4
ENDMDL
MODEL 8
REMARK VINA RESULT:      -7.4      5.029      9.749
REMARK  Name = *****
REMARK                            x       y       z     vdW  Elec       q    Type
REMARK                         _______ _______ _______ _____ _____    ______ ____
ROOT
ATOM      1  C   LIG    1       24.966 -26.909   6.499  0.00  0.00    +0.042 A 
ATOM      2  C   LIG    1       23.806 -26.138   6.476  0.00  0.00    +0.063 A 
ATOM      3  C   LIG    1       23.877 -24.738   6.427  0.00  0.00    +0.146 A 
ATOM      4  F   LIG    1       22.698 -24.095   6.414  0.00  0.00    -0.203 F 
ATOM      5  C   LIG    1       25.098 -24.029   6.417  0.00  0.00    +0.066 A 
ATOM      6  C   LIG    1       26.248 -24.828   6.432  0.00  0.00    +0.028 A 
ATOM      7  C   LIG    1       26.183 -26.227   6.484  0.00  0.00    +0.026 A 
ENDROOT
BRANCH   1  12
ATOM      8  C   LIG    1       24.640 -30.537   7.156  0.00  0.00    +0.213 C 
ATOM      9  O   LIG    1       24.696 -30.438   5.724  0.00  0.00    -0.444 OA
ATOM     10  C   LIG    1       24.969 -29.146   5.378  0.00  0.00    +0.408 C 
ATOM     11  O   LIG    1       25.211 -28.845   4.215  0.00  0.00    -0.226 OA
ATOM     12  N   LIG    1       24.914 -28.329   6.496  0.00  0.00    -0.234 N 
ATOM     13  C   LIG    1       24.485 -29.102   7.626  0.00  0.00    +0.163 C 
BRANCH   8  14
ATOM     14  C   LIG    1       25.930 -31.188   7.666  0.00  0.00    +0.150 C 
BRANCH  14  17
ATOM     15  C   LIG    1       27.626 -29.698  10.726  0.00  0.00    +0.109 C 
ATOM     16  C   LIG    1       26.904 -30.731   9.899  0.00  0.00    +0.210 C 
ATOM     17  N   LIG    1       26.666 -30.347   8.601  0.00  0.00    -0.312 N 
ATOM     18  H   LIG    1       27.070 -29.485   8.256  0.00  0.00    +0.149 HD
ATOM     19  O   LIG    1       26.522 -31.800  10.365  0.00  0.00    -0.276 OA
ENDBRANCH  14  17
ENDBRANCH   8  14
ENDBRANCH   1  12
BRANCH   5  20
ATOM     20  N   LIG    1       25.218 -22.619   6.354  0.00  0.00    -0.323 N 
ATOM     21  C   LIG    1       24.865 -22.040   5.030  0.00  0.00    +0.133 C 
ATOM     22  C   LIG    1       24.956 -20.506   5.047  0.00  0.00    +0.178 C 
ATOM     23  O   LIG    1       26.239 -20.052   5.495  0.00  0.00    -0.377 OA
ATOM     24  C   LIG    1       26.465 -20.512   6.833  0.00  0.00    +0.178 C 
ATOM     25  C   LIG    1       26.469 -22.043   6.905  0.00  0.00    +0.133 C 
ENDBRANCH   5  20
TORSDOF 4
ENDMDL
MODEL 9
REMARK VINA RESULT:      -7.4      2.260      8.415
REMARK  Name = *****
REMARK                            x       y       z     vdW  Elec       q    Type
REMARK                         _______ _______ _______ _____ _____    ______ ____
ROOT
ATOM      1  C   LIG    1       26.226 -20.621   6.836  0.00  0.00    +0.042 A 
ATOM      2  C   LIG    1       27.121 -20.181   5.864  0.00  0.00    +0.063 A 
ATOM      3  C   LIG    1       28.388 -19.698   6.222  0.00  0.00    +0.146 A 
ATOM      4  F   LIG    1       29.168 -19.297   5.205  0.00  0.00    -0.203 F 
ATOM      5  C   LIG    1       28.827 -19.608   7.561  0.00  0.00    +0.066 A 
ATOM      6  C   LIG    1       27.911 -20.064   8.518  0.00  0.00    +0.028 A 
ATOM      7  C   LIG    1       26.643 -20.544   8.166  0.00  0.00    +0.026 A 
ENDROOT
BRANCH   1  12
ATOM      8  C   LIG    1       22.874 -22.174   6.610  0.00  0.00    +0.213 C 
ATOM      9  O   LIG    1       23.034 -21.488   5.359  0.00  0.00    -0.444 OA
ATOM     10  C   LIG    1       24.308 -21.003   5.277  0.00  0.00    +0.408 C 
ATOM     11  O   LIG    1       24.724 -20.507   4.237  0.00  0.00    -0.226 OA
ATOM     12  N   LIG    1       24.959 -21.162   6.489  0.00  0.00    -0.234 N 
ATOM     13  C   LIG    1       24.039 -21.692   7.455  0.00  0.00    +0.163 C 
BRANCH   8  14
ATOM     14  C   LIG    1       22.912 -23.687   6.363  0.00  0.00    +0.150 C 
BRANCH  14  17
ATOM     15  C   LIG    1       25.968 -25.801   5.560  0.00  0.00    +0.109 C 
ATOM     16  C   LIG    1       24.540 -25.508   5.941  0.00  0.00    +0.210 C 
ATOM     17  N   LIG    1       24.227 -24.169   5.963  0.00  0.00    -0.312 N 
ATOM     18  H   LIG    1       24.904 -23.495   5.626  0.00  0.00    +0.149 HD
ATOM     19  O   LIG    1       23.744 -26.389   6.252  0.00  0.00    -0.276 OA
ENDBRANCH  14  17
ENDBRANCH   8  14
ENDBRANCH   1  12
BRANCH   5  20
ATOM     20  N   LIG    1       30.101 -19.141   7.969  0.00  0.00    -0.323 N 
ATOM     21  C   LIG    1       30.884 -20.129   8.758  0.00  0.00    +0.133 C 
ATOM     22  C   LIG    1       32.276 -19.584   9.114  0.00  0.00    +0.178 C 
ATOM     23  O   LIG    1       32.200 -18.318   9.782  0.00  0.00    -0.377 OA
ATOM     24  C   LIG    1       31.572 -17.363   8.918  0.00  0.00    +0.178 C 
ATOM     25  C   LIG    1       30.140 -17.784   8.566  0.00  0.00    +0.133 C 
ENDBRANCH   5  20
TORSDOF 4
ENDMDL
