MODEL 1
REMARK VINA RESULT:      -4.2      0.000      0.000
REMARK  Name = *****
REMARK                            x       y       z     vdW  Elec       q    Type
REMARK                         _______ _______ _______ _____ _____    ______ ____
ROOT
ATOM      1 CL   LIG    1       31.366 -21.779   8.978  0.00  0.00    +0.130 Cl
ENDROOT
BRANCH   1   2
ATOM      2  O   LIG    1       30.665 -22.337  10.378  0.00  0.00    -0.271 OA
ATOM      3  H   LIG    1       30.842 -21.758  11.138  0.00  0.00    +0.238 HD
ENDBRANCH   1   2
BRANCH   1   4
ATOM      4  O   LIG    1       32.265 -20.425   9.339  0.00  0.00    -0.271 OA
ATOM      5  H   LIG    1       31.734 -19.623   9.213  0.00  0.00    +0.238 HD
ENDBRANCH   1   4
BRANCH   1   6
ATOM      6  O   LIG    1       30.205 -21.363   7.865  0.00  0.00    -0.271 OA
ATOM      7  H   LIG    1       29.544 -20.741   8.210  0.00  0.00    +0.238 HD
ENDBRANCH   1   6
BRANCH   1   8
ATOM      8  O   LIG    1       32.382 -22.941   8.363  0.00  0.00    -0.271 OA
ATOM      9  H   LIG    1       32.188 -23.150   7.434  0.00  0.00    +0.238 HD
ENDBRANCH   1   8
TORSDOF 4
ENDMDL
MODEL 2
REMARK VINA RESULT:      -4.2      0.016      2.111
REMARK  Name = *****
REMARK                            x       y       z     vdW  Elec       q    Type
REMARK                         _______ _______ _______ _____ _____    ______ ____
ROOT
ATOM      1 CL   LIG    1       31.371 -21.787   8.990  0.00  0.00    +0.130 Cl
ENDROOT
BRANCH   1   2
ATOM      2  O   LIG    1       32.388 -22.941   8.359  0.00  0.00    -0.271 OA
ATOM      3  H   LIG    1       33.325 -22.722   8.493  0.00  0.00    +0.238 HD
ENDBRANCH   1   2
BRANCH   1   4
ATOM      4  O   LIG    1       32.265 -20.427   9.340  0.00  0.00    -0.271 OA
ATOM      5  H   LIG    1       33.066 -20.667   9.831  0.00  0.00    +0.238 HD
ENDBRANCH   1   4
BRANCH   1   6
ATOM      6  O   LIG    1       30.663 -22.331  10.391  0.00  0.00    -0.271 OA
ATOM      7  H   LIG    1       29.732 -22.070  10.480  0.00  0.00    +0.238 HD
ENDBRANCH   1   6
BRANCH   1   8
ATOM      8  O   LIG    1       30.216 -21.387   7.864  0.00  0.00    -0.271 OA
ATOM      9  H   LIG    1       30.438 -20.576   7.376  0.00  0.00    +0.238 HD
ENDBRANCH   1   8
TORSDOF 4
ENDMDL
MODEL 3
REMARK VINA RESULT:      -4.2      0.024      2.431
REMARK  Name = *****
REMARK                            x       y       z     vdW  Elec       q    Type
REMARK                         _______ _______ _______ _____ _____    ______ ____
ROOT
ATOM      1 CL   LIG    1       31.367 -21.749   8.999  0.00  0.00    +0.130 Cl
ENDROOT
BRANCH   1   2
ATOM      2  O   LIG    1       30.215 -21.373   7.862  0.00  0.00    -0.271 OA
ATOM      3  H   LIG    1       29.760 -22.161   7.519  0.00  0.00    +0.238 HD
ENDBRANCH   1   2
BRANCH   1   4
ATOM      4  O   LIG    1       32.371 -22.919   8.369  0.00  0.00    -0.271 OA
ATOM      5  H   LIG    1       31.874 -23.510   7.782  0.00  0.00    +0.238 HD
ENDBRANCH   1   4
BRANCH   1   6
ATOM      6  O   LIG    1       30.660 -22.345  10.379  0.00  0.00    -0.271 OA
ATOM      7  H   LIG    1       30.581 -23.312  10.386  0.00  0.00    +0.238 HD
ENDBRANCH   1   6
BRANCH   1   8
ATOM      8  O   LIG    1       32.275 -20.399   9.338  0.00  0.00    -0.271 OA
ATOM      9  H   LIG    1       32.906 -20.187   8.630  0.00  0.00    +0.238 HD
ENDBRANCH   1   8
TORSDOF 4
ENDMDL
MODEL 4
REMARK VINA RESULT:      -4.2      0.025      2.096
REMARK  Name = *****
REMARK                            x       y       z     vdW  Elec       q    Type
REMARK                         _______ _______ _______ _____ _____    ______ ____
ROOT
ATOM      1 CL   LIG    1       31.362 -21.751   8.988  0.00  0.00    +0.130 Cl
ENDROOT
BRANCH   1   2
ATOM      2  O   LIG    1       32.270 -20.405   9.341  0.00  0.00    -0.271 OA
ATOM      3  H   LIG    1       33.052 -20.324   8.769  0.00  0.00    +0.238 HD
ENDBRANCH   1   2
BRANCH   1   4
ATOM      4  O   LIG    1       32.369 -22.923   8.368  0.00  0.00    -0.271 OA
ATOM      5  H   LIG    1       33.082 -22.516   7.852  0.00  0.00    +0.238 HD
ENDBRANCH   1   4
BRANCH   1   6
ATOM      6  O   LIG    1       30.200 -21.396   7.854  0.00  0.00    -0.271 OA
ATOM      7  H   LIG    1       30.007 -20.448   7.783  0.00  0.00    +0.238 HD
ENDBRANCH   1   6
BRANCH   1   8
ATOM      8  O   LIG    1       30.666 -22.333  10.381  0.00  0.00    -0.271 OA
ATOM      9  H   LIG    1       29.780 -22.702  10.228  0.00  0.00    +0.238 HD
ENDBRANCH   1   8
TORSDOF 4
ENDMDL
MODEL 5
REMARK VINA RESULT:      -4.2      0.024      2.096
REMARK  Name = *****
REMARK                            x       y       z     vdW  Elec       q    Type
REMARK                         _______ _______ _______ _____ _____    ______ ____
ROOT
ATOM      1 CL   LIG    1       31.375 -21.764   8.970  0.00  0.00    +0.130 Cl
ENDROOT
BRANCH   1   2
ATOM      2  O   LIG    1       32.376 -22.943   8.364  0.00  0.00    -0.271 OA
ATOM      3  H   LIG    1       32.929 -22.621   7.632  0.00  0.00    +0.238 HD
ENDBRANCH   1   2
BRANCH   1   4
ATOM      4  O   LIG    1       30.669 -22.333  10.366  0.00  0.00    -0.271 OA
ATOM      5  H   LIG    1       30.225 -23.179  10.200  0.00  0.00    +0.238 HD
ENDBRANCH   1   4
BRANCH   1   6
ATOM      6  O   LIG    1       30.175 -21.395   7.882  0.00  0.00    -0.271 OA
ATOM      7  H   LIG    1       29.453 -22.044   7.868  0.00  0.00    +0.238 HD
ENDBRANCH   1   6
BRANCH   1   8
ATOM      8  O   LIG    1       32.268 -20.412   9.341  0.00  0.00    -0.271 OA
ATOM      9  H   LIG    1       32.933 -20.584  10.029  0.00  0.00    +0.238 HD
ENDBRANCH   1   8
TORSDOF 4
ENDMDL
MODEL 6
REMARK VINA RESULT:      -4.2      0.034      2.095
REMARK  Name = *****
REMARK                            x       y       z     vdW  Elec       q    Type
REMARK                         _______ _______ _______ _____ _____    ______ ____
ROOT
ATOM      1 CL   LIG    1       31.367 -21.741   9.002  0.00  0.00    +0.130 Cl
ENDROOT
BRANCH   1   2
ATOM      2  O   LIG    1       30.657 -22.334  10.383  0.00  0.00    -0.271 OA
ATOM      3  H   LIG    1       29.694 -22.207  10.388  0.00  0.00    +0.238 HD
ENDBRANCH   1   2
BRANCH   1   4
ATOM      4  O   LIG    1       32.373 -22.912   8.378  0.00  0.00    -0.271 OA
ATOM      5  H   LIG    1       32.754 -22.616   7.537  0.00  0.00    +0.238 HD
ENDBRANCH   1   4
BRANCH   1   6
ATOM      6  O   LIG    1       32.273 -20.390   9.340  0.00  0.00    -0.271 OA
ATOM      7  H   LIG    1       33.197 -20.589   9.560  0.00  0.00    +0.238 HD
ENDBRANCH   1   6
BRANCH   1   8
ATOM      8  O   LIG    1       30.194 -21.396   7.877  0.00  0.00    -0.271 OA
ATOM      9  H   LIG    1       29.297 -21.556   8.215  0.00  0.00    +0.238 HD
ENDBRANCH   1   8
TORSDOF 4
ENDMDL
MODEL 7
REMARK VINA RESULT:      -4.2      0.016      2.112
REMARK  Name = *****
REMARK                            x       y       z     vdW  Elec       q    Type
REMARK                         _______ _______ _______ _____ _____    ______ ____
ROOT
ATOM      1 CL   LIG    1       31.374 -21.793   8.983  0.00  0.00    +0.130 Cl
ENDROOT
BRANCH   1   2
ATOM      2  O   LIG    1       30.200 -21.383   7.880  0.00  0.00    -0.271 OA
ATOM      3  H   LIG    1       30.452 -21.608   6.969  0.00  0.00    +0.238 HD
ENDBRANCH   1   2
BRANCH   1   4
ATOM      4  O   LIG    1       32.265 -20.433   9.340  0.00  0.00    -0.271 OA
ATOM      5  H   LIG    1       33.170 -20.525   9.004  0.00  0.00    +0.238 HD
ENDBRANCH   1   4
BRANCH   1   6
ATOM      6  O   LIG    1       32.393 -22.945   8.355  0.00  0.00    -0.271 OA
ATOM      7  H   LIG    1       32.222 -23.839   8.695  0.00  0.00    +0.238 HD
ENDBRANCH   1   6
BRANCH   1   8
ATOM      8  O   LIG    1       30.658 -22.339  10.380  0.00  0.00    -0.271 OA
ATOM      9  H   LIG    1       31.288 -22.409  11.117  0.00  0.00    +0.238 HD
ENDBRANCH   1   8
TORSDOF 4
ENDMDL
MODEL 8
REMARK VINA RESULT:      -4.2      0.029      2.103
REMARK  Name = *****
REMARK                            x       y       z     vdW  Elec       q    Type
REMARK                         _______ _______ _______ _____ _____    ______ ____
ROOT
ATOM      1 CL   LIG    1       31.389 -21.776   9.008  0.00  0.00    +0.130 Cl
ENDROOT
BRANCH   1   2
ATOM      2  O   LIG    1       32.269 -20.406   9.338  0.00  0.00    -0.271 OA
ATOM      3  H   LIG    1       32.215 -20.147  10.274  0.00  0.00    +0.238 HD
ENDBRANCH   1   2
BRANCH   1   4
ATOM      4  O   LIG    1       30.216 -21.397   7.889  0.00  0.00    -0.271 OA
ATOM      5  H   LIG    1       29.339 -21.638   8.223  0.00  0.00    +0.238 HD
ENDBRANCH   1   4
BRANCH   1   6
ATOM      6  O   LIG    1       30.647 -22.344  10.381  0.00  0.00    -0.271 OA
ATOM      7  H   LIG    1       30.320 -23.254  10.296  0.00  0.00    +0.238 HD
ENDBRANCH   1   6
BRANCH   1   8
ATOM      8  O   LIG    1       32.387 -22.935   8.357  0.00  0.00    -0.271 OA
ATOM      9  H   LIG    1       32.438 -23.734   8.908  0.00  0.00    +0.238 HD
ENDBRANCH   1   8
TORSDOF 4
ENDMDL
MODEL 9
REMARK VINA RESULT:      -4.2      0.029      2.422
REMARK  Name = *****
REMARK                            x       y       z     vdW  Elec       q    Type
REMARK                         _______ _______ _______ _____ _____    ______ ____
ROOT
ATOM      1 CL   LIG    1       31.397 -21.766   9.001  0.00  0.00    +0.130 Cl
ENDROOT
BRANCH   1   2
ATOM      2  O   LIG    1       32.377 -22.945   8.360  0.00  0.00    -0.271 OA
ATOM      3  H   LIG    1       32.006 -23.338   7.553  0.00  0.00    +0.238 HD
ENDBRANCH   1   2
BRANCH   1   4
ATOM      4  O   LIG    1       30.223 -21.388   7.883  0.00  0.00    -0.271 OA
ATOM      5  H   LIG    1       29.496 -22.029   7.925  0.00  0.00    +0.238 HD
ENDBRANCH   1   4
BRANCH   1   6
ATOM      6  O   LIG    1       32.270 -20.394   9.338  0.00  0.00    -0.271 OA
ATOM      7  H   LIG    1       32.961 -20.205   8.683  0.00  0.00    +0.238 HD
ENDBRANCH   1   6
BRANCH   1   8
ATOM      8  O   LIG    1       30.656 -22.344  10.372  0.00  0.00    -0.271 OA
ATOM      9  H   LIG    1       30.790 -21.763  11.140  0.00  0.00    +0.238 HD
ENDBRANCH   1   8
TORSDOF 4
ENDMDL
