MODEL 1
REMARK VINA RESULT:      -3.5      0.000      0.000
REMARK  Name = *****
REMARK                            x       y       z     vdW  Elec       q    Type
REMARK                         _______ _______ _______ _____ _____    ______ ____
ROOT
ATOM      1  C   LIG    1       27.074 -13.902   2.945  0.00  0.00    +0.304 C 
ATOM      2  O   LIG    1       26.652 -14.305   1.872  0.00  0.00    -0.251 OA
ENDROOT
BRANCH   1   4
ATOM      3  C   LIG    1       24.848 -14.236   4.009  0.00  0.00    +0.015 C 
ATOM      4  C   LIG    1       26.331 -14.034   4.248  0.00  0.00    +0.117 C 
ENDBRANCH   1   4
BRANCH   1   5
ATOM      5  O   LIG    1       28.280 -13.306   3.075  0.00  0.00    -0.481 OA
ATOM      6  H   LIG    1       28.967 -13.672   2.485  0.00  0.00    +0.295 HD
ENDBRANCH   1   5
TORSDOF 2
ENDMDL
MODEL 2
REMARK VINA RESULT:      -3.4      1.485      1.763
REMARK  Name = *****
REMARK                            x       y       z     vdW  Elec       q    Type
REMARK                         _______ _______ _______ _____ _____    ______ ____
ROOT
ATOM      1  C   LIG    1       26.873 -14.761   3.052  0.00  0.00    +0.304 C 
ATOM      2  O   LIG    1       26.381 -15.869   3.199  0.00  0.00    -0.251 OA
ENDROOT
BRANCH   1   4
ATOM      3  C   LIG    1       26.561 -13.499   5.175  0.00  0.00    +0.015 C 
ATOM      4  C   LIG    1       27.561 -13.990   4.148  0.00  0.00    +0.117 C 
ENDBRANCH   1   4
BRANCH   1   5
ATOM      5  O   LIG    1       26.866 -14.113   1.865  0.00  0.00    -0.481 OA
ATOM      6  H   LIG    1       27.651 -13.552   1.718  0.00  0.00    +0.295 HD
ENDBRANCH   1   5
TORSDOF 2
ENDMDL
MODEL 3
REMARK VINA RESULT:      -3.3      1.194      1.479
REMARK  Name = *****
REMARK                            x       y       z     vdW  Elec       q    Type
REMARK                         _______ _______ _______ _____ _____    ______ ____
ROOT
ATOM      1  C   LIG    1       26.317 -14.764   3.010  0.00  0.00    +0.304 C 
ATOM      2  O   LIG    1       26.437 -15.968   3.176  0.00  0.00    -0.251 OA
ENDROOT
BRANCH   1   4
ATOM      3  C   LIG    1       24.124 -14.319   4.102  0.00  0.00    +0.015 C 
ATOM      4  C   LIG    1       25.558 -13.856   3.942  0.00  0.00    +0.117 C 
ENDBRANCH   1   4
BRANCH   1   5
ATOM      5  O   LIG    1       26.881 -14.113   1.968  0.00  0.00    -0.481 OA
ATOM      6  H   LIG    1       26.955 -13.149   2.099  0.00  0.00    +0.295 HD
ENDBRANCH   1   5
TORSDOF 2
ENDMDL
MODEL 4
REMARK VINA RESULT:      -3.3      1.288      1.716
REMARK  Name = *****
REMARK                            x       y       z     vdW  Elec       q    Type
REMARK                         _______ _______ _______ _____ _____    ______ ____
ROOT
ATOM      1  C   LIG    1       25.796 -13.689   2.600  0.00  0.00    +0.304 C 
ATOM      2  O   LIG    1       26.620 -14.285   1.924  0.00  0.00    -0.251 OA
ENDROOT
BRANCH   1   4
ATOM      3  C   LIG    1       23.935 -14.425   4.081  0.00  0.00    +0.015 C 
ATOM      4  C   LIG    1       25.409 -14.084   4.002  0.00  0.00    +0.117 C 
ENDBRANCH   1   4
BRANCH   1   5
ATOM      5  O   LIG    1       25.154 -12.584   2.159  0.00  0.00    -0.481 OA
ATOM      6  H   LIG    1       24.513 -12.760   1.444  0.00  0.00    +0.295 HD
ENDBRANCH   1   5
TORSDOF 2
ENDMDL
MODEL 5
REMARK VINA RESULT:      -3.3      1.274      1.578
REMARK  Name = *****
REMARK                            x       y       z     vdW  Elec       q    Type
REMARK                         _______ _______ _______ _____ _____    ______ ____
ROOT
ATOM      1  C   LIG    1       25.729 -13.671   2.478  0.00  0.00    +0.304 C 
ATOM      2  O   LIG    1       24.970 -12.913   1.896  0.00  0.00    -0.251 OA
ENDROOT
BRANCH   1   4
ATOM      3  C   LIG    1       23.993 -14.348   4.129  0.00  0.00    +0.015 C 
ATOM      4  C   LIG    1       25.478 -14.222   3.858  0.00  0.00    +0.117 C 
ENDBRANCH   1   4
BRANCH   1   5
ATOM      5  O   LIG    1       26.880 -14.116   1.925  0.00  0.00    -0.481 OA
ATOM      6  H   LIG    1       27.546 -13.416   1.783  0.00  0.00    +0.295 HD
ENDBRANCH   1   5
TORSDOF 2
ENDMDL
MODEL 6
REMARK VINA RESULT:      -3.2      7.346      7.975
REMARK  Name = *****
REMARK                            x       y       z     vdW  Elec       q    Type
REMARK                         _______ _______ _______ _____ _____    ______ ____
ROOT
ATOM      1  C   LIG    1       22.714 -20.516   5.468  0.00  0.00    +0.304 C 
ATOM      2  O   LIG    1       23.108 -20.509   6.624  0.00  0.00    -0.251 OA
ENDROOT
BRANCH   1   4
ATOM      3  C   LIG    1       22.172 -18.288   4.498  0.00  0.00    +0.015 C 
ATOM      4  C   LIG    1       23.099 -19.486   4.439  0.00  0.00    +0.117 C 
ENDBRANCH   1   4
BRANCH   1   5
ATOM      5  O   LIG    1       21.896 -21.477   4.984  0.00  0.00    -0.481 OA
ATOM      6  H   LIG    1       21.494 -21.256   4.123  0.00  0.00    +0.295 HD
ENDBRANCH   1   5
TORSDOF 2
ENDMDL
MODEL 7
REMARK VINA RESULT:      -3.2      6.341      6.819
REMARK  Name = *****
REMARK                            x       y       z     vdW  Elec       q    Type
REMARK                         _______ _______ _______ _____ _____    ______ ____
ROOT
ATOM      1  C   LIG    1       24.805 -20.474   4.165  0.00  0.00    +0.304 C 
ATOM      2  O   LIG    1       24.415 -21.571   4.532  0.00  0.00    -0.251 OA
ENDROOT
BRANCH   1   4
ATOM      3  C   LIG    1       22.671 -19.302   4.686  0.00  0.00    +0.015 C 
ATOM      4  C   LIG    1       23.893 -19.335   3.790  0.00  0.00    +0.117 C 
ENDBRANCH   1   4
BRANCH   1   5
ATOM      5  O   LIG    1       26.117 -20.160   4.076  0.00  0.00    -0.481 OA
ATOM      6  H   LIG    1       26.646 -20.458   4.841  0.00  0.00    +0.295 HD
ENDBRANCH   1   5
TORSDOF 2
ENDMDL
MODEL 8
REMARK VINA RESULT:      -3.2      1.511      2.385
REMARK  Name = *****
REMARK                            x       y       z     vdW  Elec       q    Type
REMARK                         _______ _______ _______ _____ _____    ______ ____
ROOT
ATOM      1  C   LIG    1       26.531 -14.532   3.059  0.00  0.00    +0.304 C 
ATOM      2  O   LIG    1       26.626 -14.297   1.865  0.00  0.00    -0.251 OA
ENDROOT
BRANCH   1   4
ATOM      3  C   LIG    1       28.486 -13.184   3.808  0.00  0.00    +0.015 C 
ATOM      4  C   LIG    1       27.679 -14.447   4.031  0.00  0.00    +0.117 C 
ENDBRANCH   1   4
BRANCH   1   5
ATOM      5  O   LIG    1       25.361 -14.878   3.642  0.00  0.00    -0.481 OA
ATOM      6  H   LIG    1       25.450 -15.151   4.575  0.00  0.00    +0.295 HD
ENDBRANCH   1   5
TORSDOF 2
ENDMDL
MODEL 9
REMARK VINA RESULT:      -3.1      1.732      2.128
REMARK  Name = *****
REMARK                            x       y       z     vdW  Elec       q    Type
REMARK                         _______ _______ _______ _____ _____    ______ ____
ROOT
ATOM      1  C   LIG    1       26.169 -13.509   2.740  0.00  0.00    +0.304 C 
ATOM      2  O   LIG    1       26.502 -13.418   3.911  0.00  0.00    -0.251 OA
ENDROOT
BRANCH   1   4
ATOM      3  C   LIG    1       24.014 -12.374   3.257  0.00  0.00    +0.015 C 
ATOM      4  C   LIG    1       24.935 -12.867   2.160  0.00  0.00    +0.117 C 
ENDBRANCH   1   4
BRANCH   1   5
ATOM      5  O   LIG    1       26.897 -14.190   1.827  0.00  0.00    -0.481 OA
ATOM      6  H   LIG    1       26.589 -15.105   1.679  0.00  0.00    +0.295 HD
ENDBRANCH   1   5
TORSDOF 2
ENDMDL
