MODEL 1
REMARK VINA RESULT:      -5.2      0.000      0.000
REMARK  Name = *****
REMARK                            x       y       z     vdW  Elec       q    Type
REMARK                         _______ _______ _______ _____ _____    ______ ____
ROOT
ATOM      1  C   LIG    1       25.071 -20.797   5.338  0.00  0.00    +0.117 A 
ATOM      2  C   LIG    1       23.918 -20.788   6.118  0.00  0.00    +0.047 A 
ATOM      3  C   LIG    1       22.818 -20.029   5.715  0.00  0.00    +0.023 A 
ATOM      4  C   LIG    1       22.884 -19.289   4.536  0.00  0.00    +0.041 A 
ATOM      5 CL   LIG    1       21.533 -18.347   4.039  0.00  0.00    -0.084 Cl
ATOM      6  C   LIG    1       24.041 -19.306   3.754  0.00  0.00    +0.023 A 
ATOM      7  C   LIG    1       25.142 -20.065   4.155  0.00  0.00    +0.047 A 
ENDROOT
BRANCH   1   8
ATOM      8  O   LIG    1       26.123 -21.545   5.774  0.00  0.00    -0.507 OA
ATOM      9  H   LIG    1       26.710 -21.730   5.022  0.00  0.00    +0.292 HD
ENDBRANCH   1   8
TORSDOF 1
ENDMDL
MODEL 2
REMARK VINA RESULT:      -5.1      6.526      7.142
REMARK  Name = *****
REMARK                            x       y       z     vdW  Elec       q    Type
REMARK                         _______ _______ _______ _____ _____    ______ ____
ROOT
ATOM      1  C   LIG    1       27.975 -13.565   3.605  0.00  0.00    +0.117 A 
ATOM      2  C   LIG    1       27.168 -14.068   2.588  0.00  0.00    +0.047 A 
ATOM      3  C   LIG    1       25.824 -14.341   2.845  0.00  0.00    +0.023 A 
ATOM      4  C   LIG    1       25.302 -14.106   4.115  0.00  0.00    +0.041 A 
ATOM      5 CL   LIG    1       23.646 -14.447   4.437  0.00  0.00    -0.084 Cl
ATOM      6  C   LIG    1       26.113 -13.595   5.130  0.00  0.00    +0.023 A 
ATOM      7  C   LIG    1       27.458 -13.322   4.875  0.00  0.00    +0.047 A 
ENDROOT
BRANCH   1   8
ATOM      8  O   LIG    1       29.283 -13.322   3.312  0.00  0.00    -0.507 OA
ATOM      9  H   LIG    1       29.785 -14.148   3.410  0.00  0.00    +0.292 HD
ENDBRANCH   1   8
TORSDOF 1
ENDMDL
MODEL 3
REMARK VINA RESULT:      -5.1      6.531      7.020
REMARK  Name = *****
REMARK                            x       y       z     vdW  Elec       q    Type
REMARK                         _______ _______ _______ _____ _____    ______ ____
ROOT
ATOM      1  C   LIG    1       28.000 -13.573   3.601  0.00  0.00    +0.117 A 
ATOM      2  C   LIG    1       27.480 -13.336   4.871  0.00  0.00    +0.047 A 
ATOM      3  C   LIG    1       26.135 -13.606   5.128  0.00  0.00    +0.023 A 
ATOM      4  C   LIG    1       25.325 -14.110   4.112  0.00  0.00    +0.041 A 
ATOM      5 CL   LIG    1       23.666 -14.438   4.424  0.00  0.00    -0.084 Cl
ATOM      6  C   LIG    1       25.851 -14.352   2.842  0.00  0.00    +0.023 A 
ATOM      7  C   LIG    1       27.197 -14.082   2.583  0.00  0.00    +0.047 A 
ENDROOT
BRANCH   1   8
ATOM      8  O   LIG    1       29.315 -13.287   3.393  0.00  0.00    -0.507 OA
ATOM      9  H   LIG    1       29.623 -13.779   2.614  0.00  0.00    +0.292 HD
ENDBRANCH   1   8
TORSDOF 1
ENDMDL
MODEL 4
REMARK VINA RESULT:      -5.1      0.149      1.718
REMARK  Name = *****
REMARK                            x       y       z     vdW  Elec       q    Type
REMARK                         _______ _______ _______ _____ _____    ______ ____
ROOT
ATOM      1  C   LIG    1       24.977 -20.801   5.229  0.00  0.00    +0.117 A 
ATOM      2  C   LIG    1       25.081 -19.987   4.104  0.00  0.00    +0.047 A 
ATOM      3  C   LIG    1       24.000 -19.187   3.729  0.00  0.00    +0.023 A 
ATOM      4  C   LIG    1       22.829 -19.210   4.483  0.00  0.00    +0.041 A 
ATOM      5 CL   LIG    1       21.493 -18.230   4.020  0.00  0.00    -0.084 Cl
ATOM      6  C   LIG    1       22.731 -20.023   5.614  0.00  0.00    +0.023 A 
ATOM      7  C   LIG    1       23.811 -20.824   5.991  0.00  0.00    +0.047 A 
ENDROOT
BRANCH   1   8
ATOM      8  O   LIG    1       26.053 -21.572   5.553  0.00  0.00    -0.507 OA
ATOM      9  H   LIG    1       25.746 -22.474   5.742  0.00  0.00    +0.292 HD
ENDBRANCH   1   8
TORSDOF 1
ENDMDL
MODEL 5
REMARK VINA RESULT:      -4.8      3.001      3.766
REMARK  Name = *****
REMARK                            x       y       z     vdW  Elec       q    Type
REMARK                         _______ _______ _______ _____ _____    ______ ____
ROOT
ATOM      1  C   LIG    1       22.935 -21.101   5.304  0.00  0.00    +0.117 A 
ATOM      2  C   LIG    1       23.906 -20.819   4.347  0.00  0.00    +0.047 A 
ATOM      3  C   LIG    1       25.218 -20.567   4.749  0.00  0.00    +0.023 A 
ATOM      4  C   LIG    1       25.545 -20.602   6.104  0.00  0.00    +0.041 A 
ATOM      5 CL   LIG    1       27.160 -20.286   6.603  0.00  0.00    -0.084 Cl
ATOM      6  C   LIG    1       24.569 -20.892   7.059  0.00  0.00    +0.023 A 
ATOM      7  C   LIG    1       23.255 -21.144   6.659  0.00  0.00    +0.047 A 
ENDROOT
BRANCH   1   8
ATOM      8  O   LIG    1       21.665 -21.332   4.867  0.00  0.00    -0.507 OA
ATOM      9  H   LIG    1       21.457 -22.273   4.992  0.00  0.00    +0.292 HD
ENDBRANCH   1   8
TORSDOF 1
ENDMDL
MODEL 6
REMARK VINA RESULT:      -4.8      3.001      3.376
REMARK  Name = *****
REMARK                            x       y       z     vdW  Elec       q    Type
REMARK                         _______ _______ _______ _____ _____    ______ ____
ROOT
ATOM      1  C   LIG    1       22.879 -21.017   5.225  0.00  0.00    +0.117 A 
ATOM      2  C   LIG    1       23.135 -21.083   6.592  0.00  0.00    +0.047 A 
ATOM      3  C   LIG    1       24.433 -20.874   7.062  0.00  0.00    +0.023 A 
ATOM      4  C   LIG    1       25.459 -20.602   6.159  0.00  0.00    +0.041 A 
ATOM      5 CL   LIG    1       27.060 -20.351   6.734  0.00  0.00    -0.084 Cl
ATOM      6  C   LIG    1       25.196 -20.531   4.790  0.00  0.00    +0.023 A 
ATOM      7  C   LIG    1       23.899 -20.739   4.318  0.00  0.00    +0.047 A 
ENDROOT
BRANCH   1   8
ATOM      8  O   LIG    1       21.600 -21.235   4.811  0.00  0.00    -0.507 OA
ATOM      9  H   LIG    1       21.519 -22.158   4.515  0.00  0.00    +0.292 HD
ENDBRANCH   1   8
TORSDOF 1
ENDMDL
MODEL 7
REMARK VINA RESULT:      -4.7      2.316      2.927
REMARK  Name = *****
REMARK                            x       y       z     vdW  Elec       q    Type
REMARK                         _______ _______ _______ _____ _____    ______ ____
ROOT
ATOM      1  C   LIG    1       25.259 -18.883   3.726  0.00  0.00    +0.117 A 
ATOM      2  C   LIG    1       25.966 -19.794   4.506  0.00  0.00    +0.047 A 
ATOM      3  C   LIG    1       25.278 -20.629   5.388  0.00  0.00    +0.023 A 
ATOM      4  C   LIG    1       23.890 -20.544   5.478  0.00  0.00    +0.041 A 
ATOM      5 CL   LIG    1       23.040 -21.568   6.569  0.00  0.00    -0.084 Cl
ATOM      6  C   LIG    1       23.184 -19.635   4.689  0.00  0.00    +0.023 A 
ATOM      7  C   LIG    1       23.871 -18.798   3.807  0.00  0.00    +0.047 A 
ENDROOT
BRANCH   1   8
ATOM      8  O   LIG    1       25.972 -18.083   2.886  0.00  0.00    -0.507 OA
ATOM      9  H   LIG    1       25.940 -18.460   1.991  0.00  0.00    +0.292 HD
ENDBRANCH   1   8
TORSDOF 1
ENDMDL
MODEL 8
REMARK VINA RESULT:      -4.7      1.490      2.301
REMARK  Name = *****
REMARK                            x       y       z     vdW  Elec       q    Type
REMARK                         _______ _______ _______ _____ _____    ______ ____
ROOT
ATOM      1  C   LIG    1       26.157 -20.106   4.998  0.00  0.00    +0.117 A 
ATOM      2  C   LIG    1       25.412 -19.701   3.894  0.00  0.00    +0.047 A 
ATOM      3  C   LIG    1       24.039 -19.949   3.858  0.00  0.00    +0.023 A 
ATOM      4  C   LIG    1       23.426 -20.598   4.928  0.00  0.00    +0.041 A 
ATOM      5 CL   LIG    1       21.735 -20.911   4.885  0.00  0.00    -0.084 Cl
ATOM      6  C   LIG    1       24.175 -20.998   6.036  0.00  0.00    +0.023 A 
ATOM      7  C   LIG    1       25.549 -20.751   6.074  0.00  0.00    +0.047 A 
ENDROOT
BRANCH   1   8
ATOM      8  O   LIG    1       27.495 -19.852   4.986  0.00  0.00    -0.507 OA
ATOM      9  H   LIG    1       27.968 -20.647   5.282  0.00  0.00    +0.292 HD
ENDBRANCH   1   8
TORSDOF 1
ENDMDL
MODEL 9
REMARK VINA RESULT:      -4.7      1.485      1.696
REMARK  Name = *****
REMARK                            x       y       z     vdW  Elec       q    Type
REMARK                         _______ _______ _______ _____ _____    ______ ____
ROOT
ATOM      1  C   LIG    1       26.152 -20.077   4.936  0.00  0.00    +0.117 A 
ATOM      2  C   LIG    1       25.567 -20.757   6.000  0.00  0.00    +0.047 A 
ATOM      3  C   LIG    1       24.196 -21.014   5.985  0.00  0.00    +0.023 A 
ATOM      4  C   LIG    1       23.425 -20.589   4.904  0.00  0.00    +0.041 A 
ATOM      5 CL   LIG    1       21.733 -20.899   4.885  0.00  0.00    -0.084 Cl
ATOM      6  C   LIG    1       24.017 -19.913   3.836  0.00  0.00    +0.023 A 
ATOM      7  C   LIG    1       25.389 -19.654   3.850  0.00  0.00    +0.047 A 
ENDROOT
BRANCH   1   8
ATOM      8  O   LIG    1       27.492 -19.840   4.997  0.00  0.00    -0.507 OA
ATOM      9  H   LIG    1       27.906 -20.168   4.181  0.00  0.00    +0.292 HD
ENDBRANCH   1   8
TORSDOF 1
ENDMDL
