MODEL 1
REMARK VINA RESULT:      -2.0      0.000      0.000
REMARK  Name = *****
REMARK                            x       y       z     vdW  Elec       q    Type
REMARK                         _______ _______ _______ _____ _____    ______ ____
ROOT
ATOM      1  C   LIG    1       24.436 -27.956  13.774  0.00  0.00    +0.264 C 
ATOM      2  C   LIG    1       25.847 -27.299  13.620  0.00  0.00    +0.257 C 
ATOM      3  O   LIG    1       26.331 -26.721  14.605  0.00  0.00    -0.272 OA
ATOM      4  N   LIG    1       26.459 -27.161  12.371  0.00  0.00    -0.288 N 
ATOM      5  C   LIG    1       26.989 -25.811  12.181  0.00  0.00    +0.133 C 
ATOM      6  C   LIG    1       27.361 -28.197  11.746  0.00  0.00    +0.187 C 
ATOM      7  C   LIG    1       26.965 -28.628  10.286  0.00  0.00    +0.329 C 
ATOM      8  O   LIG    1       27.554 -29.470   9.655  0.00  0.00    -0.249 OA
ATOM      9  O   LIG    1       25.970 -27.874   9.743  0.00  0.00    -0.450 OA
ATOM     10  C   LIG    1       25.530 -28.141   8.388  0.00  0.00    +0.264 C 
ATOM     11  C   LIG    1       25.082 -29.609   8.019  0.00  0.00    +0.257 C 
ATOM     12  O   LIG    1       25.389 -30.162   6.964  0.00  0.00    -0.272 OA
ATOM     13  N   LIG    1       24.146 -30.199   8.895  0.00  0.00    -0.288 N 
ATOM     14  C   LIG    1       22.813 -29.635   8.669  0.00  0.00    +0.133 C 
ATOM     15  C   LIG    1       24.136 -31.712   9.019  0.00  0.00    +0.187 C 
ATOM     16  C   LIG    1       23.248 -32.271  10.204  0.00  0.00    +0.329 C 
ATOM     17  O   LIG    1       22.951 -33.444  10.320  0.00  0.00    -0.249 OA
ATOM     18  O   LIG    1       22.812 -31.303  11.061  0.00  0.00    -0.450 OA
ATOM     19  C   LIG    1       21.765 -31.580  12.018  0.00  0.00    +0.264 C 
ATOM     20  C   LIG    1       22.013 -32.633  13.137  0.00  0.00    +0.257 C 
ATOM     21  O   LIG    1       21.750 -33.825  12.967  0.00  0.00    -0.272 OA
ATOM     22  N   LIG    1       22.250 -32.134  14.426  0.00  0.00    -0.288 N 
ATOM     23  C   LIG    1       21.586 -32.866  15.500  0.00  0.00    +0.133 C 
ATOM     24  C   LIG    1       23.537 -31.480  14.801  0.00  0.00    +0.187 C 
ATOM     25  C   LIG    1       23.462 -29.947  14.600  0.00  0.00    +0.329 C 
ATOM     26  O   LIG    1       22.592 -29.283  15.164  0.00  0.00    -0.249 OA
ATOM     27  O   LIG    1       24.414 -29.403  13.776  0.00  0.00    -0.450 OA
ENDROOT
BRANCH   1  29
ATOM     28  C   LIG    1       22.657 -26.134  13.530  0.00  0.00    +0.011 C 
ATOM     29  C   LIG    1       23.320 -27.332  12.889  0.00  0.00    +0.033 C 
ATOM     30  C   LIG    1       22.246 -28.335  12.459  0.00  0.00    +0.011 C 
ENDBRANCH   1  29
BRANCH   6  31
ATOM     31  C   LIG    1       27.849 -29.398  12.630  0.00  0.00    +0.014 C 
ATOM     32  C   LIG    1       27.238 -30.739  12.159  0.00  0.00    +0.009 C 
ATOM     33  C   LIG    1       29.369 -29.626  12.600  0.00  0.00    +0.009 C 
ENDBRANCH   6  31
BRANCH  10  34
ATOM     34  C   LIG    1       26.473 -27.464   7.348  0.00  0.00    +0.033 C 
ATOM     35  C   LIG    1       26.425 -28.078   5.947  0.00  0.00    +0.011 C 
ATOM     36  C   LIG    1       26.250 -25.951   7.244  0.00  0.00    +0.011 C 
ENDBRANCH  10  34
BRANCH  15  37
ATOM     37  C   LIG    1       25.559 -32.375   8.989  0.00  0.00    +0.014 C 
ATOM     38  C   LIG    1       25.987 -32.993  10.311  0.00  0.00    +0.009 C 
ATOM     39  C   LIG    1       25.750 -33.421   7.886  0.00  0.00    +0.009 C 
ENDBRANCH  15  37
BRANCH  19  40
ATOM     40  C   LIG    1       20.379 -31.916  11.356  0.00  0.00    +0.033 C 
ATOM     41  C   LIG    1       19.299 -32.213  12.411  0.00  0.00    +0.011 C 
ATOM     42  C   LIG    1       19.856 -30.811  10.441  0.00  0.00    +0.011 C 
ENDBRANCH  19  40
BRANCH  24  43
ATOM     43  C   LIG    1       24.809 -32.236  14.340  0.00  0.00    +0.014 C 
ATOM     44  C   LIG    1       26.032 -31.838  15.181  0.00  0.00    +0.009 C 
ATOM     45  C   LIG    1       24.691 -33.761  14.493  0.00  0.00    +0.009 C 
ENDBRANCH  24  43
TORSDOF 6
ENDMDL
MODEL 2
REMARK VINA RESULT:      -0.2      1.791      5.986
REMARK  Name = *****
REMARK                            x       y       z     vdW  Elec       q    Type
REMARK                         _______ _______ _______ _____ _____    ______ ____
ROOT
ATOM      1  C   LIG    1       24.221 -32.775   9.648  0.00  0.00    +0.264 C 
ATOM      2  C   LIG    1       25.316 -32.040   8.806  0.00  0.00    +0.257 C 
ATOM      3  O   LIG    1       25.398 -32.308   7.598  0.00  0.00    -0.272 OA
ATOM      4  N   LIG    1       26.318 -31.277   9.412  0.00  0.00    -0.288 N 
ATOM      5  C   LIG    1       27.638 -31.600   8.870  0.00  0.00    +0.133 C 
ATOM      6  C   LIG    1       26.197 -29.804   9.721  0.00  0.00    +0.187 C 
ATOM      7  C   LIG    1       26.515 -29.411  11.210  0.00  0.00    +0.329 C 
ATOM      8  O   LIG    1       26.431 -28.286  11.636  0.00  0.00    -0.249 OA
ATOM      9  O   LIG    1       27.019 -30.435  11.952  0.00  0.00    -0.450 OA
ATOM     10  C   LIG    1       27.389 -30.200  13.334  0.00  0.00    +0.264 C 
ATOM     11  C   LIG    1       26.311 -29.577  14.305  0.00  0.00    +0.257 C 
ATOM     12  O   LIG    1       26.573 -28.704  15.130  0.00  0.00    -0.272 OA
ATOM     13  N   LIG    1       25.049 -30.210  14.302  0.00  0.00    -0.288 N 
ATOM     14  C   LIG    1       25.115 -31.476  15.036  0.00  0.00    +0.133 C 
ATOM     15  C   LIG    1       23.831 -29.379  14.662  0.00  0.00    +0.187 C 
ATOM     16  C   LIG    1       22.443 -30.088  14.382  0.00  0.00    +0.329 C 
ATOM     17  O   LIG    1       21.383 -29.669  14.801  0.00  0.00    -0.249 OA
ATOM     18  O   LIG    1       22.557 -31.239  13.658  0.00  0.00    -0.450 OA
ATOM     19  C   LIG    1       21.449 -32.162  13.559  0.00  0.00    +0.264 C 
ATOM     20  C   LIG    1       20.135 -31.706  12.860  0.00  0.00    +0.257 C 
ATOM     21  O   LIG    1       19.227 -31.163  13.492  0.00  0.00    -0.272 OA
ATOM     22  N   LIG    1       19.904 -32.208  11.571  0.00  0.00    -0.288 N 
ATOM     23  C   LIG    1       18.527 -32.613  11.308  0.00  0.00    +0.133 C 
ATOM     24  C   LIG    1       20.665 -31.727  10.383  0.00  0.00    +0.187 C 
ATOM     25  C   LIG    1       21.910 -32.610  10.123  0.00  0.00    +0.329 C 
ATOM     26  O   LIG    1       21.793 -33.824   9.956  0.00  0.00    -0.249 OA
ATOM     27  O   LIG    1       23.114 -31.954  10.091  0.00  0.00    -0.450 OA
ENDROOT
BRANCH   1  29
ATOM     28  C   LIG    1       24.285 -33.331  12.145  0.00  0.00    +0.011 C 
ATOM     29  C   LIG    1       24.768 -33.711  10.763  0.00  0.00    +0.033 C 
ATOM     30  C   LIG    1       26.295 -33.824  10.775  0.00  0.00    +0.011 C 
ENDBRANCH   1  29
BRANCH   6  31
ATOM     31  C   LIG    1       24.985 -29.010   9.120  0.00  0.00    +0.014 C 
ATOM     32  C   LIG    1       25.455 -27.896   8.154  0.00  0.00    +0.009 C 
ATOM     33  C   LIG    1       24.018 -29.869   8.289  0.00  0.00    +0.009 C 
ENDBRANCH   6  31
BRANCH  10  34
ATOM     34  C   LIG    1       28.807 -29.562  13.435  0.00  0.00    +0.033 C 
ATOM     35  C   LIG    1       29.652 -30.065  14.607  0.00  0.00    +0.011 C 
ATOM     36  C   LIG    1       29.611 -29.699  12.137  0.00  0.00    +0.011 C 
ENDBRANCH  10  34
BRANCH  15  37
ATOM     37  C   LIG    1       23.861 -27.910  14.109  0.00  0.00    +0.014 C 
ATOM     38  C   LIG    1       22.855 -27.639  13.002  0.00  0.00    +0.009 C 
ATOM     39  C   LIG    1       23.702 -26.825  15.179  0.00  0.00    +0.009 C 
ENDBRANCH  15  37
BRANCH  19  40
ATOM     40  C   LIG    1       21.048 -32.815  14.932  0.00  0.00    +0.033 C 
ATOM     41  C   LIG    1       19.731 -33.604  14.827  0.00  0.00    +0.011 C 
ATOM     42  C   LIG    1       22.116 -33.748  15.499  0.00  0.00    +0.011 C 
ENDBRANCH  19  40
BRANCH  24  43
ATOM     43  C   LIG    1       20.803 -30.186  10.278  0.00  0.00    +0.014 C 
ATOM     44  C   LIG    1       19.554 -29.475  10.820  0.00  0.00    +0.009 C 
ATOM     45  C   LIG    1       21.976 -29.631  11.103  0.00  0.00    +0.009 C 
ENDBRANCH  24  43
TORSDOF 6
ENDMDL
MODEL 3
REMARK VINA RESULT:       0.8      1.534      6.222
REMARK  Name = *****
REMARK                            x       y       z     vdW  Elec       q    Type
REMARK                         _______ _______ _______ _____ _____    ______ ____
ROOT
ATOM      1  C   LIG    1       23.250 -31.490  13.743  0.00  0.00    +0.264 C 
ATOM      2  C   LIG    1       21.945 -32.060  13.096  0.00  0.00    +0.257 C 
ATOM      3  O   LIG    1       20.977 -32.284  13.837  0.00  0.00    -0.272 OA
ATOM      4  N   LIG    1       21.922 -32.518  11.775  0.00  0.00    -0.288 N 
ATOM      5  C   LIG    1       21.266 -33.822  11.672  0.00  0.00    +0.133 C 
ATOM      6  C   LIG    1       21.609 -31.651  10.579  0.00  0.00    +0.187 C 
ATOM      7  C   LIG    1       22.676 -31.702   9.426  0.00  0.00    +0.329 C 
ATOM      8  O   LIG    1       22.603 -31.045   8.417  0.00  0.00    -0.249 OA
ATOM      9  O   LIG    1       23.634 -32.653   9.607  0.00  0.00    -0.450 OA
ATOM     10  C   LIG    1       24.662 -32.832   8.600  0.00  0.00    +0.264 C 
ATOM     11  C   LIG    1       25.511 -31.575   8.161  0.00  0.00    +0.257 C 
ATOM     12  O   LIG    1       25.810 -31.339   6.992  0.00  0.00    -0.272 OA
ATOM     13  N   LIG    1       26.072 -30.821   9.214  0.00  0.00    -0.288 N 
ATOM     14  C   LIG    1       27.227 -31.521   9.781  0.00  0.00    +0.133 C 
ATOM     15  C   LIG    1       26.332 -29.344   8.977  0.00  0.00    +0.187 C 
ATOM     16  C   LIG    1       26.710 -28.524  10.278  0.00  0.00    +0.329 C 
ATOM     17  O   LIG    1       27.156 -27.394  10.248  0.00  0.00    -0.249 OA
ATOM     18  O   LIG    1       26.527 -29.224  11.435  0.00  0.00    -0.450 OA
ATOM     19  C   LIG    1       27.087 -28.751  12.680  0.00  0.00    +0.264 C 
ATOM     20  C   LIG    1       26.596 -27.399  13.274  0.00  0.00    +0.257 C 
ATOM     21  O   LIG    1       27.141 -26.333  12.981  0.00  0.00    -0.272 OA
ATOM     22  N   LIG    1       25.728 -27.475  14.373  0.00  0.00    -0.288 N 
ATOM     23  C   LIG    1       25.993 -26.507  15.433  0.00  0.00    +0.133 C 
ATOM     24  C   LIG    1       24.304 -27.894  14.234  0.00  0.00    +0.187 C 
ATOM     25  C   LIG    1       24.148 -29.419  14.450  0.00  0.00    +0.329 C 
ATOM     26  O   LIG    1       24.534 -29.947  15.493  0.00  0.00    -0.249 OA
ATOM     27  O   LIG    1       23.560 -30.113  13.423  0.00  0.00    -0.450 OA
ENDROOT
BRANCH   1  29
ATOM     28  C   LIG    1       25.168 -32.630  14.996  0.00  0.00    +0.011 C 
ATOM     29  C   LIG    1       24.489 -32.427  13.661  0.00  0.00    +0.033 C 
ATOM     30  C   LIG    1       25.527 -31.981  12.628  0.00  0.00    +0.011 C 
ENDBRANCH   1  29
BRANCH   6  31
ATOM     31  C   LIG    1       21.039 -30.211  10.826  0.00  0.00    +0.014 C 
ATOM     32  C   LIG    1       20.128 -30.163  12.076  0.00  0.00    +0.009 C 
ATOM     33  C   LIG    1       22.115 -29.143  11.083  0.00  0.00    +0.009 C 
ENDBRANCH   6  31
BRANCH  10  34
ATOM     34  C   LIG    1       24.148 -33.717   7.424  0.00  0.00    +0.033 C 
ATOM     35  C   LIG    1       22.752 -33.356   6.915  0.00  0.00    +0.011 C 
ATOM     36  C   LIG    1       25.124 -33.753   6.242  0.00  0.00    +0.011 C 
ENDBRANCH  10  34
BRANCH  15  37
ATOM     37  C   LIG    1       25.228 -28.620   8.128  0.00  0.00    +0.014 C 
ATOM     38  C   LIG    1       25.732 -27.424   7.336  0.00  0.00    +0.009 C 
ATOM     39  C   LIG    1       24.458 -29.537   7.172  0.00  0.00    +0.009 C 
ENDBRANCH  15  37
BRANCH  19  40
ATOM     40  C   LIG    1       28.659 -28.727  12.695  0.00  0.00    +0.033 C 
ATOM     41  C   LIG    1       29.221 -28.992  14.103  0.00  0.00    +0.011 C 
ATOM     42  C   LIG    1       29.294 -29.731  11.735  0.00  0.00    +0.011 C 
ENDBRANCH  19  40
BRANCH  24  43
ATOM     43  C   LIG    1       23.538 -27.220  13.067  0.00  0.00    +0.014 C 
ATOM     44  C   LIG    1       22.029 -27.493  13.156  0.00  0.00    +0.009 C 
ATOM     45  C   LIG    1       23.673 -25.688  13.065  0.00  0.00    +0.009 C 
ENDBRANCH  24  43
TORSDOF 6
ENDMDL
MODEL 4
REMARK VINA RESULT:       1.0      1.483      6.334
REMARK  Name = *****
REMARK                            x       y       z     vdW  Elec       q    Type
REMARK                         _______ _______ _______ _____ _____    ______ ____
ROOT
ATOM      1  C   LIG    1       21.441 -31.982  11.217  0.00  0.00    +0.264 C 
ATOM      2  C   LIG    1       21.009 -32.189  12.706  0.00  0.00    +0.257 C 
ATOM      3  O   LIG    1       20.181 -33.078  12.954  0.00  0.00    -0.272 OA
ATOM      4  N   LIG    1       21.358 -31.275  13.704  0.00  0.00    -0.288 N 
ATOM      5  C   LIG    1       20.206 -30.926  14.537  0.00  0.00    +0.133 C 
ATOM      6  C   LIG    1       22.623 -31.351  14.524  0.00  0.00    +0.187 C 
ATOM      7  C   LIG    1       23.482 -30.033  14.541  0.00  0.00    +0.329 C 
ATOM      8  O   LIG    1       24.539 -29.932  15.113  0.00  0.00    -0.249 OA
ATOM      9  O   LIG    1       22.866 -28.969  13.956  0.00  0.00    -0.450 OA
ATOM     10  C   LIG    1       23.532 -27.682  13.934  0.00  0.00    +0.264 C 
ATOM     11  C   LIG    1       24.990 -27.601  13.334  0.00  0.00    +0.257 C 
ATOM     12  O   LIG    1       25.892 -26.939  13.844  0.00  0.00    -0.272 OA
ATOM     13  N   LIG    1       25.160 -28.191  12.063  0.00  0.00    -0.288 N 
ATOM     14  C   LIG    1       24.583 -27.335  11.024  0.00  0.00    +0.133 C 
ATOM     15  C   LIG    1       26.535 -28.721  11.698  0.00  0.00    +0.187 C 
ATOM     16  C   LIG    1       26.576 -29.594  10.378  0.00  0.00    +0.329 C 
ATOM     17  O   LIG    1       27.608 -29.916   9.822  0.00  0.00    -0.249 OA
ATOM     18  O   LIG    1       25.340 -29.917   9.900  0.00  0.00    -0.450 OA
ATOM     19  C   LIG    1       25.179 -30.449   8.566  0.00  0.00    +0.264 C 
ATOM     20  C   LIG    1       25.811 -31.827   8.212  0.00  0.00    +0.257 C 
ATOM     21  O   LIG    1       26.960 -31.913   7.776  0.00  0.00    -0.272 OA
ATOM     22  N   LIG    1       24.931 -32.915   8.118  0.00  0.00    -0.288 N 
ATOM     23  C   LIG    1       25.193 -33.821   7.004  0.00  0.00    +0.133 C 
ATOM     24  C   LIG    1       24.312 -33.543   9.320  0.00  0.00    +0.187 C 
ATOM     25  C   LIG    1       22.936 -32.907   9.636  0.00  0.00    +0.329 C 
ATOM     26  O   LIG    1       22.043 -32.894   8.788  0.00  0.00    -0.249 OA
ATOM     27  O   LIG    1       22.794 -32.381  10.895  0.00  0.00    -0.450 OA
ENDROOT
BRANCH   1  29
ATOM     28  C   LIG    1       21.346 -29.444  11.524  0.00  0.00    +0.011 C 
ATOM     29  C   LIG    1       21.050 -30.607  10.604  0.00  0.00    +0.033 C 
ATOM     30  C   LIG    1       19.591 -30.532  10.147  0.00  0.00    +0.011 C 
ENDBRANCH   1  29
BRANCH   6  31
ATOM     31  C   LIG    1       23.496 -32.652  14.437  0.00  0.00    +0.014 C 
ATOM     32  C   LIG    1       24.974 -32.374  14.800  0.00  0.00    +0.009 C 
ATOM     33  C   LIG    1       23.057 -33.770  15.397  0.00  0.00    +0.009 C 
ENDBRANCH   6  31
BRANCH  10  34
ATOM     34  C   LIG    1       23.337 -26.925  15.282  0.00  0.00    +0.033 C 
ATOM     35  C   LIG    1       24.283 -25.741  15.493  0.00  0.00    +0.011 C 
ATOM     36  C   LIG    1       21.891 -26.461  15.495  0.00  0.00    +0.011 C 
ENDBRANCH  10  34
BRANCH  15  37
ATOM     37  C   LIG    1       27.298 -29.414  12.883  0.00  0.00    +0.014 C 
ATOM     38  C   LIG    1       26.813 -30.819  13.202  0.00  0.00    +0.009 C 
ATOM     39  C   LIG    1       28.821 -29.459  12.717  0.00  0.00    +0.009 C 
ENDBRANCH  15  37
BRANCH  19  40
ATOM     40  C   LIG    1       25.587 -29.440   7.431  0.00  0.00    +0.033 C 
ATOM     41  C   LIG    1       24.963 -29.820   6.077  0.00  0.00    +0.011 C 
ATOM     42  C   LIG    1       25.211 -27.992   7.738  0.00  0.00    +0.011 C 
ENDBRANCH  19  40
BRANCH  24  43
ATOM     43  C   LIG    1       25.294 -33.823  10.486  0.00  0.00    +0.014 C 
ATOM     44  C   LIG    1       26.755 -33.674  10.035  0.00  0.00    +0.009 C 
ATOM     45  C   LIG    1       25.130 -32.842  11.659  0.00  0.00    +0.009 C 
ENDBRANCH  24  43
TORSDOF 6
ENDMDL
