MODEL 1
REMARK VINA RESULT:      -4.4      0.000      0.000
REMARK  Name = *****
REMARK                            x       y       z     vdW  Elec       q    Type
REMARK                         _______ _______ _______ _____ _____    ______ ____
ROOT
ATOM      1  C   LIG    1       22.612 -20.114   4.778  0.00  0.00    +0.201 C 
ATOM      2  C   LIG    1       21.611 -21.282   4.832  0.00  0.00    +0.067 C 
ATOM      3  C   LIG    1       22.978 -19.806   6.253  0.00  0.00    +0.067 C 
ENDROOT
BRANCH   1   4
ATOM      4  C   LIG    1       21.996 -18.790   4.265  0.00  0.00    +0.351 C 
ATOM      5  O   LIG    1       20.927 -18.686   3.691  0.00  0.00    -0.246 OA
BRANCH   4   6
ATOM      6  O   LIG    1       22.884 -17.765   4.445  0.00  0.00    -0.462 OA
BRANCH   6   8
ATOM      7  C   LIG    1       23.314 -15.424   4.424  0.00  0.00    +0.048 C 
ATOM      8  C   LIG    1       22.314 -16.503   4.802  0.00  0.00    +0.229 C 
ENDBRANCH   6   8
ENDBRANCH   4   6
ENDBRANCH   1   4
BRANCH   1   9
ATOM      9  O   LIG    1       23.835 -20.507   4.137  0.00  0.00    -0.475 OA
BRANCH   9  10
ATOM     10  C   LIG    1       24.999 -20.557   4.860  0.00  0.00    +0.122 A 
ATOM     11  C   LIG    1       25.267 -21.415   5.927  0.00  0.00    +0.047 A 
ATOM     12  C   LIG    1       26.485 -21.343   6.614  0.00  0.00    +0.023 A 
ATOM     13  C   LIG    1       27.457 -20.432   6.213  0.00  0.00    +0.041 A 
ATOM     14 CL   LIG    1       28.950 -20.350   7.062  0.00  0.00    -0.084 Cl
ATOM     15  C   LIG    1       27.221 -19.596   5.126  0.00  0.00    +0.023 A 
ATOM     16  C   LIG    1       25.995 -19.663   4.450  0.00  0.00    +0.047 A 
ENDBRANCH   9  10
ENDBRANCH   1   9
TORSDOF 5
ENDMDL
MODEL 2
REMARK VINA RESULT:      -4.3      3.089      4.823
REMARK  Name = *****
REMARK                            x       y       z     vdW  Elec       q    Type
REMARK                         _______ _______ _______ _____ _____    ______ ____
ROOT
ATOM      1  C   LIG    1       26.236 -15.206   3.427  0.00  0.00    +0.201 C 
ATOM      2  C   LIG    1       27.421 -15.312   4.403  0.00  0.00    +0.067 C 
ATOM      3  C   LIG    1       26.668 -14.175   2.354  0.00  0.00    +0.067 C 
ENDROOT
BRANCH   1   4
ATOM      4  C   LIG    1       24.967 -14.580   4.054  0.00  0.00    +0.351 C 
ATOM      5  O   LIG    1       23.881 -15.124   4.138  0.00  0.00    -0.246 OA
BRANCH   4   6
ATOM      6  O   LIG    1       25.212 -13.278   4.395  0.00  0.00    -0.462 OA
BRANCH   6   8
ATOM      7  C   LIG    1       23.934 -11.750   3.092  0.00  0.00    +0.048 C 
ATOM      8  C   LIG    1       24.068 -12.422   4.448  0.00  0.00    +0.229 C 
ENDBRANCH   6   8
ENDBRANCH   4   6
ENDBRANCH   1   4
BRANCH   1   9
ATOM      9  O   LIG    1       26.025 -16.444   2.731  0.00  0.00    -0.475 OA
BRANCH   9  10
ATOM     10  C   LIG    1       25.960 -17.619   3.433  0.00  0.00    +0.122 A 
ATOM     11  C   LIG    1       27.008 -18.216   4.135  0.00  0.00    +0.047 A 
ATOM     12  C   LIG    1       26.828 -19.443   4.785  0.00  0.00    +0.023 A 
ATOM     13  C   LIG    1       25.583 -20.065   4.762  0.00  0.00    +0.041 A 
ATOM     14 CL   LIG    1       25.369 -21.572   5.563  0.00  0.00    -0.084 Cl
ATOM     15  C   LIG    1       24.517 -19.464   4.101  0.00  0.00    +0.023 A 
ATOM     16  C   LIG    1       24.706 -18.243   3.441  0.00  0.00    +0.047 A 
ENDBRANCH   9  10
ENDBRANCH   1   9
TORSDOF 5
ENDMDL
MODEL 3
REMARK VINA RESULT:      -4.1      2.822      4.932
REMARK  Name = *****
REMARK                            x       y       z     vdW  Elec       q    Type
REMARK                         _______ _______ _______ _____ _____    ______ ____
ROOT
ATOM      1  C   LIG    1       24.140 -20.068   4.543  0.00  0.00    +0.201 C 
ATOM      2  C   LIG    1       22.756 -19.599   5.023  0.00  0.00    +0.067 C 
ATOM      3  C   LIG    1       23.914 -21.464   3.909  0.00  0.00    +0.067 C 
ENDROOT
BRANCH   1   4
ATOM      4  C   LIG    1       25.139 -20.340   5.693  0.00  0.00    +0.351 C 
ATOM      5  O   LIG    1       24.838 -20.529   6.858  0.00  0.00    -0.246 OA
BRANCH   4   6
ATOM      6  O   LIG    1       26.422 -20.221   5.232  0.00  0.00    -0.462 OA
BRANCH   6   8
ATOM      7  C   LIG    1       28.611 -19.414   5.699  0.00  0.00    +0.048 C 
ATOM      8  C   LIG    1       27.446 -20.231   6.230  0.00  0.00    +0.229 C 
ENDBRANCH   6   8
ENDBRANCH   4   6
ENDBRANCH   1   4
BRANCH   1   9
ATOM      9  O   LIG    1       24.636 -19.227   3.490  0.00  0.00    -0.475 OA
BRANCH   9  10
ATOM     10  C   LIG    1       24.633 -17.865   3.645  0.00  0.00    +0.122 A 
ATOM     11  C   LIG    1       23.560 -17.092   4.091  0.00  0.00    +0.047 A 
ATOM     12  C   LIG    1       23.667 -15.698   4.172  0.00  0.00    +0.023 A 
ATOM     13  C   LIG    1       24.865 -15.073   3.839  0.00  0.00    +0.041 A 
ATOM     14 CL   LIG    1       24.989 -13.361   3.941  0.00  0.00    -0.084 Cl
ATOM     15  C   LIG    1       25.957 -15.832   3.431  0.00  0.00    +0.023 A 
ATOM     16  C   LIG    1       25.840 -17.225   3.339  0.00  0.00    +0.047 A 
ENDBRANCH   9  10
ENDBRANCH   1   9
TORSDOF 5
ENDMDL
MODEL 4
REMARK VINA RESULT:      -4.0      3.578      5.458
REMARK  Name = *****
REMARK                            x       y       z     vdW  Elec       q    Type
REMARK                         _______ _______ _______ _____ _____    ______ ____
ROOT
ATOM      1  C   LIG    1       25.323 -14.978   3.534  0.00  0.00    +0.201 C 
ATOM      2  C   LIG    1       23.924 -14.820   4.155  0.00  0.00    +0.067 C 
ATOM      3  C   LIG    1       26.320 -14.489   4.616  0.00  0.00    +0.067 C 
ENDROOT
BRANCH   1   4
ATOM      4  C   LIG    1       25.583 -14.032   2.337  0.00  0.00    +0.351 C 
ATOM      5  O   LIG    1       26.666 -13.841   1.813  0.00  0.00    -0.246 OA
BRANCH   4   6
ATOM      6  O   LIG    1       24.439 -13.350   2.026  0.00  0.00    -0.462 OA
BRANCH   6   8
ATOM      7  C   LIG    1       23.779 -11.447   3.294  0.00  0.00    +0.048 C 
ATOM      8  C   LIG    1       24.534 -11.924   2.065  0.00  0.00    +0.229 C 
ENDBRANCH   6   8
ENDBRANCH   4   6
ENDBRANCH   1   4
BRANCH   1   9
ATOM      9  O   LIG    1       25.634 -16.360   3.299  0.00  0.00    -0.475 OA
BRANCH   9  10
ATOM     10  C   LIG    1       24.740 -17.332   3.665  0.00  0.00    +0.122 A 
ATOM     11  C   LIG    1       23.419 -17.124   4.067  0.00  0.00    +0.047 A 
ATOM     12  C   LIG    1       22.612 -18.200   4.454  0.00  0.00    +0.023 A 
ATOM     13  C   LIG    1       23.113 -19.497   4.410  0.00  0.00    +0.041 A 
ATOM     14 CL   LIG    1       22.115 -20.813   4.888  0.00  0.00    -0.084 Cl
ATOM     15  C   LIG    1       24.414 -19.725   3.974  0.00  0.00    +0.023 A 
ATOM     16  C   LIG    1       25.223 -18.644   3.599  0.00  0.00    +0.047 A 
ENDBRANCH   9  10
ENDBRANCH   1   9
TORSDOF 5
ENDMDL
MODEL 5
REMARK VINA RESULT:      -3.9      3.824      6.260
REMARK  Name = *****
REMARK                            x       y       z     vdW  Elec       q    Type
REMARK                         _______ _______ _______ _____ _____    ______ ____
ROOT
ATOM      1  C   LIG    1       24.432 -13.409   3.926  0.00  0.00    +0.201 C 
ATOM      2  C   LIG    1       24.332 -13.302   2.395  0.00  0.00    +0.067 C 
ATOM      3  C   LIG    1       23.887 -12.067   4.477  0.00  0.00    +0.067 C 
ENDROOT
BRANCH   1   4
ATOM      4  C   LIG    1       25.886 -13.464   4.454  0.00  0.00    +0.351 C 
ATOM      5  O   LIG    1       26.207 -13.552   5.625  0.00  0.00    -0.246 OA
BRANCH   4   6
ATOM      6  O   LIG    1       26.762 -13.279   3.419  0.00  0.00    -0.462 OA
BRANCH   6   8
ATOM      7  C   LIG    1       29.042 -12.750   3.848  0.00  0.00    +0.048 C 
ATOM      8  C   LIG    1       28.053 -13.872   3.583  0.00  0.00    +0.229 C 
ENDBRANCH   6   8
ENDBRANCH   4   6
ENDBRANCH   1   4
BRANCH   1   9
ATOM      9  O   LIG    1       23.560 -14.432   4.433  0.00  0.00    -0.475 OA
BRANCH   9  10
ATOM     10  C   LIG    1       23.829 -15.750   4.169  0.00  0.00    +0.122 A 
ATOM     11  C   LIG    1       25.028 -16.259   3.670  0.00  0.00    +0.047 A 
ATOM     12  C   LIG    1       25.169 -17.627   3.404  0.00  0.00    +0.023 A 
ATOM     13  C   LIG    1       24.117 -18.498   3.668  0.00  0.00    +0.041 A 
ATOM     14 CL   LIG    1       24.298 -20.176   3.338  0.00  0.00    -0.084 Cl
ATOM     15  C   LIG    1       22.928 -18.012   4.202  0.00  0.00    +0.023 A 
ATOM     16  C   LIG    1       22.788 -16.641   4.455  0.00  0.00    +0.047 A 
ENDBRANCH   9  10
ENDBRANCH   1   9
TORSDOF 5
ENDMDL
MODEL 6
REMARK VINA RESULT:      -3.8      3.558      5.214
REMARK  Name = *****
REMARK                            x       y       z     vdW  Elec       q    Type
REMARK                         _______ _______ _______ _____ _____    ______ ____
ROOT
ATOM      1  C   LIG    1       25.950 -14.927   3.515  0.00  0.00    +0.201 C 
ATOM      2  C   LIG    1       24.532 -15.135   4.077  0.00  0.00    +0.067 C 
ATOM      3  C   LIG    1       26.850 -14.638   4.744  0.00  0.00    +0.067 C 
ENDROOT
BRANCH   1   4
ATOM      4  C   LIG    1       26.093 -13.655   2.643  0.00  0.00    +0.351 C 
ATOM      5  O   LIG    1       27.072 -12.932   2.610  0.00  0.00    -0.246 OA
BRANCH   4   6
ATOM      6  O   LIG    1       24.913 -13.396   2.003  0.00  0.00    -0.462 OA
BRANCH   6   8
ATOM      7  C   LIG    1       23.828 -11.672   3.233  0.00  0.00    +0.048 C 
ATOM      8  C   LIG    1       24.532 -12.020   1.933  0.00  0.00    +0.229 C 
ENDBRANCH   6   8
ENDBRANCH   4   6
ENDBRANCH   1   4
BRANCH   1   9
ATOM      9  O   LIG    1       26.456 -16.133   2.923  0.00  0.00    -0.475 OA
BRANCH   9  10
ATOM     10  C   LIG    1       26.048 -17.351   3.402  0.00  0.00    +0.122 A 
ATOM     11  C   LIG    1       24.773 -17.902   3.265  0.00  0.00    +0.047 A 
ATOM     12  C   LIG    1       24.466 -19.144   3.833  0.00  0.00    +0.023 A 
ATOM     13  C   LIG    1       25.446 -19.858   4.516  0.00  0.00    +0.041 A 
ATOM     14 CL   LIG    1       25.060 -21.383   5.211  0.00  0.00    -0.084 Cl
ATOM     15  C   LIG    1       26.733 -19.341   4.627  0.00  0.00    +0.023 A 
ATOM     16  C   LIG    1       27.032 -18.092   4.067  0.00  0.00    +0.047 A 
ENDBRANCH   9  10
ENDBRANCH   1   9
TORSDOF 5
ENDMDL
MODEL 7
REMARK VINA RESULT:      -3.6      2.870      5.062
REMARK  Name = *****
REMARK                            x       y       z     vdW  Elec       q    Type
REMARK                         _______ _______ _______ _____ _____    ______ ____
ROOT
ATOM      1  C   LIG    1       24.319 -19.911   4.337  0.00  0.00    +0.201 C 
ATOM      2  C   LIG    1       22.934 -19.384   4.751  0.00  0.00    +0.067 C 
ATOM      3  C   LIG    1       24.064 -21.294   3.684  0.00  0.00    +0.067 C 
ENDROOT
BRANCH   1   4
ATOM      4  C   LIG    1       25.246 -20.232   5.534  0.00  0.00    +0.351 C 
ATOM      5  O   LIG    1       24.873 -20.492   6.664  0.00  0.00    -0.246 OA
BRANCH   4   6
ATOM      6  O   LIG    1       26.553 -20.066   5.167  0.00  0.00    -0.462 OA
BRANCH   6   8
ATOM      7  C   LIG    1       28.737 -19.431   5.868  0.00  0.00    +0.048 C 
ATOM      8  C   LIG    1       27.522 -20.281   6.197  0.00  0.00    +0.229 C 
ENDBRANCH   6   8
ENDBRANCH   4   6
ENDBRANCH   1   4
BRANCH   1   9
ATOM      9  O   LIG    1       24.904 -19.089   3.315  0.00  0.00    -0.475 OA
BRANCH   9  10
ATOM     10  C   LIG    1       24.984 -17.733   3.494  0.00  0.00    +0.122 A 
ATOM     11  C   LIG    1       26.099 -16.934   3.235  0.00  0.00    +0.047 A 
ATOM     12  C   LIG    1       26.070 -15.559   3.495  0.00  0.00    +0.023 A 
ATOM     13  C   LIG    1       24.910 -14.969   3.987  0.00  0.00    +0.041 A 
ATOM     14 CL   LIG    1       24.883 -13.279   4.305  0.00  0.00    -0.084 Cl
ATOM     15  C   LIG    1       23.777 -15.743   4.214  0.00  0.00    +0.023 A 
ATOM     16  C   LIG    1       23.815 -17.122   3.964  0.00  0.00    +0.047 A 
ENDBRANCH   9  10
ENDBRANCH   1   9
TORSDOF 5
ENDMDL
MODEL 8
REMARK VINA RESULT:      -3.4      3.717      5.775
REMARK  Name = *****
REMARK                            x       y       z     vdW  Elec       q    Type
REMARK                         _______ _______ _______ _____ _____    ______ ____
ROOT
ATOM      1  C   LIG    1       24.868 -14.552   3.784  0.00  0.00    +0.201 C 
ATOM      2  C   LIG    1       24.402 -13.669   2.614  0.00  0.00    +0.067 C 
ATOM      3  C   LIG    1       23.638 -14.698   4.717  0.00  0.00    +0.067 C 
ENDROOT
BRANCH   1   4
ATOM      4  C   LIG    1       25.937 -13.882   4.682  0.00  0.00    +0.351 C 
ATOM      5  O   LIG    1       25.737 -12.945   5.434  0.00  0.00    -0.246 OA
BRANCH   4   6
ATOM      6  O   LIG    1       27.167 -14.420   4.421  0.00  0.00    -0.462 OA
BRANCH   6   8
ATOM      7  C   LIG    1       28.806 -12.733   4.060  0.00  0.00    +0.048 C 
ATOM      8  C   LIG    1       27.923 -13.774   3.393  0.00  0.00    +0.229 C 
ENDBRANCH   6   8
ENDBRANCH   4   6
ENDBRANCH   1   4
BRANCH   1   9
ATOM      9  O   LIG    1       25.191 -15.878   3.338  0.00  0.00    -0.475 OA
BRANCH   9  10
ATOM     10  C   LIG    1       24.394 -16.932   3.701  0.00  0.00    +0.122 A 
ATOM     11  C   LIG    1       23.081 -16.848   4.167  0.00  0.00    +0.047 A 
ATOM     12  C   LIG    1       22.380 -17.999   4.544  0.00  0.00    +0.023 A 
ATOM     13  C   LIG    1       22.981 -19.249   4.426  0.00  0.00    +0.041 A 
ATOM     14 CL   LIG    1       22.113 -20.658   4.892  0.00  0.00    -0.084 Cl
ATOM     15  C   LIG    1       24.274 -19.355   3.926  0.00  0.00    +0.023 A 
ATOM     16  C   LIG    1       24.976 -18.198   3.562  0.00  0.00    +0.047 A 
ENDBRANCH   9  10
ENDBRANCH   1   9
TORSDOF 5
ENDMDL
MODEL 9
REMARK VINA RESULT:      -3.1      2.913      4.775
REMARK  Name = *****
REMARK                            x       y       z     vdW  Elec       q    Type
REMARK                         _______ _______ _______ _____ _____    ______ ____
ROOT
ATOM      1  C   LIG    1       26.455 -15.201   3.409  0.00  0.00    +0.201 C 
ATOM      2  C   LIG    1       27.761 -15.472   4.175  0.00  0.00    +0.067 C 
ATOM      3  C   LIG    1       26.828 -14.205   2.282  0.00  0.00    +0.067 C 
ENDROOT
BRANCH   1   4
ATOM      4  C   LIG    1       25.393 -14.440   4.240  0.00  0.00    +0.351 C 
ATOM      5  O   LIG    1       25.623 -13.764   5.227  0.00  0.00    -0.246 OA
BRANCH   4   6
ATOM      6  O   LIG    1       24.141 -14.732   3.772  0.00  0.00    -0.462 OA
BRANCH   6   8
ATOM      7  C   LIG    1       22.476 -16.081   4.808  0.00  0.00    +0.048 C 
ATOM      8  C   LIG    1       23.090 -14.693   4.741  0.00  0.00    +0.229 C 
ENDBRANCH   6   8
ENDBRANCH   4   6
ENDBRANCH   1   4
BRANCH   1   9
ATOM      9  O   LIG    1       25.981 -16.387   2.753  0.00  0.00    -0.475 OA
BRANCH   9  10
ATOM     10  C   LIG    1       25.942 -17.575   3.437  0.00  0.00    +0.122 A 
ATOM     11  C   LIG    1       27.005 -18.163   4.123  0.00  0.00    +0.047 A 
ATOM     12  C   LIG    1       26.850 -19.403   4.754  0.00  0.00    +0.023 A 
ATOM     13  C   LIG    1       25.617 -20.047   4.728  0.00  0.00    +0.041 A 
ATOM     14 CL   LIG    1       25.435 -21.571   5.505  0.00  0.00    -0.084 Cl
ATOM     15  C   LIG    1       24.536 -19.456   4.082  0.00  0.00    +0.023 A 
ATOM     16  C   LIG    1       24.699 -18.220   3.442  0.00  0.00    +0.047 A 
ENDBRANCH   9  10
ENDBRANCH   1   9
TORSDOF 5
ENDMDL
