MODEL 1
REMARK VINA RESULT:      20.2      0.000      0.000
REMARK  Name = *****
REMARK                            x       y       z     vdW  Elec       q    Type
REMARK                         _______ _______ _______ _____ _____    ______ ____
ROOT
ATOM      1  C   LIG    1       22.569 -16.662   4.930  0.00  0.00    +0.239 C 
ATOM      2  N   LIG    1       22.559 -15.578   5.794  0.00  0.00    -0.300 N 
ATOM      3  H   LIG    1       22.472 -15.784   6.787  0.00  0.00    +0.150 HD
ATOM      4  O   LIG    1       22.729 -16.519   3.720  0.00  0.00    -0.273 OA
ENDROOT
BRANCH   2   5
ATOM      5  CA  LIG    1       22.748 -14.166   5.333  0.00  0.00    +0.191 C 
ATOM      6  C   LIG    1       24.020 -13.400   5.813  0.00  0.00    +0.169 C 
ATOM      7  N   LIG    1       24.440 -13.329   4.428  0.00  0.00    -0.249 N 
ATOM      8  CA  LIG    1       25.684 -12.982   3.968  0.00  0.00    +0.123 C 
ATOM      9  C   LIG    1       26.709 -12.844   4.861  0.00  0.00    -0.021 C 
ATOM     10  C   LIG    1       26.558 -13.129   6.353  0.00  0.00    +0.104 C 
ATOM     11  S   LIG    1       25.256 -14.327   6.744  0.00  0.00    -0.131 S 
ATOM     12  C   LIG    1       23.305 -13.878   3.897  0.00  0.00    +0.244 C 
ATOM     13  O   LIG    1       22.925 -14.091   2.786  0.00  0.00    -0.273 OA
BRANCH   8  14
ATOM     14  C   LIG    1       25.795 -12.761   2.479  0.00  0.00    +0.351 C 
ATOM     15  O   LIG    1       25.245 -11.905   1.814  0.00  0.00    -0.244 OA
BRANCH  14  16
ATOM     16  OXT LIG    1       26.650 -13.564   1.829  0.00  0.00    -0.476 OA
ATOM     17  HXT LIG    1       27.454 -13.443   2.381  0.00  0.00    +0.295 HD
ENDBRANCH  14  16
ENDBRANCH   8  14
BRANCH   9  18
ATOM     18  C   LIG    1       28.142 -12.464   4.523  0.00  0.00    +0.111 C 
BRANCH  18  19
ATOM     19  S   LIG    1       29.178 -13.960   4.427  0.00  0.00    -0.080 S 
BRANCH  19  20
ATOM     20  C   LIG    1       27.975 -15.089   3.918  0.00  0.00    +0.209 C 
ATOM     21  N   LIG    1       27.904 -16.391   4.316  0.00  0.00    -0.223 NA
ATOM     22  C   LIG    1       28.678 -17.117   5.280  0.00  0.00    +0.177 C 
ATOM     23  N   LIG    1       26.909 -17.006   3.652  0.00  0.00    -0.043 NA
ATOM     24  N   LIG    1       26.363 -16.064   2.895  0.00  0.00    -0.022 NA
ATOM     25  N   LIG    1       27.015 -14.861   3.051  0.00  0.00    -0.102 NA
ENDBRANCH  19  20
ENDBRANCH  18  19
ENDBRANCH   9  18
ENDBRANCH   2   5
BRANCH   1  26
ATOM     26  CA  LIG    1       22.338 -18.056   5.592  0.00  0.00    +0.190 C 
BRANCH  26  27
ATOM     27  C   LIG    1       21.438 -18.934   4.722  0.00  0.00    -0.018 C 
ATOM     28  C   LIG    1       20.608 -18.374   3.738  0.00  0.00    +0.009 C 
ATOM     29  C   LIG    1       19.883 -19.197   2.869  0.00  0.00    +0.045 C 
ATOM     30  C   LIG    1       20.003 -20.578   2.961  0.00  0.00    +0.117 C 
ATOM     31  C   LIG    1       20.781 -21.158   3.953  0.00  0.00    +0.045 C 
ATOM     32  C   LIG    1       21.482 -20.338   4.839  0.00  0.00    +0.009 C 
BRANCH  30  33
ATOM     33  O   LIG    1       19.350 -21.344   2.040  0.00  0.00    -0.507 OA
ATOM     34  H   LIG    1       18.585 -21.753   2.478  0.00  0.00    +0.292 HD
ENDBRANCH  30  33
ENDBRANCH  26  27
BRANCH  26  36
ATOM     35  C   LIG    1       24.473 -19.139   4.846  0.00  0.00    +0.250 C 
ATOM     36  N   LIG    1       23.619 -18.722   5.829  0.00  0.00    -0.296 N 
ATOM     37  H   LIG    1       23.802 -19.036   6.781  0.00  0.00    +0.150 HD
ATOM     38  O   LIG    1       24.241 -18.954   3.653  0.00  0.00    -0.270 OA
BRANCH  35  44
ATOM     39  C   LIG    1       29.472 -21.346   6.897  0.00  0.00    +0.063 C 
ATOM     40  C   LIG    1       28.129 -20.953   6.348  0.00  0.00    +0.017 C 
ATOM     41  N   LIG    1       28.095 -20.007   5.345  0.00  0.00    -0.364 NA
ATOM     42  H   LIG    1       28.968 -19.560   5.076  0.00  0.00    +0.165 HD
ATOM     43  C   LIG    1       26.915 -19.472   4.883  0.00  0.00    +0.099 C 
ATOM     44  C   LIG    1       25.700 -19.846   5.322  0.00  0.00    +0.099 C 
ATOM     45  C   LIG    1       25.686 -20.962   6.317  0.00  0.00    +0.194 C 
ATOM     46  O   LIG    1       24.633 -21.432   6.746  0.00  0.00    -0.287 OA
ATOM     47  C   LIG    1       26.989 -21.482   6.823  0.00  0.00    +0.072 C 
ENDBRANCH  35  44
ENDBRANCH  26  36
ENDBRANCH   1  26
TORSDOF 11
ENDMDL
