MODEL 1
REMARK VINA RESULT:      -7.7      0.000      0.000
REMARK  Name = *****
REMARK                            x       y       z     vdW  Elec       q    Type
REMARK                         _______ _______ _______ _____ _____    ______ ____
ROOT
ATOM      1  C   LIG    1       25.405 -24.210   6.640  0.00  0.00    +0.162 C 
ENDROOT
BRANCH   1   7
ATOM      2  C   LIG    1       25.634 -18.671   3.539  0.00  0.00    +0.007 C 
ATOM      3  C   LIG    1       25.164 -20.014   4.080  0.00  0.00    -0.010 C 
ATOM      4  C   LIG    1       24.502 -19.988   5.455  0.00  0.00    +0.037 C 
ATOM      5  C   LIG    1       23.762 -21.330   5.774  0.00  0.00    +0.185 C 
ATOM      6  N   LIG    1       24.304 -22.435   4.936  0.00  0.00    -0.287 N 
ATOM      7  C   LIG    1       24.919 -23.646   5.236  0.00  0.00    +0.235 C 
ATOM      8  O   LIG    1       25.046 -24.442   4.281  0.00  0.00    -0.274 OA
ATOM      9  C   LIG    1       23.958 -22.116   3.511  0.00  0.00    +0.109 C 
ATOM     10  C   LIG    1       24.071 -20.598   3.197  0.00  0.00    +0.022 C 
BRANCH   5  11
ATOM     11  C   LIG    1       23.384 -21.162   7.297  0.00  0.00    +0.326 C 
ATOM     12  O   LIG    1       23.683 -20.308   7.995  0.00  0.00    -0.249 OA
BRANCH  11  13
ATOM     13  O   LIG    1       22.639 -22.292   7.651  0.00  0.00    -0.479 OA
ATOM     14  H   LIG    1       22.005 -21.862   8.281  0.00  0.00    +0.295 HD
ENDBRANCH  11  13
ENDBRANCH   5  11
ENDBRANCH   1   7
BRANCH   1  15
ATOM     15  N   LIG    1       25.994 -25.571   6.717  0.00  0.00    -0.178 NA
ATOM     16  H   LIG    1       26.556 -25.794   7.538  0.00  0.00    +0.149 HD
BRANCH  15  17
ATOM     17  S   LIG    1       25.312 -27.002   6.173  0.00  0.00    +0.061 S 
ATOM     18  O   LIG    1       25.874 -27.308   4.876  0.00  0.00    -0.153 OA
ATOM     19  O   LIG    1       23.885 -26.779   6.318  0.00  0.00    -0.153 OA
BRANCH  17  20
ATOM     20  C   LIG    1       25.779 -28.166   7.418  0.00  0.00    +0.126 A 
ATOM     21  C   LIG    1       25.643 -29.543   7.209  0.00  0.00    +0.057 A 
ATOM     22  N   LIG    1       25.021 -30.051   6.053  0.00  0.00    -0.342 N 
ATOM     23  H   LIG    1       25.173 -29.437   5.243  0.00  0.00    +0.146 HD
ATOM     24  C   LIG    1       25.303 -31.435   5.739  0.00  0.00    +0.105 C 
ATOM     25  C   LIG    1       24.944 -32.294   6.946  0.00  0.00    +0.007 C 
ATOM     26  C   LIG    1       23.483 -32.111   7.386  0.00  0.00    +0.009 C 
ATOM     27  C   LIG    1       25.922 -31.916   8.064  0.00  0.00    +0.041 C 
ATOM     28  C   LIG    1       26.022 -30.418   8.253  0.00  0.00    -0.024 A 
ATOM     29  C   LIG    1       26.567 -29.911   9.442  0.00  0.00    +0.005 A 
ATOM     30  C   LIG    1       26.708 -28.537   9.624  0.00  0.00    +0.002 A 
ATOM     31  C   LIG    1       26.311 -27.662   8.616  0.00  0.00    +0.030 A 
ENDBRANCH  17  20
ENDBRANCH  15  17
ENDBRANCH   1  15
BRANCH   1  32
ATOM     32  C   LIG    1       26.240 -23.388   7.663  0.00  0.00    +0.033 C 
BRANCH  32  33
ATOM     33  C   LIG    1       27.028 -22.087   7.179  0.00  0.00    +0.039 C 
BRANCH  33  34
ATOM     34  C   LIG    1       28.152 -21.472   8.132  0.00  0.00    +0.196 C 
BRANCH  34  35
ATOM     35  N   LIG    1       29.567 -21.673   7.934  0.00  0.00    -0.276 N 
ATOM     36  H   LIG    1       29.814 -22.069   7.026  0.00  0.00    +0.258 HD
BRANCH  35  37
ATOM     37  C   LIG    1       30.657 -21.433   8.663  0.00  0.00    +0.376 C 
ATOM     38  N   LIG    1       30.804 -22.051   9.774  0.00  0.00    -0.130 NA
ATOM     39  H   LIG    1       31.660 -21.746  10.234  0.00  0.00    +0.306 HD
BRANCH  37  40
ATOM     40  N   LIG    1       31.477 -20.540   8.115  0.00  0.00    -0.289 N 
ATOM     41  H   LIG    1       31.640 -20.421   7.130  0.00  0.00    +0.255 HD
ATOM     42  H   LIG    1       31.545 -19.708   8.657  0.00  0.00    +0.255 HD
ENDBRANCH  37  40
ENDBRANCH  35  37
ENDBRANCH  34  35
ENDBRANCH  33  34
ENDBRANCH  32  33
ENDBRANCH   1  32
TORSDOF 12
ENDMDL
MODEL 2
REMARK VINA RESULT:      -7.6      6.403      9.838
REMARK  Name = *****
REMARK                            x       y       z     vdW  Elec       q    Type
REMARK                         _______ _______ _______ _____ _____    ______ ____
ROOT
ATOM      1  C   LIG    1       24.095 -31.359  11.357  0.00  0.00    +0.162 C 
ENDROOT
BRANCH   1   7
ATOM      2  C   LIG    1       27.022 -26.051  13.255  0.00  0.00    +0.007 C 
ATOM      3  C   LIG    1       26.751 -27.489  12.835  0.00  0.00    -0.010 C 
ATOM      4  C   LIG    1       26.758 -27.760  11.333  0.00  0.00    +0.037 C 
ATOM      5  C   LIG    1       26.807 -29.292  11.015  0.00  0.00    +0.185 C 
ATOM      6  N   LIG    1       26.321 -30.081  12.181  0.00  0.00    -0.287 N 
ATOM      7  C   LIG    1       25.272 -30.977  12.354  0.00  0.00    +0.235 C 
ATOM      8  O   LIG    1       25.289 -31.634  13.417  0.00  0.00    -0.274 OA
ATOM      9  C   LIG    1       27.305 -29.872  13.294  0.00  0.00    +0.109 C 
ATOM     10  C   LIG    1       27.845 -28.415  13.345  0.00  0.00    +0.022 C 
BRANCH   5  11
ATOM     11  C   LIG    1       26.560 -29.329   9.457  0.00  0.00    +0.326 C 
ATOM     12  O   LIG    1       25.929 -28.604   8.838  0.00  0.00    -0.249 OA
BRANCH  11  13
ATOM     13  O   LIG    1       27.233 -30.455   8.972  0.00  0.00    -0.479 OA
ATOM     14  H   LIG    1       27.909 -29.996   8.410  0.00  0.00    +0.295 HD
ENDBRANCH  11  13
ENDBRANCH   5  11
ENDBRANCH   1   7
BRANCH   1  15
ATOM     15  N   LIG    1       22.998 -30.389  11.112  0.00  0.00    -0.178 NA
ATOM     16  H   LIG    1       22.782 -30.158  10.144  0.00  0.00    +0.149 HD
BRANCH  15  17
ATOM     17  S   LIG    1       21.585 -30.216  11.996  0.00  0.00    +0.061 S 
ATOM     18  O   LIG    1       21.443 -31.369  12.857  0.00  0.00    -0.153 OA
ATOM     19  O   LIG    1       20.581 -29.929  10.987  0.00  0.00    -0.153 OA
BRANCH  17  20
ATOM     20  C   LIG    1       21.855 -28.717  12.892  0.00  0.00    +0.126 A 
ATOM     21  C   LIG    1       20.873 -28.195  13.742  0.00  0.00    +0.057 A 
ATOM     22  N   LIG    1       19.593 -28.773  13.825  0.00  0.00    -0.342 N 
ATOM     23  H   LIG    1       19.627 -29.789  13.670  0.00  0.00    +0.146 HD
ATOM     24  C   LIG    1       18.822 -28.437  15.002  0.00  0.00    +0.105 C 
ATOM     25  C   LIG    1       18.718 -26.918  15.101  0.00  0.00    +0.007 C 
ATOM     26  C   LIG    1       18.109 -26.286  13.839  0.00  0.00    +0.009 C 
ATOM     27  C   LIG    1       20.132 -26.394  15.370  0.00  0.00    +0.041 C 
ATOM     28  C   LIG    1       21.150 -26.984  14.417  0.00  0.00    -0.024 A 
ATOM     29  C   LIG    1       22.397 -26.359  14.273  0.00  0.00    +0.005 A 
ATOM     30  C   LIG    1       23.366 -26.904  13.434  0.00  0.00    +0.002 A 
ATOM     31  C   LIG    1       23.097 -28.080  12.739  0.00  0.00    +0.030 A 
ENDBRANCH  17  20
ENDBRANCH  15  17
ENDBRANCH   1  15
BRANCH   1  32
ATOM     32  C   LIG    1       24.318 -32.022   9.967  0.00  0.00    +0.033 C 
BRANCH  32  33
ATOM     33  C   LIG    1       23.593 -31.421   8.678  0.00  0.00    +0.039 C 
BRANCH  33  34
ATOM     34  C   LIG    1       24.272 -31.630   7.248  0.00  0.00    +0.196 C 
BRANCH  34  35
ATOM     35  N   LIG    1       24.985 -30.593   6.542  0.00  0.00    -0.276 N 
ATOM     36  H   LIG    1       25.998 -30.715   6.521  0.00  0.00    +0.258 HD
BRANCH  35  37
ATOM     37  C   LIG    1       24.622 -29.500   5.870  0.00  0.00    +0.376 C 
ATOM     38  N   LIG    1       23.420 -29.412   5.439  0.00  0.00    -0.130 NA
ATOM     39  H   LIG    1       23.295 -28.545   4.920  0.00  0.00    +0.306 HD
BRANCH  37  40
ATOM     40  N   LIG    1       25.603 -28.613   5.726  0.00  0.00    -0.289 N 
ATOM     41  H   LIG    1       26.583 -28.829   5.656  0.00  0.00    +0.255 HD
ATOM     42  H   LIG    1       25.312 -27.807   5.221  0.00  0.00    +0.255 HD
ENDBRANCH  37  40
ENDBRANCH  35  37
ENDBRANCH  34  35
ENDBRANCH  33  34
ENDBRANCH  32  33
ENDBRANCH   1  32
TORSDOF 12
ENDMDL
MODEL 3
REMARK VINA RESULT:      -7.2      6.828     10.164
REMARK  Name = *****
REMARK                            x       y       z     vdW  Elec       q    Type
REMARK                         _______ _______ _______ _____ _____    ______ ____
ROOT
ATOM      1  C   LIG    1       23.785 -31.251   9.912  0.00  0.00    +0.162 C 
ENDROOT
BRANCH   1   7
ATOM      2  C   LIG    1       27.621 -33.273   5.269  0.00  0.00    +0.007 C 
ATOM      3  C   LIG    1       26.380 -32.947   6.089  0.00  0.00    -0.010 C 
ATOM      4  C   LIG    1       25.832 -31.530   5.940  0.00  0.00    +0.037 C 
ATOM      5  C   LIG    1       24.394 -31.392   6.542  0.00  0.00    +0.185 C 
ATOM      6  N   LIG    1       24.140 -32.473   7.535  0.00  0.00    -0.287 N 
ATOM      7  C   LIG    1       23.828 -32.468   8.890  0.00  0.00    +0.235 C 
ATOM      8  O   LIG    1       23.457 -33.563   9.366  0.00  0.00    -0.274 OA
ATOM      9  C   LIG    1       24.135 -33.771   6.781  0.00  0.00    +0.109 C 
ATOM     10  C   LIG    1       25.204 -33.806   5.652  0.00  0.00    +0.022 C 
BRANCH   5  11
ATOM     11  C   LIG    1       24.148 -29.835   6.496  0.00  0.00    +0.326 C 
ATOM     12  O   LIG    1       24.593 -29.042   7.190  0.00  0.00    -0.249 OA
BRANCH  11  13
ATOM     13  O   LIG    1       23.237 -29.603   5.460  0.00  0.00    -0.479 OA
ATOM     14  H   LIG    1       22.611 -30.350   5.641  0.00  0.00    +0.295 HD
ENDBRANCH  11  13
ENDBRANCH   5  11
ENDBRANCH   1   7
BRANCH   1  15
ATOM     15  N   LIG    1       24.952 -30.339  10.012  0.00  0.00    -0.178 NA
ATOM     16  H   LIG    1       24.810 -29.364   9.751  0.00  0.00    +0.149 HD
BRANCH  15  17
ATOM     17  S   LIG    1       26.170 -30.376  11.163  0.00  0.00    +0.061 S 
ATOM     18  O   LIG    1       27.436 -30.519  10.479  0.00  0.00    -0.153 OA
ATOM     19  O   LIG    1       25.727 -31.392  12.101  0.00  0.00    -0.153 OA
BRANCH  17  20
ATOM     20  C   LIG    1       25.999 -28.816  11.976  0.00  0.00    +0.126 A 
ATOM     21  C   LIG    1       24.928 -28.565  12.841  0.00  0.00    +0.057 A 
ATOM     22  N   LIG    1       23.884 -29.494  13.004  0.00  0.00    -0.342 N 
ATOM     23  H   LIG    1       24.219 -30.460  12.895  0.00  0.00    +0.146 HD
ATOM     24  C   LIG    1       23.079 -29.337  14.196  0.00  0.00    +0.105 C 
ATOM     25  C   LIG    1       22.524 -27.917  14.229  0.00  0.00    +0.007 C 
ATOM     26  C   LIG    1       21.721 -27.569  12.965  0.00  0.00    +0.009 C 
ATOM     27  C   LIG    1       23.722 -26.978  14.413  0.00  0.00    +0.041 C 
ATOM     28  C   LIG    1       24.845 -27.290  13.446  0.00  0.00    -0.024 A 
ATOM     29  C   LIG    1       25.841 -26.329  13.221  0.00  0.00    +0.005 A 
ATOM     30  C   LIG    1       26.907 -26.606  12.368  0.00  0.00    +0.002 A 
ATOM     31  C   LIG    1       26.987 -27.846  11.741  0.00  0.00    +0.030 A 
ENDBRANCH  17  20
ENDBRANCH  15  17
ENDBRANCH   1  15
BRANCH   1  32
ATOM     32  C   LIG    1       22.562 -30.307  10.084  0.00  0.00    +0.033 C 
BRANCH  32  33
ATOM     33  C   LIG    1       21.284 -30.806  10.900  0.00  0.00    +0.039 C 
BRANCH  33  34
ATOM     34  C   LIG    1       20.297 -31.857  10.214  0.00  0.00    +0.196 C 
BRANCH  34  35
ATOM     35  N   LIG    1       18.886 -31.939  10.507  0.00  0.00    -0.276 N 
ATOM     36  H   LIG    1       18.591 -32.826  10.917  0.00  0.00    +0.258 HD
BRANCH  35  37
ATOM     37  C   LIG    1       17.857 -31.099  10.394  0.00  0.00    +0.376 C 
ATOM     38  N   LIG    1       17.658 -30.516   9.272  0.00  0.00    -0.130 NA
ATOM     39  H   LIG    1       16.863 -29.884   9.341  0.00  0.00    +0.306 HD
BRANCH  37  40
ATOM     40  N   LIG    1       17.149 -30.971  11.513  0.00  0.00    -0.289 N 
ATOM     41  H   LIG    1       16.541 -30.202  11.737  0.00  0.00    +0.255 HD
ATOM     42  H   LIG    1       16.872 -31.850  11.887  0.00  0.00    +0.255 HD
ENDBRANCH  37  40
ENDBRANCH  35  37
ENDBRANCH  34  35
ENDBRANCH  33  34
ENDBRANCH  32  33
ENDBRANCH   1  32
TORSDOF 12
ENDMDL
MODEL 4
REMARK VINA RESULT:      -7.1      5.027      9.178
REMARK  Name = *****
REMARK                            x       y       z     vdW  Elec       q    Type
REMARK                         _______ _______ _______ _____ _____    ______ ____
ROOT
ATOM      1  C   LIG    1       24.510 -30.458   9.464  0.00  0.00    +0.162 C 
ENDROOT
BRANCH   1   7
ATOM      2  C   LIG    1       23.957 -25.195   5.951  0.00  0.00    +0.007 C 
ATOM      3  C   LIG    1       24.516 -26.446   6.613  0.00  0.00    -0.010 C 
ATOM      4  C   LIG    1       24.236 -27.765   5.898  0.00  0.00    +0.037 C 
ATOM      5  C   LIG    1       25.116 -28.932   6.455  0.00  0.00    +0.185 C 
ATOM      6  N   LIG    1       25.597 -28.611   7.828  0.00  0.00    -0.287 N 
ATOM      7  C   LIG    1       25.434 -29.229   9.064  0.00  0.00    +0.235 C 
ATOM      8  O   LIG    1       26.170 -28.808   9.982  0.00  0.00    -0.274 OA
ATOM      9  C   LIG    1       26.522 -27.435   7.706  0.00  0.00    +0.109 C 
ATOM     10  C   LIG    1       26.037 -26.404   6.649  0.00  0.00    +0.022 C 
BRANCH   5  11
ATOM     11  C   LIG    1       24.491 -30.201   5.757  0.00  0.00    +0.326 C 
ATOM     12  O   LIG    1       25.028 -31.168   5.467  0.00  0.00    -0.249 OA
BRANCH  11  13
ATOM     13  O   LIG    1       23.146 -29.903   5.515  0.00  0.00    -0.479 OA
ATOM     14  H   LIG    1       22.899 -29.578   6.419  0.00  0.00    +0.295 HD
ENDBRANCH  11  13
ENDBRANCH   5  11
ENDBRANCH   1   7
BRANCH   1  15
ATOM     15  N   LIG    1       23.494 -30.293  10.533  0.00  0.00    -0.178 NA
ATOM     16  H   LIG    1       22.560 -30.660  10.356  0.00  0.00    +0.149 HD
BRANCH  15  17
ATOM     17  S   LIG    1       23.749 -30.352  12.189  0.00  0.00    +0.061 S 
ATOM     18  O   LIG    1       25.135 -30.692  12.424  0.00  0.00    -0.153 OA
ATOM     19  O   LIG    1       22.691 -31.223  12.669  0.00  0.00    -0.153 OA
BRANCH  17  20
ATOM     20  C   LIG    1       23.344 -28.714  12.714  0.00  0.00    +0.126 A 
ATOM     21  C   LIG    1       24.344 -27.780  13.007  0.00  0.00    +0.057 A 
ATOM     22  N   LIG    1       25.704 -28.140  13.011  0.00  0.00    -0.342 N 
ATOM     23  H   LIG    1       25.900 -28.880  12.325  0.00  0.00    +0.146 HD
ATOM     24  C   LIG    1       26.648 -27.047  12.906  0.00  0.00    +0.105 C 
ATOM     25  C   LIG    1       26.367 -26.049  14.024  0.00  0.00    +0.007 C 
ATOM     26  C   LIG    1       26.419 -26.696  15.417  0.00  0.00    +0.009 C 
ATOM     27  C   LIG    1       24.992 -25.437  13.736  0.00  0.00    +0.041 C 
ATOM     28  C   LIG    1       23.949 -26.492  13.437  0.00  0.00    -0.024 A 
ATOM     29  C   LIG    1       22.590 -26.154  13.514  0.00  0.00    +0.005 A 
ATOM     30  C   LIG    1       21.611 -27.094  13.203  0.00  0.00    +0.002 A 
ATOM     31  C   LIG    1       21.984 -28.376  12.808  0.00  0.00    +0.030 A 
ENDBRANCH  17  20
ENDBRANCH  15  17
ENDBRANCH   1  15
BRANCH   1  32
ATOM     32  C   LIG    1       23.811 -31.389   8.432  0.00  0.00    +0.033 C 
BRANCH  32  33
ATOM     33  C   LIG    1       23.292 -32.828   8.888  0.00  0.00    +0.039 C 
BRANCH  33  34
ATOM     34  C   LIG    1       21.746 -33.009   9.245  0.00  0.00    +0.196 C 
BRANCH  34  35
ATOM     35  N   LIG    1       21.128 -32.458  10.427  0.00  0.00    -0.276 N 
ATOM     36  H   LIG    1       21.677 -32.566  11.280  0.00  0.00    +0.258 HD
BRANCH  35  37
ATOM     37  C   LIG    1       19.993 -31.800  10.668  0.00  0.00    +0.376 C 
ATOM     38  N   LIG    1       19.879 -30.595  10.253  0.00  0.00    -0.130 NA
ATOM     39  H   LIG    1       18.980 -30.210  10.535  0.00  0.00    +0.306 HD
BRANCH  37  40
ATOM     40  N   LIG    1       19.097 -32.515  11.343  0.00  0.00    -0.289 N 
ATOM     41  H   LIG    1       18.099 -32.445  11.247  0.00  0.00    +0.255 HD
ATOM     42  H   LIG    1       19.435 -33.423  11.574  0.00  0.00    +0.255 HD
ENDBRANCH  37  40
ENDBRANCH  35  37
ENDBRANCH  34  35
ENDBRANCH  33  34
ENDBRANCH  32  33
ENDBRANCH   1  32
TORSDOF 12
ENDMDL
MODEL 5
REMARK VINA RESULT:      -7.1      4.554      8.730
REMARK  Name = *****
REMARK                            x       y       z     vdW  Elec       q    Type
REMARK                         _______ _______ _______ _____ _____    ______ ____
ROOT
ATOM      1  C   LIG    1       24.470 -30.565   7.426  0.00  0.00    +0.162 C 
ENDROOT
BRANCH   1   7
ATOM      2  C   LIG    1       27.122 -33.099   2.239  0.00  0.00    +0.007 C 
ATOM      3  C   LIG    1       26.615 -32.899   3.661  0.00  0.00    -0.010 C 
ATOM      4  C   LIG    1       25.148 -33.244   3.903  0.00  0.00    +0.037 C 
ATOM      5  C   LIG    1       24.811 -33.330   5.429  0.00  0.00    +0.185 C 
ATOM      6  N   LIG    1       25.814 -32.571   6.227  0.00  0.00    -0.287 N 
ATOM      7  C   LIG    1       25.720 -31.489   7.096  0.00  0.00    +0.235 C 
ATOM      8  O   LIG    1       26.742 -31.247   7.774  0.00  0.00    -0.274 OA
ATOM      9  C   LIG    1       27.129 -33.278   6.067  0.00  0.00    +0.109 C 
ATOM     10  C   LIG    1       27.338 -33.825   4.627  0.00  0.00    +0.022 C 
BRANCH   5  11
ATOM     11  C   LIG    1       23.238 -33.447   5.430  0.00  0.00    +0.326 C 
ATOM     12  O   LIG    1       22.544 -33.471   4.521  0.00  0.00    -0.249 OA
BRANCH  11  13
ATOM     13  O   LIG    1       22.838 -33.473   6.770  0.00  0.00    -0.479 OA
ATOM     14  H   LIG    1       22.618 -34.437   6.842  0.00  0.00    +0.295 HD
ENDBRANCH  11  13
ENDBRANCH   5  11
ENDBRANCH   1   7
BRANCH   1  15
ATOM     15  N   LIG    1       24.260 -30.086   8.815  0.00  0.00    -0.178 NA
ATOM     16  H   LIG    1       24.062 -29.095   8.946  0.00  0.00    +0.149 HD
BRANCH  15  17
ATOM     17  S   LIG    1       23.522 -30.914  10.072  0.00  0.00    +0.061 S 
ATOM     18  O   LIG    1       24.375 -32.020  10.450  0.00  0.00    -0.153 OA
ATOM     19  O   LIG    1       22.180 -31.162   9.578  0.00  0.00    -0.153 OA
BRANCH  17  20
ATOM     20  C   LIG    1       23.387 -29.686  11.335  0.00  0.00    +0.126 A 
ATOM     21  C   LIG    1       24.500 -28.941  11.742  0.00  0.00    +0.057 A 
ATOM     22  N   LIG    1       25.789 -29.221  11.252  0.00  0.00    -0.342 N 
ATOM     23  H   LIG    1       25.755 -29.579  10.288  0.00  0.00    +0.146 HD
ATOM     24  C   LIG    1       26.764 -28.162  11.396  0.00  0.00    +0.105 C 
ATOM     25  C   LIG    1       26.839 -27.764  12.866  0.00  0.00    +0.007 C 
ATOM     26  C   LIG    1       27.170 -28.953  13.782  0.00  0.00    +0.009 C 
ATOM     27  C   LIG    1       25.489 -27.133  13.224  0.00  0.00    +0.041 C 
ATOM     28  C   LIG    1       24.323 -27.985  12.769  0.00  0.00    -0.024 A 
ATOM     29  C   LIG    1       23.053 -27.760  13.320  0.00  0.00    +0.005 A 
ATOM     30  C   LIG    1       21.956 -28.502  12.889  0.00  0.00    +0.002 A 
ATOM     31  C   LIG    1       22.120 -29.468  11.901  0.00  0.00    +0.030 A 
ENDBRANCH  17  20
ENDBRANCH  15  17
ENDBRANCH   1  15
BRANCH   1  32
ATOM     32  C   LIG    1       24.028 -29.359   6.549  0.00  0.00    +0.033 C 
BRANCH  32  33
ATOM     33  C   LIG    1       24.944 -28.054   6.478  0.00  0.00    +0.039 C 
BRANCH  33  34
ATOM     34  C   LIG    1       24.407 -26.782   5.675  0.00  0.00    +0.196 C 
BRANCH  34  35
ATOM     35  N   LIG    1       24.351 -25.451   6.229  0.00  0.00    -0.276 N 
ATOM     36  H   LIG    1       23.658 -25.330   6.968  0.00  0.00    +0.258 HD
BRANCH  35  37
ATOM     37  C   LIG    1       25.028 -24.321   6.019  0.00  0.00    +0.376 C 
ATOM     38  N   LIG    1       25.816 -23.896   6.933  0.00  0.00    -0.130 NA
ATOM     39  H   LIG    1       26.237 -23.013   6.651  0.00  0.00    +0.306 HD
BRANCH  37  40
ATOM     40  N   LIG    1       24.776 -23.763   4.839  0.00  0.00    -0.289 N 
ATOM     41  H   LIG    1       24.954 -22.804   4.594  0.00  0.00    +0.255 HD
ATOM     42  H   LIG    1       24.861 -24.411   4.088  0.00  0.00    +0.255 HD
ENDBRANCH  37  40
ENDBRANCH  35  37
ENDBRANCH  34  35
ENDBRANCH  33  34
ENDBRANCH  32  33
ENDBRANCH   1  32
TORSDOF 12
ENDMDL
MODEL 6
REMARK VINA RESULT:      -7.0      4.807      8.686
REMARK  Name = *****
REMARK                            x       y       z     vdW  Elec       q    Type
REMARK                         _______ _______ _______ _____ _____    ______ ____
ROOT
ATOM      1  C   LIG    1       24.980 -30.010   9.399  0.00  0.00    +0.162 C 
ENDROOT
BRANCH   1   7
ATOM      2  C   LIG    1       23.811 -24.897   5.815  0.00  0.00    +0.007 C 
ATOM      3  C   LIG    1       24.489 -26.108   6.439  0.00  0.00    -0.010 C 
ATOM      4  C   LIG    1       24.156 -27.460   5.813  0.00  0.00    +0.037 C 
ATOM      5  C   LIG    1       25.137 -28.583   6.287  0.00  0.00    +0.185 C 
ATOM      6  N   LIG    1       25.786 -28.199   7.572  0.00  0.00    -0.287 N 
ATOM      7  C   LIG    1       25.806 -28.773   8.838  0.00  0.00    +0.235 C 
ATOM      8  O   LIG    1       26.644 -28.300   9.636  0.00  0.00    -0.274 OA
ATOM      9  C   LIG    1       26.651 -27.006   7.288  0.00  0.00    +0.109 C 
ATOM     10  C   LIG    1       25.999 -26.027   6.271  0.00  0.00    +0.022 C 
BRANCH   5  11
ATOM     11  C   LIG    1       24.463 -29.892   5.722  0.00  0.00    +0.326 C 
ATOM     12  O   LIG    1       24.964 -30.901   5.525  0.00  0.00    -0.249 OA
BRANCH  11  13
ATOM     13  O   LIG    1       23.126 -29.574   5.461  0.00  0.00    -0.479 OA
ATOM     14  H   LIG    1       23.228 -28.599   5.320  0.00  0.00    +0.295 HD
ENDBRANCH  11  13
ENDBRANCH   5  11
ENDBRANCH   1   7
BRANCH   1  15
ATOM     15  N   LIG    1       24.514 -29.999  10.809  0.00  0.00    -0.178 NA
ATOM     16  H   LIG    1       23.661 -30.513  11.026  0.00  0.00    +0.149 HD
BRANCH  15  17
ATOM     17  S   LIG    1       25.464 -30.000  12.190  0.00  0.00    +0.061 S 
ATOM     18  O   LIG    1       26.831 -30.267  11.800  0.00  0.00    -0.153 OA
ATOM     19  O   LIG    1       24.769 -30.908  13.085  0.00  0.00    -0.153 OA
BRANCH  17  20
ATOM     20  C   LIG    1       25.237 -28.370  12.832  0.00  0.00    +0.126 A 
ATOM     21  C   LIG    1       24.039 -27.998  13.455  0.00  0.00    +0.057 A 
ATOM     22  N   LIG    1       22.931 -28.864  13.488  0.00  0.00    -0.342 N 
ATOM     23  H   LIG    1       23.223 -29.849  13.520  0.00  0.00    +0.146 HD
ATOM     24  C   LIG    1       21.928 -28.570  14.489  0.00  0.00    +0.105 C 
ATOM     25  C   LIG    1       21.462 -27.130  14.305  0.00  0.00    +0.007 C 
ATOM     26  C   LIG    1       20.929 -26.859  12.889  0.00  0.00    +0.009 C 
ATOM     27  C   LIG    1       22.656 -26.231  14.641  0.00  0.00    +0.041 C 
ATOM     28  C   LIG    1       23.919 -26.673  13.933  0.00  0.00    -0.024 A 
ATOM     29  C   LIG    1       24.995 -25.779  13.828  0.00  0.00    +0.005 A 
ATOM     30  C   LIG    1       26.183 -26.175  13.218  0.00  0.00    +0.002 A 
ATOM     31  C   LIG    1       26.306 -27.467  12.715  0.00  0.00    +0.030 A 
ENDBRANCH  17  20
ENDBRANCH  15  17
ENDBRANCH   1  15
BRANCH   1  32
ATOM     32  C   LIG    1       23.815 -30.695   8.631  0.00  0.00    +0.033 C 
BRANCH  32  33
ATOM     33  C   LIG    1       23.633 -32.279   8.716  0.00  0.00    +0.039 C 
BRANCH  33  34
ATOM     34  C   LIG    1       22.337 -32.864   9.442  0.00  0.00    +0.196 C 
BRANCH  34  35
ATOM     35  N   LIG    1       21.254 -32.044   9.929  0.00  0.00    -0.276 N 
ATOM     36  H   LIG    1       20.390 -32.122   9.390  0.00  0.00    +0.258 HD
BRANCH  35  37
ATOM     37  C   LIG    1       21.101 -31.210  10.958  0.00  0.00    +0.376 C 
ATOM     38  N   LIG    1       21.900 -31.306  11.952  0.00  0.00    -0.130 NA
ATOM     39  H   LIG    1       21.647 -30.632  12.673  0.00  0.00    +0.306 HD
BRANCH  37  40
ATOM     40  N   LIG    1       20.091 -30.358  10.806  0.00  0.00    -0.289 N 
ATOM     41  H   LIG    1       19.999 -29.684  10.066  0.00  0.00    +0.255 HD
ATOM     42  H   LIG    1       19.233 -30.725  11.150  0.00  0.00    +0.255 HD
ENDBRANCH  37  40
ENDBRANCH  35  37
ENDBRANCH  34  35
ENDBRANCH  33  34
ENDBRANCH  32  33
ENDBRANCH   1  32
TORSDOF 12
ENDMDL
MODEL 7
REMARK VINA RESULT:      -7.0      3.141      9.472
REMARK  Name = *****
REMARK                            x       y       z     vdW  Elec       q    Type
REMARK                         _______ _______ _______ _____ _____    ______ ____
ROOT
ATOM      1  C   LIG    1       24.567 -27.714   6.868  0.00  0.00    +0.162 C 
ENDROOT
BRANCH   1   7
ATOM      2  C   LIG    1       27.669 -32.983   8.591  0.00  0.00    +0.007 C 
ATOM      3  C   LIG    1       26.952 -31.640   8.632  0.00  0.00    -0.010 C 
ATOM      4  C   LIG    1       25.430 -31.696   8.723  0.00  0.00    +0.037 C 
ATOM      5  C   LIG    1       24.814 -30.306   9.095  0.00  0.00    +0.185 C 
ATOM      6  N   LIG    1       25.766 -29.210   8.763  0.00  0.00    -0.287 N 
ATOM      7  C   LIG    1       25.691 -28.106   7.920  0.00  0.00    +0.235 C 
ATOM      8  O   LIG    1       26.600 -27.258   8.054  0.00  0.00    -0.274 OA
ATOM      9  C   LIG    1       26.957 -29.374   9.662  0.00  0.00    +0.109 C 
ATOM     10  C   LIG    1       27.332 -30.866   9.886  0.00  0.00    +0.022 C 
BRANCH   5  11
ATOM     11  C   LIG    1       23.268 -30.547   8.890  0.00  0.00    +0.326 C 
ATOM     12  O   LIG    1       22.418 -30.216   9.579  0.00  0.00    -0.249 OA
BRANCH  11  13
ATOM     13  O   LIG    1       23.131 -31.289   7.713  0.00  0.00    -0.479 OA
ATOM     14  H   LIG    1       23.837 -30.849   7.174  0.00  0.00    +0.295 HD
ENDBRANCH  11  13
ENDBRANCH   5  11
ENDBRANCH   1   7
BRANCH   1  15
ATOM     15  N   LIG    1       24.319 -26.282   6.561  0.00  0.00    -0.178 NA
ATOM     16  H   LIG    1       23.877 -25.716   7.284  0.00  0.00    +0.149 HD
BRANCH  15  17
ATOM     17  S   LIG    1       25.283 -25.261   5.646  0.00  0.00    +0.061 S 
ATOM     18  O   LIG    1       24.661 -25.089   4.352  0.00  0.00    -0.153 OA
ATOM     19  O   LIG    1       26.605 -25.852   5.749  0.00  0.00    -0.153 OA
BRANCH  17  20
ATOM     20  C   LIG    1       25.309 -23.774   6.600  0.00  0.00    +0.126 A 
ATOM     21  C   LIG    1       24.363 -22.764   6.391  0.00  0.00    +0.057 A 
ATOM     22  N   LIG    1       23.433 -22.837   5.338  0.00  0.00    -0.342 N 
ATOM     23  H   LIG    1       23.175 -23.810   5.130  0.00  0.00    +0.146 HD
ATOM     24  C   LIG    1       22.267 -21.989   5.463  0.00  0.00    +0.105 C 
ATOM     25  C   LIG    1       22.729 -20.548   5.653  0.00  0.00    +0.007 C 
ATOM     26  C   LIG    1       23.646 -20.069   4.516  0.00  0.00    +0.009 C 
ATOM     27  C   LIG    1       23.434 -20.485   7.013  0.00  0.00    +0.041 C 
ATOM     28  C   LIG    1       24.451 -21.594   7.180  0.00  0.00    -0.024 A 
ATOM     29  C   LIG    1       25.431 -21.481   8.177  0.00  0.00    +0.005 A 
ATOM     30  C   LIG    1       26.352 -22.505   8.379  0.00  0.00    +0.002 A 
ATOM     31  C   LIG    1       26.297 -23.650   7.590  0.00  0.00    +0.030 A 
ENDBRANCH  17  20
ENDBRANCH  15  17
ENDBRANCH   1  15
BRANCH   1  32
ATOM     32  C   LIG    1       24.378 -28.422   5.496  0.00  0.00    +0.033 C 
BRANCH  32  33
ATOM     33  C   LIG    1       25.563 -29.303   4.889  0.00  0.00    +0.039 C 
BRANCH  33  34
ATOM     34  C   LIG    1       25.667 -30.841   5.305  0.00  0.00    +0.196 C 
BRANCH  34  35
ATOM     35  N   LIG    1       25.328 -31.933   4.424  0.00  0.00    -0.276 N 
ATOM     36  H   LIG    1       26.019 -32.120   3.698  0.00  0.00    +0.258 HD
BRANCH  35  37
ATOM     37  C   LIG    1       24.312 -32.794   4.350  0.00  0.00    +0.376 C 
ATOM     38  N   LIG    1       23.417 -32.771   5.264  0.00  0.00    -0.130 NA
ATOM     39  H   LIG    1       22.726 -33.500   5.097  0.00  0.00    +0.306 HD
BRANCH  37  40
ATOM     40  N   LIG    1       24.373 -33.599   3.293  0.00  0.00    -0.289 N 
ATOM     41  H   LIG    1       24.987 -34.389   3.193  0.00  0.00    +0.255 HD
ATOM     42  H   LIG    1       23.495 -33.688   2.835  0.00  0.00    +0.255 HD
ENDBRANCH  37  40
ENDBRANCH  35  37
ENDBRANCH  34  35
ENDBRANCH  33  34
ENDBRANCH  32  33
ENDBRANCH   1  32
TORSDOF 12
ENDMDL
MODEL 8
REMARK VINA RESULT:      -6.9      4.956      9.031
REMARK  Name = *****
REMARK                            x       y       z     vdW  Elec       q    Type
REMARK                         _______ _______ _______ _____ _____    ______ ____
ROOT
ATOM      1  C   LIG    1       26.243 -29.930   9.521  0.00  0.00    +0.162 C 
ENDROOT
BRANCH   1   7
ATOM      2  C   LIG    1       26.992 -32.767   3.886  0.00  0.00    +0.007 C 
ATOM      3  C   LIG    1       26.696 -32.517   5.359  0.00  0.00    -0.010 C 
ATOM      4  C   LIG    1       25.286 -32.031   5.685  0.00  0.00    +0.037 C 
ATOM      5  C   LIG    1       24.973 -32.125   7.215  0.00  0.00    +0.185 C 
ATOM      6  N   LIG    1       26.237 -32.158   8.003  0.00  0.00    -0.287 N 
ATOM      7  C   LIG    1       26.767 -31.332   8.989  0.00  0.00    +0.235 C 
ATOM      8  O   LIG    1       27.758 -31.785   9.601  0.00  0.00    -0.274 OA
ATOM      9  C   LIG    1       26.937 -33.440   7.658  0.00  0.00    +0.109 C 
ATOM     10  C   LIG    1       26.793 -33.810   6.155  0.00  0.00    +0.022 C 
BRANCH   5  11
ATOM     11  C   LIG    1       23.599 -31.359   7.335  0.00  0.00    +0.326 C 
ATOM     12  O   LIG    1       22.952 -31.239   8.270  0.00  0.00    -0.249 OA
BRANCH  11  13
ATOM     13  O   LIG    1       23.293 -30.882   6.056  0.00  0.00    -0.479 OA
ATOM     14  H   LIG    1       22.842 -31.688   5.699  0.00  0.00    +0.295 HD
ENDBRANCH  11  13
ENDBRANCH   5  11
ENDBRANCH   1   7
BRANCH   1  15
ATOM     15  N   LIG    1       26.512 -29.532  10.925  0.00  0.00    -0.178 NA
ATOM     16  H   LIG    1       26.793 -28.567  11.096  0.00  0.00    +0.149 HD
BRANCH  15  17
ATOM     17  S   LIG    1       25.721 -30.073  12.300  0.00  0.00    +0.061 S 
ATOM     18  O   LIG    1       26.712 -30.339  13.319  0.00  0.00    -0.153 OA
ATOM     19  O   LIG    1       24.872 -31.144  11.809  0.00  0.00    -0.153 OA
BRANCH  17  20
ATOM     20  C   LIG    1       24.659 -28.721  12.708  0.00  0.00    +0.126 A 
ATOM     21  C   LIG    1       25.181 -27.459  13.017  0.00  0.00    +0.057 A 
ATOM     22  N   LIG    1       26.567 -27.247  13.131  0.00  0.00    -0.342 N 
ATOM     23  H   LIG    1       27.096 -27.863  12.500  0.00  0.00    +0.146 HD
ATOM     24  C   LIG    1       27.006 -25.872  13.030  0.00  0.00    +0.105 C 
ATOM     25  C   LIG    1       26.262 -25.043  14.072  0.00  0.00    +0.007 C 
ATOM     26  C   LIG    1       26.451 -25.583  15.498  0.00  0.00    +0.009 C 
ATOM     27  C   LIG    1       24.786 -25.036  13.660  0.00  0.00    +0.041 C 
ATOM     28  C   LIG    1       24.274 -26.426  13.349  0.00  0.00    -0.024 A 
ATOM     29  C   LIG    1       22.891 -26.656  13.317  0.00  0.00    +0.005 A 
ATOM     30  C   LIG    1       22.393 -27.916  12.993  0.00  0.00    +0.002 A 
ATOM     31  C   LIG    1       23.274 -28.951  12.693  0.00  0.00    +0.030 A 
ENDBRANCH  17  20
ENDBRANCH  15  17
ENDBRANCH   1  15
BRANCH   1  32
ATOM     32  C   LIG    1       26.375 -28.598   8.729  0.00  0.00    +0.033 C 
BRANCH  32  33
ATOM     33  C   LIG    1       25.930 -28.539   7.197  0.00  0.00    +0.039 C 
BRANCH  33  34
ATOM     34  C   LIG    1       24.655 -27.662   6.802  0.00  0.00    +0.196 C 
BRANCH  34  35
ATOM     35  N   LIG    1       24.649 -26.698   5.728  0.00  0.00    -0.276 N 
ATOM     36  H   LIG    1       25.025 -27.045   4.846  0.00  0.00    +0.258 HD
BRANCH  35  37
ATOM     37  C   LIG    1       24.231 -25.437   5.606  0.00  0.00    +0.376 C 
ATOM     38  N   LIG    1       23.418 -24.970   6.477  0.00  0.00    -0.130 NA
ATOM     39  H   LIG    1       23.162 -24.013   6.241  0.00  0.00    +0.306 HD
BRANCH  37  40
ATOM     40  N   LIG    1       24.734 -24.811   4.546  0.00  0.00    -0.289 N 
ATOM     41  H   LIG    1       25.614 -24.326   4.514  0.00  0.00    +0.255 HD
ATOM     42  H   LIG    1       24.457 -25.236   3.690  0.00  0.00    +0.255 HD
ENDBRANCH  37  40
ENDBRANCH  35  37
ENDBRANCH  34  35
ENDBRANCH  33  34
ENDBRANCH  32  33
ENDBRANCH   1  32
TORSDOF 12
ENDMDL
MODEL 9
REMARK VINA RESULT:      -6.9      5.079      8.478
REMARK  Name = *****
REMARK                            x       y       z     vdW  Elec       q    Type
REMARK                         _______ _______ _______ _____ _____    ______ ____
ROOT
ATOM      1  C   LIG    1       25.347 -29.496  12.583  0.00  0.00    +0.162 C 
ENDROOT
BRANCH   1   7
ATOM      2  C   LIG    1       19.584 -29.132  15.229  0.00  0.00    +0.007 C 
ATOM      3  C   LIG    1       20.771 -28.920  14.300  0.00  0.00    -0.010 C 
ATOM      4  C   LIG    1       20.932 -29.940  13.176  0.00  0.00    +0.037 C 
ATOM      5  C   LIG    1       21.956 -29.461  12.093  0.00  0.00    +0.185 C 
ATOM      6  N   LIG    1       22.871 -28.432  12.662  0.00  0.00    -0.287 N 
ATOM      7  C   LIG    1       24.251 -28.371  12.825  0.00  0.00    +0.235 C 
ATOM      8  O   LIG    1       24.712 -27.252  13.138  0.00  0.00    -0.274 OA
ATOM      9  C   LIG    1       22.035 -27.228  12.983  0.00  0.00    +0.109 C 
ATOM     10  C   LIG    1       20.635 -27.608  13.542  0.00  0.00    +0.022 C 
BRANCH   5  11
ATOM     11  C   LIG    1       22.135 -30.745  11.195  0.00  0.00    +0.326 C 
ATOM     12  O   LIG    1       22.898 -31.586  11.333  0.00  0.00    -0.249 OA
BRANCH  11  13
ATOM     13  O   LIG    1       21.203 -30.643  10.158  0.00  0.00    -0.479 OA
ATOM     14  H   LIG    1       21.833 -30.581   9.395  0.00  0.00    +0.295 HD
ENDBRANCH  11  13
ENDBRANCH   5  11
ENDBRANCH   1   7
BRANCH   1  15
ATOM     15  N   LIG    1       25.589 -29.999  11.208  0.00  0.00    -0.178 NA
ATOM     16  H   LIG    1       24.829 -30.499  10.750  0.00  0.00    +0.149 HD
BRANCH  15  17
ATOM     17  S   LIG    1       26.501 -29.266  10.007  0.00  0.00    +0.061 S 
ATOM     18  O   LIG    1       27.799 -29.901   9.971  0.00  0.00    -0.153 OA
ATOM     19  O   LIG    1       26.388 -27.849  10.307  0.00  0.00    -0.153 OA
BRANCH  17  20
ATOM     20  C   LIG    1       25.550 -29.560   8.548  0.00  0.00    +0.126 A 
ATOM     21  C   LIG    1       25.559 -28.651   7.482  0.00  0.00    +0.057 A 
ATOM     22  N   LIG    1       26.227 -27.417   7.578  0.00  0.00    -0.342 N 
ATOM     23  H   LIG    1       27.056 -27.483   8.183  0.00  0.00    +0.146 HD
ATOM     24  C   LIG    1       26.530 -26.763   6.323  0.00  0.00    +0.105 C 
ATOM     25  C   LIG    1       25.237 -26.598   5.533  0.00  0.00    +0.007 C 
ATOM     26  C   LIG    1       24.163 -25.826   6.316  0.00  0.00    +0.009 C 
ATOM     27  C   LIG    1       24.763 -28.006   5.160  0.00  0.00    +0.041 C 
ATOM     28  C   LIG    1       24.763 -28.942   6.351  0.00  0.00    -0.024 A 
ATOM     29  C   LIG    1       24.028 -30.135   6.285  0.00  0.00    +0.005 A 
ATOM     30  C   LIG    1       24.045 -31.032   7.350  0.00  0.00    +0.002 A 
ATOM     31  C   LIG    1       24.800 -30.746   8.484  0.00  0.00    +0.030 A 
ENDBRANCH  17  20
ENDBRANCH  15  17
ENDBRANCH   1  15
BRANCH   1  32
ATOM     32  C   LIG    1       26.765 -29.477  13.223  0.00  0.00    +0.033 C 
BRANCH  32  33
ATOM     33  C   LIG    1       26.945 -29.001  14.737  0.00  0.00    +0.039 C 
BRANCH  33  34
ATOM     34  C   LIG    1       27.852 -27.722  15.037  0.00  0.00    +0.196 C 
BRANCH  34  35
ATOM     35  N   LIG    1       27.383 -26.363  14.915  0.00  0.00    -0.276 N 
ATOM     36  H   LIG    1       26.952 -25.987  15.760  0.00  0.00    +0.258 HD
BRANCH  35  37
ATOM     37  C   LIG    1       27.407 -25.449  13.944  0.00  0.00    +0.376 C 
ATOM     38  N   LIG    1       27.466 -24.211  14.264  0.00  0.00    -0.130 NA
ATOM     39  H   LIG    1       27.445 -23.631  13.427  0.00  0.00    +0.306 HD
BRANCH  37  40
ATOM     40  N   LIG    1       27.357 -25.971  12.722  0.00  0.00    -0.289 N 
ATOM     41  H   LIG    1       27.755 -25.562  11.893  0.00  0.00    +0.255 HD
ATOM     42  H   LIG    1       27.345 -26.966  12.736  0.00  0.00    +0.255 HD
ENDBRANCH  37  40
ENDBRANCH  35  37
ENDBRANCH  34  35
ENDBRANCH  33  34
ENDBRANCH  32  33
ENDBRANCH   1  32
TORSDOF 12
ENDMDL
