MODEL 1
REMARK VINA RESULT:      -8.4      0.000      0.000
REMARK  Name = *****
REMARK                            x       y       z     vdW  Elec       q    Type
REMARK                         _______ _______ _______ _____ _____    ______ ____
ROOT
ATOM      1  O   LIG    1       28.034 -20.417   8.178  0.00  0.00    -0.459 OA
ENDROOT
BRANCH   1   6
ATOM      2  C   LIG    1       25.906 -23.694   7.322  0.00  0.00    +0.192 C 
ATOM      3  N   LIG    1       24.875 -22.640   6.908  0.00  0.00    +0.243 N 
ATOM      4  C   LIG    1       25.351 -21.666   5.816  0.00  0.00    +0.070 C 
ATOM      5  C   LIG    1       26.715 -21.082   6.210  0.00  0.00    +0.099 C 
ATOM      6  C   LIG    1       26.713 -20.405   7.593  0.00  0.00    +0.187 C 
ATOM      7  C   LIG    1       25.770 -21.047   8.624  0.00  0.00    +0.099 C 
ATOM      8  C   LIG    1       24.271 -20.572   5.828  0.00  0.00    +0.060 C 
ATOM      9  C   LIG    1       23.709 -20.561   7.252  0.00  0.00    +0.060 C 
ATOM     10  C   LIG    1       24.496 -21.638   8.013  0.00  0.00    +0.070 C 
ATOM     11  C   LIG    1       23.648 -23.448   6.439  0.00  0.00    +0.192 C 
ENDBRANCH   1   6
BRANCH   1  12
ATOM     12  C   LIG    1       28.999 -19.755   7.472  0.00  0.00    +0.341 C 
ATOM     13  O   LIG    1       28.757 -19.107   6.455  0.00  0.00    -0.247 OA
BRANCH  12  14
ATOM     14  C   LIG    1       30.380 -19.881   8.104  0.00  0.00    +0.253 C 
BRANCH  14  15
ATOM     15  C   LIG    1       30.843 -18.669   8.885  0.00  0.00    -0.008 A 
ATOM     16  C   LIG    1       32.008 -17.961   8.552  0.00  0.00    +0.007 A 
ATOM     17  C   LIG    1       32.389 -16.831   9.282  0.00  0.00    +0.000 A 
ATOM     18  C   LIG    1       31.600 -16.377  10.336  0.00  0.00    +0.000 A 
ATOM     19  C   LIG    1       30.424 -17.046  10.658  0.00  0.00    +0.000 A 
ATOM     20  C   LIG    1       30.045 -18.181   9.936  0.00  0.00    +0.007 A 
ENDBRANCH  14  15
BRANCH  14  21
ATOM     21  O   LIG    1       30.407 -21.011   8.974  0.00  0.00    -0.376 OA
ATOM     22  H   LIG    1       29.477 -21.244   9.154  0.00  0.00    +0.211 HD
ENDBRANCH  14  21
ENDBRANCH  12  14
ENDBRANCH   1  12
TORSDOF 5
ENDMDL
MODEL 2
REMARK VINA RESULT:      -8.2      0.738      1.519
REMARK  Name = *****
REMARK                            x       y       z     vdW  Elec       q    Type
REMARK                         _______ _______ _______ _____ _____    ______ ____
ROOT
ATOM      1  O   LIG    1       28.039 -20.347   8.406  0.00  0.00    -0.459 OA
ENDROOT
BRANCH   1   6
ATOM      2  C   LIG    1       26.106 -23.619   7.157  0.00  0.00    +0.192 C 
ATOM      3  N   LIG    1       25.063 -22.572   6.754  0.00  0.00    +0.243 N 
ATOM      4  C   LIG    1       25.571 -21.498   5.775  0.00  0.00    +0.070 C 
ATOM      5  C   LIG    1       26.882 -20.901   6.307  0.00  0.00    +0.099 C 
ATOM      6  C   LIG    1       26.760 -20.335   7.734  0.00  0.00    +0.187 C 
ATOM      7  C   LIG    1       25.777 -21.089   8.645  0.00  0.00    +0.099 C 
ATOM      8  C   LIG    1       24.449 -20.447   5.796  0.00  0.00    +0.060 C 
ATOM      9  C   LIG    1       23.794 -20.569   7.174  0.00  0.00    +0.060 C 
ATOM     10  C   LIG    1       24.572 -21.674   7.903  0.00  0.00    +0.070 C 
ATOM     11  C   LIG    1       23.903 -23.382   6.141  0.00  0.00    +0.192 C 
ENDBRANCH   1   6
BRANCH   1  12
ATOM     12  C   LIG    1       29.124 -20.088   7.617  0.00  0.00    +0.341 C 
ATOM     13  O   LIG    1       29.761 -20.970   7.045  0.00  0.00    -0.247 OA
BRANCH  12  14
ATOM     14  C   LIG    1       29.422 -18.597   7.501  0.00  0.00    +0.253 C 
BRANCH  14  15
ATOM     15  C   LIG    1       30.274 -18.024   8.615  0.00  0.00    -0.008 A 
ATOM     16  C   LIG    1       29.755 -17.743   9.888  0.00  0.00    +0.007 A 
ATOM     17  C   LIG    1       30.578 -17.237  10.899  0.00  0.00    +0.000 A 
ATOM     18  C   LIG    1       31.935 -17.032  10.661  0.00  0.00    +0.000 A 
ATOM     19  C   LIG    1       32.474 -17.338   9.416  0.00  0.00    +0.000 A 
ATOM     20  C   LIG    1       31.651 -17.835   8.401  0.00  0.00    +0.007 A 
ENDBRANCH  14  15
BRANCH  14  21
ATOM     21  O   LIG    1       30.073 -18.333   6.260  0.00  0.00    -0.376 OA
ATOM     22  H   LIG    1       29.687 -18.948   5.609  0.00  0.00    +0.211 HD
ENDBRANCH  14  21
ENDBRANCH  12  14
ENDBRANCH   1  12
TORSDOF 5
ENDMDL
MODEL 3
REMARK VINA RESULT:      -8.1      0.923      2.118
REMARK  Name = *****
REMARK                            x       y       z     vdW  Elec       q    Type
REMARK                         _______ _______ _______ _____ _____    ______ ____
ROOT
ATOM      1  O   LIG    1       27.712 -19.922   7.436  0.00  0.00    -0.459 OA
ENDROOT
BRANCH   1   6
ATOM      2  C   LIG    1       23.753 -20.494   7.407  0.00  0.00    +0.192 C 
ATOM      3  N   LIG    1       24.189 -21.911   7.022  0.00  0.00    +0.243 N 
ATOM      4  C   LIG    1       25.109 -22.603   8.044  0.00  0.00    +0.070 C 
ATOM      5  C   LIG    1       26.272 -21.668   8.402  0.00  0.00    +0.099 C 
ATOM      6  C   LIG    1       27.071 -21.191   7.175  0.00  0.00    +0.187 C 
ATOM      7  C   LIG    1       26.238 -21.006   5.895  0.00  0.00    +0.099 C 
ATOM      8  C   LIG    1       25.619 -23.834   7.277  0.00  0.00    +0.060 C 
ATOM      9  C   LIG    1       25.588 -23.443   5.798  0.00  0.00    +0.060 C 
ATOM     10  C   LIG    1       25.076 -21.995   5.766  0.00  0.00    +0.070 C 
ATOM     11  C   LIG    1       22.875 -22.694   6.833  0.00  0.00    +0.192 C 
ENDBRANCH   1   6
BRANCH   1  12
ATOM     12  C   LIG    1       29.036 -19.987   7.768  0.00  0.00    +0.341 C 
ATOM     13  O   LIG    1       29.555 -20.989   8.254  0.00  0.00    -0.247 OA
BRANCH  12  14
ATOM     14  C   LIG    1       29.788 -18.703   7.435  0.00  0.00    +0.253 C 
BRANCH  14  15
ATOM     15  C   LIG    1       30.515 -18.064   8.599  0.00  0.00    -0.008 A 
ATOM     16  C   LIG    1       31.849 -17.638   8.509  0.00  0.00    +0.007 A 
ATOM     17  C   LIG    1       32.479 -17.029   9.599  0.00  0.00    +0.000 A 
ATOM     18  C   LIG    1       31.779 -16.812  10.783  0.00  0.00    +0.000 A 
ATOM     19  C   LIG    1       30.445 -17.196  10.879  0.00  0.00    +0.000 A 
ATOM     20  C   LIG    1       29.815 -17.813   9.794  0.00  0.00    +0.007 A 
ENDBRANCH  14  15
BRANCH  14  21
ATOM     21  O   LIG    1       30.737 -18.958   6.402  0.00  0.00    -0.376 OA
ATOM     22  H   LIG    1       31.306 -19.683   6.720  0.00  0.00    +0.211 HD
ENDBRANCH  14  21
ENDBRANCH  12  14
ENDBRANCH   1  12
TORSDOF 5
ENDMDL
MODEL 4
REMARK VINA RESULT:      -7.9      5.068      8.077
REMARK  Name = *****
REMARK                            x       y       z     vdW  Elec       q    Type
REMARK                         _______ _______ _______ _____ _____    ______ ____
ROOT
ATOM      1  O   LIG    1       24.092 -25.026   6.567  0.00  0.00    -0.459 OA
ENDROOT
BRANCH   1   6
ATOM      2  C   LIG    1       24.161 -21.992   3.961  0.00  0.00    +0.192 C 
ATOM      3  N   LIG    1       24.244 -21.179   5.257  0.00  0.00    +0.243 N 
ATOM      4  C   LIG    1       25.449 -21.516   6.153  0.00  0.00    +0.070 C 
ATOM      5  C   LIG    1       25.522 -23.035   6.364  0.00  0.00    +0.099 C 
ATOM      6  C   LIG    1       24.224 -23.635   6.935  0.00  0.00    +0.187 C 
ATOM      7  C   LIG    1       22.933 -22.935   6.476  0.00  0.00    +0.099 C 
ATOM      8  C   LIG    1       25.112 -20.802   7.473  0.00  0.00    +0.060 C 
ATOM      9  C   LIG    1       23.584 -20.737   7.530  0.00  0.00    +0.060 C 
ATOM     10  C   LIG    1       23.095 -21.429   6.250  0.00  0.00    +0.070 C 
ATOM     11  C   LIG    1       24.280 -19.707   4.800  0.00  0.00    +0.192 C 
ENDBRANCH   1   6
BRANCH   1  12
ATOM     12  C   LIG    1       25.052 -25.507   5.722  0.00  0.00    +0.341 C 
ATOM     13  O   LIG    1       25.043 -25.298   4.511  0.00  0.00    -0.247 OA
BRANCH  12  14
ATOM     14  C   LIG    1       26.138 -26.290   6.453  0.00  0.00    +0.253 C 
BRANCH  14  15
ATOM     15  C   LIG    1       25.665 -27.552   7.144  0.00  0.00    -0.008 A 
ATOM     16  C   LIG    1       24.683 -28.387   6.590  0.00  0.00    +0.007 A 
ATOM     17  C   LIG    1       24.290 -29.558   7.246  0.00  0.00    +0.000 A 
ATOM     18  C   LIG    1       24.890 -29.925   8.448  0.00  0.00    +0.000 A 
ATOM     19  C   LIG    1       25.892 -29.127   8.993  0.00  0.00    +0.000 A 
ATOM     20  C   LIG    1       26.280 -27.952   8.344  0.00  0.00    +0.007 A 
ENDBRANCH  14  15
BRANCH  14  21
ATOM     21  O   LIG    1       27.173 -26.641   5.538  0.00  0.00    -0.376 OA
ATOM     22  H   LIG    1       26.811 -26.505   4.643  0.00  0.00    +0.211 HD
ENDBRANCH  14  21
ENDBRANCH  12  14
ENDBRANCH   1  12
TORSDOF 5
ENDMDL
MODEL 5
REMARK VINA RESULT:      -7.8      2.268      7.278
REMARK  Name = *****
REMARK                            x       y       z     vdW  Elec       q    Type
REMARK                         _______ _______ _______ _____ _____    ______ ____
ROOT
ATOM      1  O   LIG    1       27.979 -21.627   8.673  0.00  0.00    -0.459 OA
ENDROOT
BRANCH   1   6
ATOM      2  C   LIG    1       30.215 -18.724  10.274  0.00  0.00    +0.192 C 
ATOM      3  N   LIG    1       30.696 -18.606   8.825  0.00  0.00    +0.243 N 
ATOM      4  C   LIG    1       29.586 -18.312   7.799  0.00  0.00    +0.070 C 
ATOM      5  C   LIG    1       28.432 -19.306   7.995  0.00  0.00    +0.099 C 
ATOM      6  C   LIG    1       28.876 -20.779   7.923  0.00  0.00    +0.187 C 
ATOM      7  C   LIG    1       30.291 -21.053   8.461  0.00  0.00    +0.099 C 
ATOM      8  C   LIG    1       30.284 -18.553   6.451  0.00  0.00    +0.060 C 
ATOM      9  C   LIG    1       31.386 -19.577   6.732  0.00  0.00    +0.060 C 
ATOM     10  C   LIG    1       31.274 -19.902   8.228  0.00  0.00    +0.070 C 
ATOM     11  C   LIG    1       31.749 -17.480   8.846  0.00  0.00    +0.192 C 
ENDBRANCH   1   6
BRANCH   1  12
ATOM     12  C   LIG    1       26.646 -21.409   8.463  0.00  0.00    +0.341 C 
ATOM     13  O   LIG    1       25.884 -21.026   9.348  0.00  0.00    -0.247 OA
BRANCH  12  14
ATOM     14  C   LIG    1       26.231 -21.657   7.017  0.00  0.00    +0.253 C 
BRANCH  14  15
ATOM     15  C   LIG    1       25.419 -22.914   6.788  0.00  0.00    -0.008 A 
ATOM     16  C   LIG    1       26.017 -24.172   6.611  0.00  0.00    +0.007 A 
ATOM     17  C   LIG    1       25.233 -25.315   6.426  0.00  0.00    +0.000 A 
ATOM     18  C   LIG    1       23.843 -25.223   6.444  0.00  0.00    +0.000 A 
ATOM     19  C   LIG    1       23.233 -23.990   6.655  0.00  0.00    +0.000 A 
ATOM     20  C   LIG    1       24.015 -22.845   6.830  0.00  0.00    +0.007 A 
ENDBRANCH  14  15
BRANCH  14  21
ATOM     21  O   LIG    1       25.479 -20.545   6.537  0.00  0.00    -0.376 OA
ATOM     22  H   LIG    1       25.954 -20.204   5.757  0.00  0.00    +0.211 HD
ENDBRANCH  14  21
ENDBRANCH  12  14
ENDBRANCH   1  12
TORSDOF 5
ENDMDL
MODEL 6
REMARK VINA RESULT:      -7.7      1.223      2.244
REMARK  Name = *****
REMARK                            x       y       z     vdW  Elec       q    Type
REMARK                         _______ _______ _______ _____ _____    ______ ____
ROOT
ATOM      1  O   LIG    1       27.400 -21.179   8.720  0.00  0.00    -0.459 OA
ENDROOT
BRANCH   1   6
ATOM      2  C   LIG    1       25.818 -20.333   5.146  0.00  0.00    +0.192 C 
ATOM      3  N   LIG    1       24.733 -21.288   5.653  0.00  0.00    +0.243 N 
ATOM      4  C   LIG    1       24.059 -20.859   6.969  0.00  0.00    +0.070 C 
ATOM      5  C   LIG    1       25.136 -20.529   8.011  0.00  0.00    +0.099 C 
ATOM      6  C   LIG    1       26.130 -21.681   8.249  0.00  0.00    +0.187 C 
ATOM      7  C   LIG    1       26.430 -22.540   7.010  0.00  0.00    +0.099 C 
ATOM      8  C   LIG    1       23.272 -22.114   7.382  0.00  0.00    +0.060 C 
ATOM      9  C   LIG    1       24.033 -23.297   6.781  0.00  0.00    +0.060 C 
ATOM     10  C   LIG    1       25.240 -22.685   6.056  0.00  0.00    +0.070 C 
ATOM     11  C   LIG    1       23.710 -21.374   4.503  0.00  0.00    +0.192 C 
ENDBRANCH   1   6
BRANCH   1  12
ATOM     12  C   LIG    1       28.372 -21.046   7.769  0.00  0.00    +0.341 C 
ATOM     13  O   LIG    1       28.952 -22.007   7.267  0.00  0.00    -0.247 OA
BRANCH  12  14
ATOM     14  C   LIG    1       28.622 -19.592   7.384  0.00  0.00    +0.253 C 
BRANCH  14  15
ATOM     15  C   LIG    1       29.784 -18.930   8.094  0.00  0.00    -0.008 A 
ATOM     16  C   LIG    1       31.090 -18.955   7.580  0.00  0.00    +0.007 A 
ATOM     17  C   LIG    1       32.134 -18.311   8.252  0.00  0.00    +0.000 A 
ATOM     18  C   LIG    1       31.883 -17.611   9.429  0.00  0.00    +0.000 A 
ATOM     19  C   LIG    1       30.588 -17.546   9.934  0.00  0.00    +0.000 A 
ATOM     20  C   LIG    1       29.546 -18.196   9.270  0.00  0.00    +0.007 A 
ENDBRANCH  14  15
BRANCH  14  21
ATOM     21  O   LIG    1       28.845 -19.501   5.979  0.00  0.00    -0.376 OA
ATOM     22  H   LIG    1       29.809 -19.568   5.846  0.00  0.00    +0.211 HD
ENDBRANCH  14  21
ENDBRANCH  12  14
ENDBRANCH   1  12
TORSDOF 5
ENDMDL
MODEL 7
REMARK VINA RESULT:      -7.6      2.482      6.778
REMARK  Name = *****
REMARK                            x       y       z     vdW  Elec       q    Type
REMARK                         _______ _______ _______ _____ _____    ______ ____
ROOT
ATOM      1  O   LIG    1       26.886 -21.624   7.607  0.00  0.00    -0.459 OA
ENDROOT
BRANCH   1   6
ATOM      2  C   LIG    1       30.717 -21.287   8.706  0.00  0.00    +0.192 C 
ATOM      3  N   LIG    1       30.566 -19.938   7.998  0.00  0.00    +0.243 N 
ATOM      4  C   LIG    1       29.466 -19.027   8.573  0.00  0.00    +0.070 C 
ATOM      5  C   LIG    1       28.157 -19.819   8.693  0.00  0.00    +0.099 C 
ATOM      6  C   LIG    1       27.706 -20.459   7.367  0.00  0.00    +0.187 C 
ATOM      7  C   LIG    1       28.853 -20.911   6.447  0.00  0.00    +0.099 C 
ATOM      8  C   LIG    1       29.336 -17.923   7.510  0.00  0.00    +0.060 C 
ATOM      9  C   LIG    1       29.757 -18.569   6.188  0.00  0.00    +0.060 C 
ATOM     10  C   LIG    1       30.100 -20.026   6.533  0.00  0.00    +0.070 C 
ATOM     11  C   LIG    1       31.954 -19.275   8.105  0.00  0.00    +0.192 C 
ENDBRANCH   1   6
BRANCH   1  12
ATOM     12  C   LIG    1       25.547 -21.386   7.739  0.00  0.00    +0.341 C 
ATOM     13  O   LIG    1       25.062 -20.818   8.715  0.00  0.00    -0.247 OA
BRANCH  12  14
ATOM     14  C   LIG    1       24.744 -21.868   6.535  0.00  0.00    +0.253 C 
BRANCH  14  15
ATOM     15  C   LIG    1       24.248 -20.773   5.614  0.00  0.00    -0.008 A 
ATOM     16  C   LIG    1       24.993 -20.326   4.511  0.00  0.00    +0.007 A 
ATOM     17  C   LIG    1       24.491 -19.330   3.668  0.00  0.00    +0.000 A 
ATOM     18  C   LIG    1       23.230 -18.786   3.898  0.00  0.00    +0.000 A 
ATOM     19  C   LIG    1       22.463 -19.242   4.966  0.00  0.00    +0.000 A 
ATOM     20  C   LIG    1       22.966 -20.231   5.815  0.00  0.00    +0.007 A 
ENDBRANCH  14  15
BRANCH  14  21
ATOM     21  O   LIG    1       25.530 -22.777   5.768  0.00  0.00    -0.376 OA
ATOM     22  H   LIG    1       25.218 -23.673   5.993  0.00  0.00    +0.211 HD
ENDBRANCH  14  21
ENDBRANCH  12  14
ENDBRANCH   1  12
TORSDOF 5
ENDMDL
MODEL 8
REMARK VINA RESULT:      -7.5      4.670      8.653
REMARK  Name = *****
REMARK                            x       y       z     vdW  Elec       q    Type
REMARK                         _______ _______ _______ _____ _____    ______ ____
ROOT
ATOM      1  O   LIG    1       25.702 -25.168   7.003  0.00  0.00    -0.459 OA
ENDROOT
BRANCH   1   6
ATOM      2  C   LIG    1       22.626 -22.617   6.829  0.00  0.00    +0.192 C 
ATOM      3  N   LIG    1       23.745 -21.649   6.435  0.00  0.00    +0.243 N 
ATOM      4  C   LIG    1       24.541 -22.058   5.182  0.00  0.00    +0.070 C 
ATOM      5  C   LIG    1       24.998 -23.517   5.320  0.00  0.00    +0.099 C 
ATOM      6  C   LIG    1       25.809 -23.784   6.602  0.00  0.00    +0.187 C 
ATOM      7  C   LIG    1       25.390 -22.941   7.818  0.00  0.00    +0.099 C 
ATOM      8  C   LIG    1       25.749 -21.108   5.210  0.00  0.00    +0.060 C 
ATOM      9  C   LIG    1       25.971 -20.762   6.684  0.00  0.00    +0.060 C 
ATOM     10  C   LIG    1       24.893 -21.539   7.455  0.00  0.00    +0.070 C 
ATOM     11  C   LIG    1       23.043 -20.291   6.232  0.00  0.00    +0.192 C 
ENDBRANCH   1   6
BRANCH   1  12
ATOM     12  C   LIG    1       26.032 -26.088   6.047  0.00  0.00    +0.341 C 
ATOM     13  O   LIG    1       27.172 -26.212   5.604  0.00  0.00    -0.247 OA
BRANCH  12  14
ATOM     14  C   LIG    1       24.846 -26.950   5.629  0.00  0.00    +0.253 C 
BRANCH  14  15
ATOM     15  C   LIG    1       24.924 -28.401   6.059  0.00  0.00    -0.008 A 
ATOM     16  C   LIG    1       25.284 -29.428   5.172  0.00  0.00    +0.007 A 
ATOM     17  C   LIG    1       25.369 -30.752   5.613  0.00  0.00    +0.000 A 
ATOM     18  C   LIG    1       25.123 -31.066   6.947  0.00  0.00    +0.000 A 
ATOM     19  C   LIG    1       24.799 -30.055   7.847  0.00  0.00    +0.000 A 
ATOM     20  C   LIG    1       24.705 -28.732   7.408  0.00  0.00    +0.007 A 
ENDBRANCH  14  15
BRANCH  14  21
ATOM     21  O   LIG    1       23.641 -26.394   6.150  0.00  0.00    -0.376 OA
ATOM     22  H   LIG    1       23.398 -25.657   5.559  0.00  0.00    +0.211 HD
ENDBRANCH  14  21
ENDBRANCH  12  14
ENDBRANCH   1  12
TORSDOF 5
ENDMDL
MODEL 9
REMARK VINA RESULT:      -7.4      5.787      8.872
REMARK  Name = *****
REMARK                            x       y       z     vdW  Elec       q    Type
REMARK                         _______ _______ _______ _____ _____    ______ ____
ROOT
ATOM      1  O   LIG    1       25.151 -27.284   7.248  0.00  0.00    -0.459 OA
ENDROOT
BRANCH   1   6
ATOM      2  C   LIG    1       23.367 -30.127   9.424  0.00  0.00    +0.192 C 
ATOM      3  N   LIG    1       24.366 -31.012   8.672  0.00  0.00    +0.243 N 
ATOM      4  C   LIG    1       25.844 -30.632   8.876  0.00  0.00    +0.070 C 
ATOM      5  C   LIG    1       26.026 -29.129   8.621  0.00  0.00    +0.099 C 
ATOM      6  C   LIG    1       25.526 -28.680   7.235  0.00  0.00    +0.187 C 
ATOM      7  C   LIG    1       24.308 -29.456   6.707  0.00  0.00    +0.099 C 
ATOM      8  C   LIG    1       26.567 -31.456   7.797  0.00  0.00    +0.060 C 
ATOM      9  C   LIG    1       25.547 -31.655   6.674  0.00  0.00    +0.060 C 
ATOM     10  C   LIG    1       24.278 -30.926   7.138  0.00  0.00    +0.070 C 
ATOM     11  C   LIG    1       24.083 -32.443   9.171  0.00  0.00    +0.192 C 
ENDBRANCH   1   6
BRANCH   1  12
ATOM     12  C   LIG    1       25.616 -26.538   6.202  0.00  0.00    +0.341 C 
ATOM     13  O   LIG    1       26.707 -26.738   5.672  0.00  0.00    -0.247 OA
BRANCH  12  14
ATOM     14  C   LIG    1       24.623 -25.471   5.755  0.00  0.00    +0.253 C 
BRANCH  14  15
ATOM     15  C   LIG    1       24.665 -24.182   6.549  0.00  0.00    -0.008 A 
ATOM     16  C   LIG    1       25.850 -23.687   7.115  0.00  0.00    +0.007 A 
ATOM     17  C   LIG    1       25.853 -22.480   7.821  0.00  0.00    +0.000 A 
ATOM     18  C   LIG    1       24.682 -21.737   7.947  0.00  0.00    +0.000 A 
ATOM     19  C   LIG    1       23.505 -22.195   7.361  0.00  0.00    +0.000 A 
ATOM     20  C   LIG    1       23.497 -23.405   6.664  0.00  0.00    +0.007 A 
ENDBRANCH  14  15
BRANCH  14  21
ATOM     21  O   LIG    1       24.843 -25.158   4.382  0.00  0.00    -0.376 OA
ATOM     22  H   LIG    1       25.437 -25.847   4.032  0.00  0.00    +0.211 HD
ENDBRANCH  14  21
ENDBRANCH  12  14
ENDBRANCH   1  12
TORSDOF 5
ENDMDL
