MODEL 1
REMARK VINA RESULT:      -8.2      0.000      0.000
REMARK  Name = *****
REMARK                            x       y       z     vdW  Elec       q    Type
REMARK                         _______ _______ _______ _____ _____    ______ ____
ROOT
ATOM      1  O   LIG    1       23.990 -31.254   5.834  0.00  0.00    -0.283 OA
ATOM      2  C   LIG    1       24.496 -30.285   6.396  0.00  0.00    +0.228 C 
ATOM      3  C   LIG    1       24.168 -28.919   5.912  0.00  0.00    +0.171 C 
ATOM      4  C   LIG    1       24.685 -27.804   6.457  0.00  0.00    +0.048 C 
ATOM      5  C   LIG    1       25.659 -27.939   7.584  0.00  0.00    +0.194 C 
ATOM      6  O   LIG    1       26.210 -26.962   8.081  0.00  0.00    -0.287 OA
ATOM      7  C   LIG    1       25.967 -29.287   8.110  0.00  0.00    +0.033 A 
ATOM      8  C   LIG    1       26.838 -29.430   9.201  0.00  0.00    +0.012 A 
ATOM      9  C   LIG    1       27.136 -30.698   9.706  0.00  0.00    +0.001 A 
ATOM     10  C   LIG    1       26.566 -31.832   9.127  0.00  0.00    +0.001 A 
ATOM     11  C   LIG    1       25.701 -31.696   8.041  0.00  0.00    +0.012 A 
ATOM     12  C   LIG    1       25.405 -30.422   7.536  0.00  0.00    +0.036 A 
ENDROOT
BRANCH   4  13
ATOM     13  C   LIG    1       24.308 -26.405   5.971  0.00  0.00    +0.026 C 
ATOM     14  C   LIG    1       25.449 -25.701   5.214  0.00  0.00    +0.009 C 
ATOM     15  C   LIG    1       25.018 -24.323   4.697  0.00  0.00    +0.009 C 
ATOM     16  C   LIG    1       24.492 -23.433   5.836  0.00  0.00    +0.019 C 
ATOM     17  C   LIG    1       23.331 -24.131   6.566  0.00  0.00    +0.009 C 
ATOM     18  C   LIG    1       23.742 -25.510   7.091  0.00  0.00    +0.009 C 
BRANCH  16  19
ATOM     19  C   LIG    1       24.097 -22.049   5.337  0.00  0.00    -0.044 A 
ATOM     20  C   LIG    1       24.583 -21.545   4.121  0.00  0.00    +0.005 A 
ATOM     21  C   LIG    1       24.202 -20.281   3.664  0.00  0.00    +0.020 A 
ATOM     22  C   LIG    1       23.334 -19.503   4.424  0.00  0.00    +0.041 A 
ATOM     23 CL   LIG    1       22.860 -17.949   3.857  0.00  0.00    -0.084 Cl
ATOM     24  C   LIG    1       22.847 -19.979   5.639  0.00  0.00    +0.020 A 
ATOM     25  C   LIG    1       23.227 -21.246   6.094  0.00  0.00    +0.005 A 
ENDBRANCH  16  19
ENDBRANCH   4  13
BRANCH   3  26
ATOM     26  O   LIG    1       23.278 -28.864   4.849  0.00  0.00    -0.503 OA
ATOM     27  H   LIG    1       23.371 -27.956   4.484  0.00  0.00    +0.292 HD
ENDBRANCH   3  26
TORSDOF 3
ENDMDL
MODEL 2
REMARK VINA RESULT:      -7.7      1.333      1.636
REMARK  Name = *****
REMARK                            x       y       z     vdW  Elec       q    Type
REMARK                         _______ _______ _______ _____ _____    ______ ____
ROOT
ATOM      1  O   LIG    1       23.500 -31.340   6.141  0.00  0.00    -0.283 OA
ATOM      2  C   LIG    1       24.176 -30.536   6.778  0.00  0.00    +0.228 C 
ATOM      3  C   LIG    1       24.388 -29.174   6.225  0.00  0.00    +0.171 C 
ATOM      4  C   LIG    1       25.122 -28.235   6.847  0.00  0.00    +0.048 C 
ATOM      5  C   LIG    1       25.783 -28.581   8.143  0.00  0.00    +0.194 C 
ATOM      6  O   LIG    1       26.514 -27.788   8.727  0.00  0.00    -0.287 OA
ATOM      7  C   LIG    1       25.549 -29.916   8.734  0.00  0.00    +0.033 A 
ATOM      8  C   LIG    1       26.118 -30.241   9.976  0.00  0.00    +0.012 A 
ATOM      9  C   LIG    1       25.904 -31.500  10.544  0.00  0.00    +0.001 A 
ATOM     10  C   LIG    1       25.121 -32.442   9.878  0.00  0.00    +0.001 A 
ATOM     11  C   LIG    1       24.555 -32.126   8.643  0.00  0.00    +0.012 A 
ATOM     12  C   LIG    1       24.772 -30.863   8.076  0.00  0.00    +0.036 A 
ENDROOT
BRANCH   4  13
ATOM     13  C   LIG    1       25.301 -26.827   6.281  0.00  0.00    +0.026 C 
ATOM     14  C   LIG    1       25.856 -25.827   7.312  0.00  0.00    +0.009 C 
ATOM     15  C   LIG    1       26.069 -24.440   6.694  0.00  0.00    +0.009 C 
ATOM     16  C   LIG    1       24.778 -23.900   6.055  0.00  0.00    +0.019 C 
ATOM     17  C   LIG    1       24.249 -24.892   5.004  0.00  0.00    +0.009 C 
ATOM     18  C   LIG    1       24.028 -26.284   5.602  0.00  0.00    +0.009 C 
BRANCH  16  19
ATOM     19  C   LIG    1       24.972 -22.507   5.473  0.00  0.00    -0.044 A 
ATOM     20  C   LIG    1       25.860 -21.590   6.056  0.00  0.00    +0.005 A 
ATOM     21  C   LIG    1       26.044 -20.319   5.505  0.00  0.00    +0.020 A 
ATOM     22  C   LIG    1       25.335 -19.949   4.365  0.00  0.00    +0.041 A 
ATOM     23 CL   LIG    1       25.568 -18.387   3.684  0.00  0.00    -0.084 Cl
ATOM     24  C   LIG    1       24.441 -20.840   3.776  0.00  0.00    +0.020 A 
ATOM     25  C   LIG    1       24.260 -22.113   4.328  0.00  0.00    +0.005 A 
ENDBRANCH  16  19
ENDBRANCH   4  13
BRANCH   3  26
ATOM     26  O   LIG    1       23.770 -28.925   5.008  0.00  0.00    -0.503 OA
ATOM     27  H   LIG    1       22.825 -28.763   5.229  0.00  0.00    +0.292 HD
ENDBRANCH   3  26
TORSDOF 3
ENDMDL
MODEL 3
REMARK VINA RESULT:      -7.3      1.846      2.932
REMARK  Name = *****
REMARK                            x       y       z     vdW  Elec       q    Type
REMARK                         _______ _______ _______ _____ _____    ______ ____
ROOT
ATOM      1  O   LIG    1       26.855 -31.236   9.678  0.00  0.00    -0.283 OA
ATOM      2  C   LIG    1       26.480 -30.851   8.574  0.00  0.00    +0.228 C 
ATOM      3  C   LIG    1       25.973 -29.462   8.428  0.00  0.00    +0.171 C 
ATOM      4  C   LIG    1       25.530 -28.960   7.262  0.00  0.00    +0.048 C 
ATOM      5  C   LIG    1       25.516 -29.846   6.057  0.00  0.00    +0.194 C 
ATOM      6  O   LIG    1       25.068 -29.466   4.980  0.00  0.00    -0.287 OA
ATOM      7  C   LIG    1       26.057 -31.219   6.169  0.00  0.00    +0.033 A 
ATOM      8  C   LIG    1       26.102 -32.048   5.036  0.00  0.00    +0.012 A 
ATOM      9  C   LIG    1       26.611 -33.345   5.130  0.00  0.00    +0.001 A 
ATOM     10  C   LIG    1       27.078 -33.825   6.353  0.00  0.00    +0.001 A 
ATOM     11  C   LIG    1       27.035 -33.007   7.482  0.00  0.00    +0.012 A 
ATOM     12  C   LIG    1       26.524 -31.706   7.385  0.00  0.00    +0.036 A 
ENDROOT
BRANCH   4  13
ATOM     13  C   LIG    1       25.046 -27.518   7.122  0.00  0.00    +0.026 C 
ATOM     14  C   LIG    1       24.182 -27.289   5.868  0.00  0.00    +0.009 C 
ATOM     15  C   LIG    1       23.673 -25.845   5.789  0.00  0.00    +0.009 C 
ATOM     16  C   LIG    1       24.831 -24.834   5.842  0.00  0.00    +0.019 C 
ATOM     17  C   LIG    1       25.669 -25.050   7.115  0.00  0.00    +0.009 C 
ATOM     18  C   LIG    1       26.188 -26.487   7.212  0.00  0.00    +0.009 C 
BRANCH  16  19
ATOM     19  C   LIG    1       24.336 -23.398   5.726  0.00  0.00    -0.044 A 
ATOM     20  C   LIG    1       24.798 -22.547   4.711  0.00  0.00    +0.005 A 
ATOM     21  C   LIG    1       24.326 -21.236   4.603  0.00  0.00    +0.020 A 
ATOM     22  C   LIG    1       23.389 -20.760   5.516  0.00  0.00    +0.041 A 
ATOM     23 CL   LIG    1       22.803 -19.149   5.377  0.00  0.00    -0.084 Cl
ATOM     24  C   LIG    1       22.924 -21.585   6.537  0.00  0.00    +0.020 A 
ATOM     25  C   LIG    1       23.396 -22.898   6.642  0.00  0.00    +0.005 A 
ENDBRANCH  16  19
ENDBRANCH   4  13
BRANCH   3  26
ATOM     26  O   LIG    1       25.988 -28.700   9.588  0.00  0.00    -0.503 OA
ATOM     27  H   LIG    1       25.336 -27.982   9.431  0.00  0.00    +0.292 HD
ENDBRANCH   3  26
TORSDOF 3
ENDMDL
MODEL 4
REMARK VINA RESULT:      -6.6      6.671      7.840
REMARK  Name = *****
REMARK                            x       y       z     vdW  Elec       q    Type
REMARK                         _______ _______ _______ _____ _____    ______ ____
ROOT
ATOM      1  O   LIG    1       28.399 -33.825   7.656  0.00  0.00    -0.283 OA
ATOM      2  C   LIG    1       27.498 -33.119   7.209  0.00  0.00    +0.228 C 
ATOM      3  C   LIG    1       26.701 -32.287   8.147  0.00  0.00    +0.171 C 
ATOM      4  C   LIG    1       25.689 -31.495   7.748  0.00  0.00    +0.048 C 
ATOM      5  C   LIG    1       25.325 -31.470   6.298  0.00  0.00    +0.194 C 
ATOM      6  O   LIG    1       24.374 -30.816   5.882  0.00  0.00    -0.287 OA
ATOM      7  C   LIG    1       26.133 -32.257   5.340  0.00  0.00    +0.033 A 
ATOM      8  C   LIG    1       25.839 -32.205   3.968  0.00  0.00    +0.012 A 
ATOM      9  C   LIG    1       26.596 -32.944   3.055  0.00  0.00    +0.001 A 
ATOM     10  C   LIG    1       27.649 -33.739   3.504  0.00  0.00    +0.001 A 
ATOM     11  C   LIG    1       27.945 -33.797   4.866  0.00  0.00    +0.012 A 
ATOM     12  C   LIG    1       27.184 -33.055   5.779  0.00  0.00    +0.036 A 
ENDROOT
BRANCH   4  13
ATOM     13  C   LIG    1       24.904 -30.618   8.721  0.00  0.00    +0.026 C 
ATOM     14  C   LIG    1       25.785 -29.995   9.820  0.00  0.00    +0.009 C 
ATOM     15  C   LIG    1       24.973 -29.082  10.745  0.00  0.00    +0.009 C 
ATOM     16  C   LIG    1       23.777 -29.825  11.365  0.00  0.00    +0.019 C 
ATOM     17  C   LIG    1       22.885 -30.416  10.258  0.00  0.00    +0.009 C 
ATOM     18  C   LIG    1       23.679 -31.333   9.323  0.00  0.00    +0.009 C 
BRANCH  16  19
ATOM     19  C   LIG    1       22.987 -28.935  12.315  0.00  0.00    -0.044 A 
ATOM     20  C   LIG    1       23.624 -27.974  13.115  0.00  0.00    +0.005 A 
ATOM     21  C   LIG    1       22.888 -27.151  13.972  0.00  0.00    +0.020 A 
ATOM     22  C   LIG    1       21.505 -27.286  14.042  0.00  0.00    +0.041 A 
ATOM     23 CL   LIG    1       20.600 -26.267  15.092  0.00  0.00    -0.084 Cl
ATOM     24  C   LIG    1       20.853 -28.240  13.265  0.00  0.00    +0.020 A 
ATOM     25  C   LIG    1       21.590 -29.061  12.406  0.00  0.00    +0.005 A 
ENDBRANCH  16  19
ENDBRANCH   4  13
BRANCH   3  26
ATOM     26  O   LIG    1       27.073 -32.375   9.480  0.00  0.00    -0.503 OA
ATOM     27  H   LIG    1       26.702 -31.568   9.904  0.00  0.00    +0.292 HD
ENDBRANCH   3  26
TORSDOF 3
ENDMDL
MODEL 5
REMARK VINA RESULT:      -6.4      4.004      9.165
REMARK  Name = *****
REMARK                            x       y       z     vdW  Elec       q    Type
REMARK                         _______ _______ _______ _____ _____    ______ ____
ROOT
ATOM      1  O   LIG    1       26.078 -20.356   7.594  0.00  0.00    -0.283 OA
ATOM      2  C   LIG    1       25.677 -21.168   6.764  0.00  0.00    +0.228 C 
ATOM      3  C   LIG    1       25.709 -22.615   7.098  0.00  0.00    +0.171 C 
ATOM      4  C   LIG    1       25.301 -23.574   6.248  0.00  0.00    +0.048 C 
ATOM      5  C   LIG    1       24.820 -23.174   4.890  0.00  0.00    +0.194 C 
ATOM      6  O   LIG    1       24.493 -24.006   4.050  0.00  0.00    -0.287 OA
ATOM      7  C   LIG    1       24.738 -21.736   4.552  0.00  0.00    +0.033 A 
ATOM      8  C   LIG    1       24.239 -21.339   3.301  0.00  0.00    +0.012 A 
ATOM      9  C   LIG    1       24.157 -19.984   2.972  0.00  0.00    +0.001 A 
ATOM     10  C   LIG    1       24.572 -19.016   3.886  0.00  0.00    +0.001 A 
ATOM     11  C   LIG    1       25.070 -19.405   5.130  0.00  0.00    +0.012 A 
ATOM     12  C   LIG    1       25.151 -20.765   5.457  0.00  0.00    +0.036 A 
ENDROOT
BRANCH   4  13
ATOM     13  C   LIG    1       25.308 -25.056   6.622  0.00  0.00    +0.026 C 
ATOM     14  C   LIG    1       26.563 -25.799   6.127  0.00  0.00    +0.009 C 
ATOM     15  C   LIG    1       26.558 -27.268   6.564  0.00  0.00    +0.009 C 
ATOM     16  C   LIG    1       25.282 -27.991   6.101  0.00  0.00    +0.019 C 
ATOM     17  C   LIG    1       24.034 -27.260   6.627  0.00  0.00    +0.009 C 
ATOM     18  C   LIG    1       24.019 -25.789   6.200  0.00  0.00    +0.009 C 
BRANCH  16  19
ATOM     19  C   LIG    1       25.287 -29.461   6.499  0.00  0.00    -0.044 A 
ATOM     20  C   LIG    1       25.433 -30.476   5.540  0.00  0.00    +0.005 A 
ATOM     21  C   LIG    1       25.453 -31.822   5.917  0.00  0.00    +0.020 A 
ATOM     22  C   LIG    1       25.320 -32.167   7.259  0.00  0.00    +0.041 A 
ATOM     23 CL   LIG    1       25.352 -33.824   7.722  0.00  0.00    -0.084 Cl
ATOM     24  C   LIG    1       25.163 -31.177   8.225  0.00  0.00    +0.020 A 
ATOM     25  C   LIG    1       25.146 -29.830   7.847  0.00  0.00    +0.005 A 
ENDBRANCH  16  19
ENDBRANCH   4  13
BRANCH   3  26
ATOM     26  O   LIG    1       26.190 -22.922   8.363  0.00  0.00    -0.503 OA
ATOM     27  H   LIG    1       26.265 -22.057   8.825  0.00  0.00    +0.292 HD
ENDBRANCH   3  26
TORSDOF 3
ENDMDL
MODEL 6
REMARK VINA RESULT:      -6.4      4.070      9.172
REMARK  Name = *****
REMARK                            x       y       z     vdW  Elec       q    Type
REMARK                         _______ _______ _______ _____ _____    ______ ____
ROOT
ATOM      1  O   LIG    1       21.551 -20.391   4.716  0.00  0.00    -0.283 OA
ATOM      2  C   LIG    1       22.700 -20.769   4.930  0.00  0.00    +0.228 C 
ATOM      3  C   LIG    1       22.915 -22.082   5.592  0.00  0.00    +0.171 C 
ATOM      4  C   LIG    1       24.135 -22.570   5.877  0.00  0.00    +0.048 C 
ATOM      5  C   LIG    1       25.336 -21.744   5.541  0.00  0.00    +0.194 C 
ATOM      6  O   LIG    1       26.471 -22.107   5.830  0.00  0.00    -0.287 OA
ATOM      7  C   LIG    1       25.147 -20.453   4.842  0.00  0.00    +0.033 A 
ATOM      8  C   LIG    1       26.265 -19.688   4.472  0.00  0.00    +0.012 A 
ATOM      9  C   LIG    1       26.098 -18.469   3.811  0.00  0.00    +0.001 A 
ATOM     10  C   LIG    1       24.817 -18.003   3.516  0.00  0.00    +0.001 A 
ATOM     11  C   LIG    1       23.703 -18.758   3.883  0.00  0.00    +0.012 A 
ATOM     12  C   LIG    1       23.873 -19.981   4.546  0.00  0.00    +0.036 A 
ENDROOT
BRANCH   4  13
ATOM     13  C   LIG    1       24.339 -23.938   6.525  0.00  0.00    +0.026 C 
ATOM     14  C   LIG    1       25.750 -24.124   7.114  0.00  0.00    +0.009 C 
ATOM     15  C   LIG    1       25.901 -25.487   7.800  0.00  0.00    +0.009 C 
ATOM     16  C   LIG    1       25.555 -26.642   6.844  0.00  0.00    +0.019 C 
ATOM     17  C   LIG    1       24.132 -26.464   6.286  0.00  0.00    +0.009 C 
ATOM     18  C   LIG    1       23.961 -25.108   5.595  0.00  0.00    +0.009 C 
BRANCH  16  19
ATOM     19  C   LIG    1       25.739 -28.000   7.507  0.00  0.00    -0.044 A 
ATOM     20  C   LIG    1       26.484 -28.141   8.687  0.00  0.00    +0.005 A 
ATOM     21  C   LIG    1       26.633 -29.391   9.297  0.00  0.00    +0.020 A 
ATOM     22  C   LIG    1       26.042 -30.514   8.726  0.00  0.00    +0.041 A 
ATOM     23 CL   LIG    1       26.221 -32.049   9.482  0.00  0.00    -0.084 Cl
ATOM     24  C   LIG    1       25.307 -30.399   7.549  0.00  0.00    +0.020 A 
ATOM     25  C   LIG    1       25.156 -29.147   6.942  0.00  0.00    +0.005 A 
ENDBRANCH  16  19
ENDBRANCH   4  13
BRANCH   3  26
ATOM     26  O   LIG    1       21.760 -22.787   5.900  0.00  0.00    -0.503 OA
ATOM     27  H   LIG    1       21.027 -22.261   5.510  0.00  0.00    +0.292 HD
ENDBRANCH   3  26
TORSDOF 3
ENDMDL
MODEL 7
REMARK VINA RESULT:      -6.3      4.001      9.416
REMARK  Name = *****
REMARK                            x       y       z     vdW  Elec       q    Type
REMARK                         _______ _______ _______ _____ _____    ______ ____
ROOT
ATOM      1  O   LIG    1       26.467 -19.670   4.884  0.00  0.00    -0.283 OA
ATOM      2  C   LIG    1       25.427 -20.299   5.064  0.00  0.00    +0.228 C 
ATOM      3  C   LIG    1       25.503 -21.670   5.632  0.00  0.00    +0.171 C 
ATOM      4  C   LIG    1       24.418 -22.434   5.850  0.00  0.00    +0.048 C 
ATOM      5  C   LIG    1       23.073 -21.898   5.478  0.00  0.00    +0.194 C 
ATOM      6  O   LIG    1       22.054 -22.570   5.596  0.00  0.00    -0.287 OA
ATOM      7  C   LIG    1       22.970 -20.519   4.952  0.00  0.00    +0.033 A 
ATOM      8  C   LIG    1       21.711 -19.978   4.647  0.00  0.00    +0.012 A 
ATOM      9  C   LIG    1       21.603 -18.677   4.149  0.00  0.00    +0.001 A 
ATOM     10  C   LIG    1       22.748 -17.906   3.953  0.00  0.00    +0.001 A 
ATOM     11  C   LIG    1       24.002 -18.439   4.253  0.00  0.00    +0.012 A 
ATOM     12  C   LIG    1       24.108 -19.744   4.751  0.00  0.00    +0.036 A 
ENDROOT
BRANCH   4  13
ATOM     13  C   LIG    1       24.511 -23.828   6.468  0.00  0.00    +0.026 C 
ATOM     14  C   LIG    1       25.879 -24.113   7.116  0.00  0.00    +0.009 C 
ATOM     15  C   LIG    1       25.916 -25.498   7.770  0.00  0.00    +0.009 C 
ATOM     16  C   LIG    1       25.550 -26.607   6.768  0.00  0.00    +0.019 C 
ATOM     17  C   LIG    1       24.167 -26.331   6.151  0.00  0.00    +0.009 C 
ATOM     18  C   LIG    1       24.110 -24.950   5.490  0.00  0.00    +0.009 C 
BRANCH  16  19
ATOM     19  C   LIG    1       25.622 -27.990   7.401  0.00  0.00    -0.044 A 
ATOM     20  C   LIG    1       26.310 -28.207   8.605  0.00  0.00    +0.005 A 
ATOM     21  C   LIG    1       26.357 -29.477   9.185  0.00  0.00    +0.020 A 
ATOM     22  C   LIG    1       25.720 -30.547   8.564  0.00  0.00    +0.041 A 
ATOM     23 CL   LIG    1       25.772 -32.108   9.284  0.00  0.00    -0.084 Cl
ATOM     24  C   LIG    1       25.040 -30.356   7.363  0.00  0.00    +0.020 A 
ATOM     25  C   LIG    1       24.992 -29.084   6.784  0.00  0.00    +0.005 A 
ENDBRANCH  16  19
ENDBRANCH   4  13
BRANCH   3  26
ATOM     26  O   LIG    1       26.781 -22.118   5.931  0.00  0.00    -0.503 OA
ATOM     27  H   LIG    1       27.241 -21.340   6.318  0.00  0.00    +0.292 HD
ENDBRANCH   3  26
TORSDOF 3
ENDMDL
MODEL 8
REMARK VINA RESULT:      -6.1      1.616      2.886
REMARK  Name = *****
REMARK                            x       y       z     vdW  Elec       q    Type
REMARK                         _______ _______ _______ _____ _____    ______ ____
ROOT
ATOM      1  O   LIG    1       26.772 -30.513   9.782  0.00  0.00    -0.283 OA
ATOM      2  C   LIG    1       26.420 -30.353   8.616  0.00  0.00    +0.228 C 
ATOM      3  C   LIG    1       26.111 -28.980   8.139  0.00  0.00    +0.171 C 
ATOM      4  C   LIG    1       25.707 -28.712   6.884  0.00  0.00    +0.048 C 
ATOM      5  C   LIG    1       25.531 -29.848   5.928  0.00  0.00    +0.194 C 
ATOM      6  O   LIG    1       25.107 -29.675   4.790  0.00  0.00    -0.287 OA
ATOM      7  C   LIG    1       25.875 -31.218   6.368  0.00  0.00    +0.033 A 
ATOM      8  C   LIG    1       25.766 -32.290   5.468  0.00  0.00    +0.012 A 
ATOM      9  C   LIG    1       26.089 -33.588   5.874  0.00  0.00    +0.001 A 
ATOM     10  C   LIG    1       26.522 -33.825   7.178  0.00  0.00    +0.001 A 
ATOM     11  C   LIG    1       26.630 -32.764   8.076  0.00  0.00    +0.012 A 
ATOM     12  C   LIG    1       26.305 -31.463   7.667  0.00  0.00    +0.036 A 
ENDROOT
BRANCH   4  13
ATOM     13  C   LIG    1       25.428 -27.290   6.400  0.00  0.00    +0.026 C 
ATOM     14  C   LIG    1       26.191 -26.219   7.201  0.00  0.00    +0.009 C 
ATOM     15  C   LIG    1       25.927 -24.811   6.654  0.00  0.00    +0.009 C 
ATOM     16  C   LIG    1       24.422 -24.492   6.618  0.00  0.00    +0.019 C 
ATOM     17  C   LIG    1       23.673 -25.551   5.789  0.00  0.00    +0.009 C 
ATOM     18  C   LIG    1       23.924 -26.965   6.320  0.00  0.00    +0.009 C 
BRANCH  16  19
ATOM     19  C   LIG    1       24.154 -23.081   6.112  0.00  0.00    -0.044 A 
ATOM     20  C   LIG    1       23.255 -22.228   6.771  0.00  0.00    +0.005 A 
ATOM     21  C   LIG    1       23.027 -20.930   6.308  0.00  0.00    +0.020 A 
ATOM     22  C   LIG    1       23.693 -20.472   5.174  0.00  0.00    +0.041 A 
ATOM     23 CL   LIG    1       23.417 -18.870   4.611  0.00  0.00    -0.084 Cl
ATOM     24  C   LIG    1       24.581 -21.305   4.499  0.00  0.00    +0.020 A 
ATOM     25  C   LIG    1       24.810 -22.604   4.965  0.00  0.00    +0.005 A 
ENDBRANCH  16  19
ENDBRANCH   4  13
BRANCH   3  26
ATOM     26  O   LIG    1       26.270 -27.975   9.082  0.00  0.00    -0.503 OA
ATOM     27  H   LIG    1       26.008 -28.382   9.937  0.00  0.00    +0.292 HD
ENDBRANCH   3  26
TORSDOF 3
ENDMDL
MODEL 9
REMARK VINA RESULT:      -5.5      4.415      9.024
REMARK  Name = *****
REMARK                            x       y       z     vdW  Elec       q    Type
REMARK                         _______ _______ _______ _____ _____    ______ ____
ROOT
ATOM      1  O   LIG    1       24.633 -19.559   3.612  0.00  0.00    -0.283 OA
ATOM      2  C   LIG    1       25.350 -20.184   4.390  0.00  0.00    +0.228 C 
ATOM      3  C   LIG    1       24.927 -21.539   4.830  0.00  0.00    +0.171 C 
ATOM      4  C   LIG    1       25.641 -22.288   5.688  0.00  0.00    +0.048 C 
ATOM      5  C   LIG    1       26.906 -21.726   6.253  0.00  0.00    +0.194 C 
ATOM      6  O   LIG    1       27.569 -22.336   7.086  0.00  0.00    -0.287 OA
ATOM      7  C   LIG    1       27.369 -20.397   5.796  0.00  0.00    +0.033 A 
ATOM      8  C   LIG    1       28.581 -19.875   6.275  0.00  0.00    +0.012 A 
ATOM      9  C   LIG    1       29.027 -18.621   5.850  0.00  0.00    +0.001 A 
ATOM     10  C   LIG    1       28.269 -17.880   4.944  0.00  0.00    +0.001 A 
ATOM     11  C   LIG    1       27.063 -18.393   4.466  0.00  0.00    +0.012 A 
ATOM     12  C   LIG    1       26.618 -19.651   4.895  0.00  0.00    +0.036 A 
ENDROOT
BRANCH   4  13
ATOM     13  C   LIG    1       25.210 -23.694   6.101  0.00  0.00    +0.026 C 
ATOM     14  C   LIG    1       26.214 -24.382   7.044  0.00  0.00    +0.009 C 
ATOM     15  C   LIG    1       25.724 -25.768   7.478  0.00  0.00    +0.009 C 
ATOM     16  C   LIG    1       25.417 -26.664   6.266  0.00  0.00    +0.019 C 
ATOM     17  C   LIG    1       24.388 -25.982   5.346  0.00  0.00    +0.009 C 
ATOM     18  C   LIG    1       24.860 -24.595   4.901  0.00  0.00    +0.009 C 
BRANCH  16  19
ATOM     19  C   LIG    1       24.965 -28.055   6.688  0.00  0.00    -0.044 A 
ATOM     20  C   LIG    1       25.246 -28.556   7.969  0.00  0.00    +0.005 A 
ATOM     21  C   LIG    1       24.813 -29.828   8.352  0.00  0.00    +0.020 A 
ATOM     22  C   LIG    1       24.098 -30.617   7.455  0.00  0.00    +0.041 A 
ATOM     23 CL   LIG    1       23.559 -32.179   7.932  0.00  0.00    -0.084 Cl
ATOM     24  C   LIG    1       23.817 -30.143   6.176  0.00  0.00    +0.020 A 
ATOM     25  C   LIG    1       24.249 -28.869   5.794  0.00  0.00    +0.005 A 
ENDBRANCH  16  19
ENDBRANCH   4  13
BRANCH   3  26
ATOM     26  O   LIG    1       23.732 -21.992   4.289  0.00  0.00    -0.503 OA
ATOM     27  H   LIG    1       23.372 -22.620   4.954  0.00  0.00    +0.292 HD
ENDBRANCH   3  26
TORSDOF 3
ENDMDL
