MODEL 1
REMARK VINA RESULT:      -8.4      0.000      0.000
REMARK  Name = *****
REMARK                            x       y       z     vdW  Elec       q    Type
REMARK                         _______ _______ _______ _____ _____    ______ ____
ROOT
ATOM      1  C   LIG    1       31.317 -17.611   9.677  0.00  0.00    +0.167 A 
ATOM      2  N   LIG    1       32.088 -18.727   9.914  0.00  0.00    -0.125 NA
ATOM      3  N   LIG    1       31.948 -19.555   8.888  0.00  0.00    -0.065 NA
ATOM      4  N   LIG    1       31.091 -18.983   8.020  0.00  0.00    -0.246 N 
ATOM      5  C   LIG    1       30.678 -17.763   8.464  0.00  0.00    +0.143 A 
ENDROOT
BRANCH   1   9
ATOM      6  N   LIG    1       32.334 -15.673  10.590  0.00  0.00    -0.324 N 
ATOM      7  H   LIG    1       33.126 -15.875   9.993  0.00  0.00    +0.145 HD
ATOM      8  H   LIG    1       32.347 -14.870  11.200  0.00  0.00    +0.145 HD
ATOM      9  C   LIG    1       31.235 -16.485  10.589  0.00  0.00    +0.263 C 
ATOM     10  O   LIG    1       30.269 -16.255  11.310  0.00  0.00    -0.269 OA
ENDBRANCH   1   9
BRANCH   4  11
ATOM     11  C   LIG    1       30.758 -19.639   6.769  0.00  0.00    +0.186 C 
BRANCH  11  12
ATOM     12  C   LIG    1       29.336 -20.108   6.763  0.00  0.00    +0.044 A 
ATOM     13  C   LIG    1       28.917 -21.143   7.599  0.00  0.00    +0.131 A 
ATOM     14  F   LIG    1       29.790 -21.702   8.450  0.00  0.00    -0.205 F 
ATOM     15  C   LIG    1       27.605 -21.612   7.577  0.00  0.00    +0.039 A 
ATOM     16  C   LIG    1       26.683 -21.047   6.698  0.00  0.00    +0.006 A 
ATOM     17  C   LIG    1       27.082 -20.012   5.854  0.00  0.00    +0.039 A 
ATOM     18  C   LIG    1       28.398 -19.554   5.893  0.00  0.00    +0.131 A 
ATOM     19  F   LIG    1       28.755 -18.549   5.080  0.00  0.00    -0.205 F 
ENDBRANCH  11  12
ENDBRANCH   4  11
TORSDOF 3
ENDMDL
MODEL 2
REMARK VINA RESULT:      -8.4      0.098      1.998
REMARK  Name = *****
REMARK                            x       y       z     vdW  Elec       q    Type
REMARK                         _______ _______ _______ _____ _____    ______ ____
ROOT
ATOM      1  C   LIG    1       31.265 -17.661   9.707  0.00  0.00    +0.167 A 
ATOM      2  N   LIG    1       32.064 -18.765   9.906  0.00  0.00    -0.125 NA
ATOM      3  N   LIG    1       31.931 -19.569   8.860  0.00  0.00    -0.065 NA
ATOM      4  N   LIG    1       31.053 -18.994   8.016  0.00  0.00    -0.246 N 
ATOM      5  C   LIG    1       30.616 -17.796   8.497  0.00  0.00    +0.143 A 
ENDROOT
BRANCH   1   9
ATOM      6  N   LIG    1       32.299 -15.804  10.758  0.00  0.00    -0.324 N 
ATOM      7  H   LIG    1       33.122 -16.025  10.213  0.00  0.00    +0.145 HD
ATOM      8  H   LIG    1       32.304 -15.022  11.395  0.00  0.00    +0.145 HD
ATOM      9  C   LIG    1       31.168 -16.562  10.649  0.00  0.00    +0.263 C 
ATOM     10  O   LIG    1       30.163 -16.309  11.307  0.00  0.00    -0.269 OA
ENDBRANCH   1   9
BRANCH   4  11
ATOM     11  C   LIG    1       30.721 -19.624   6.752  0.00  0.00    +0.186 C 
BRANCH  11  12
ATOM     12  C   LIG    1       29.319 -20.151   6.758  0.00  0.00    +0.044 A 
ATOM     13  C   LIG    1       28.345 -19.614   5.916  0.00  0.00    +0.131 A 
ATOM     14  F   LIG    1       28.676 -18.638   5.059  0.00  0.00    -0.205 F 
ATOM     15  C   LIG    1       27.029 -20.071   5.939  0.00  0.00    +0.039 A 
ATOM     16  C   LIG    1       26.663 -21.083   6.826  0.00  0.00    +0.006 A 
ATOM     17  C   LIG    1       27.622 -21.632   7.676  0.00  0.00    +0.039 A 
ATOM     18  C   LIG    1       28.934 -21.164   7.635  0.00  0.00    +0.131 A 
ATOM     19  F   LIG    1       29.841 -21.716   8.455  0.00  0.00    -0.205 F 
ENDBRANCH  11  12
ENDBRANCH   4  11
TORSDOF 3
ENDMDL
MODEL 3
REMARK VINA RESULT:      -8.1      6.925      8.491
REMARK  Name = *****
REMARK                            x       y       z     vdW  Elec       q    Type
REMARK                         _______ _______ _______ _____ _____    ______ ____
ROOT
ATOM      1  C   LIG    1       25.167 -25.396   6.451  0.00  0.00    +0.167 A 
ATOM      2  N   LIG    1       23.798 -25.490   6.342  0.00  0.00    -0.125 NA
ATOM      3  N   LIG    1       23.276 -24.305   6.630  0.00  0.00    -0.065 NA
ATOM      4  N   LIG    1       24.293 -23.476   6.931  0.00  0.00    -0.246 N 
ATOM      5  C   LIG    1       25.496 -24.109   6.824  0.00  0.00    +0.143 A 
ENDROOT
BRANCH   1   9
ATOM      6  N   LIG    1       26.161 -27.408   7.216  0.00  0.00    -0.324 N 
ATOM      7  H   LIG    1       25.632 -27.280   8.069  0.00  0.00    +0.145 HD
ATOM      8  H   LIG    1       26.770 -28.205   7.109  0.00  0.00    +0.145 HD
ATOM      9  C   LIG    1       26.070 -26.504   6.196  0.00  0.00    +0.263 C 
ATOM     10  O   LIG    1       26.709 -26.643   5.158  0.00  0.00    -0.269 OA
ENDBRANCH   1   9
BRANCH   4  11
ATOM     11  C   LIG    1       24.041 -22.086   7.261  0.00  0.00    +0.186 C 
BRANCH  11  12
ATOM     12  C   LIG    1       24.283 -21.195   6.082  0.00  0.00    +0.044 A 
ATOM     13  C   LIG    1       23.252 -20.875   5.200  0.00  0.00    +0.131 A 
ATOM     14  F   LIG    1       22.016 -21.340   5.429  0.00  0.00    -0.205 F 
ATOM     15  C   LIG    1       23.472 -20.077   4.078  0.00  0.00    +0.039 A 
ATOM     16  C   LIG    1       24.752 -19.586   3.820  0.00  0.00    +0.006 A 
ATOM     17  C   LIG    1       25.796 -19.896   4.690  0.00  0.00    +0.039 A 
ATOM     18  C   LIG    1       25.554 -20.692   5.808  0.00  0.00    +0.131 A 
ATOM     19  F   LIG    1       26.572 -20.966   6.636  0.00  0.00    -0.205 F 
ENDBRANCH  11  12
ENDBRANCH   4  11
TORSDOF 3
ENDMDL
MODEL 4
REMARK VINA RESULT:      -8.1      6.972      8.446
REMARK  Name = *****
REMARK                            x       y       z     vdW  Elec       q    Type
REMARK                         _______ _______ _______ _____ _____    ______ ____
ROOT
ATOM      1  C   LIG    1       25.179 -25.429   6.439  0.00  0.00    +0.167 A 
ATOM      2  N   LIG    1       23.809 -25.536   6.341  0.00  0.00    -0.125 NA
ATOM      3  N   LIG    1       23.279 -24.354   6.625  0.00  0.00    -0.065 NA
ATOM      4  N   LIG    1       24.290 -23.514   6.913  0.00  0.00    -0.246 N 
ATOM      5  C   LIG    1       25.498 -24.137   6.801  0.00  0.00    +0.143 A 
ENDROOT
BRANCH   1   9
ATOM      6  N   LIG    1       26.200 -27.424   7.213  0.00  0.00    -0.324 N 
ATOM      7  H   LIG    1       25.679 -27.292   8.070  0.00  0.00    +0.145 HD
ATOM      8  H   LIG    1       26.816 -28.216   7.107  0.00  0.00    +0.145 HD
ATOM      9  C   LIG    1       26.089 -26.531   6.186  0.00  0.00    +0.263 C 
ATOM     10  O   LIG    1       26.718 -26.674   5.142  0.00  0.00    -0.269 OA
ENDBRANCH   1   9
BRANCH   4  11
ATOM     11  C   LIG    1       24.028 -22.124   7.235  0.00  0.00    +0.186 C 
BRANCH  11  12
ATOM     12  C   LIG    1       24.232 -21.242   6.042  0.00  0.00    +0.044 A 
ATOM     13  C   LIG    1       25.483 -20.695   5.757  0.00  0.00    +0.131 A 
ATOM     14  F   LIG    1       26.530 -20.992   6.540  0.00  0.00    -0.205 F 
ATOM     15  C   LIG    1       25.677 -19.844   4.670  0.00  0.00    +0.039 A 
ATOM     16  C   LIG    1       24.600 -19.519   3.846  0.00  0.00    +0.006 A 
ATOM     17  C   LIG    1       23.342 -20.055   4.114  0.00  0.00    +0.039 A 
ATOM     18  C   LIG    1       23.169 -20.908   5.203  0.00  0.00    +0.131 A 
ATOM     19  F   LIG    1       21.952 -21.420   5.434  0.00  0.00    -0.205 F 
ENDBRANCH  11  12
ENDBRANCH   4  11
TORSDOF 3
ENDMDL
MODEL 5
REMARK VINA RESULT:      -8.1      3.512      4.839
REMARK  Name = *****
REMARK                            x       y       z     vdW  Elec       q    Type
REMARK                         _______ _______ _______ _____ _____    ______ ____
ROOT
ATOM      1  C   LIG    1       28.808 -19.965   7.344  0.00  0.00    +0.167 A 
ATOM      2  N   LIG    1       28.001 -19.866   8.455  0.00  0.00    -0.125 NA
ATOM      3  N   LIG    1       26.857 -20.484   8.195  0.00  0.00    -0.065 NA
ATOM      4  N   LIG    1       26.928 -20.955   6.936  0.00  0.00    -0.246 N 
ATOM      5  C   LIG    1       28.131 -20.664   6.366  0.00  0.00    +0.143 A 
ENDROOT
BRANCH   1   9
ATOM      6  N   LIG    1       31.131 -20.237   7.733  0.00  0.00    -0.324 N 
ATOM      7  H   LIG    1       30.906 -21.156   8.094  0.00  0.00    +0.145 HD
ATOM      8  H   LIG    1       32.087 -19.917   7.714  0.00  0.00    +0.145 HD
ATOM      9  C   LIG    1       30.147 -19.409   7.272  0.00  0.00    +0.263 C 
ATOM     10  O   LIG    1       30.403 -18.291   6.836  0.00  0.00    -0.269 OA
ENDBRANCH   1   9
BRANCH   4  11
ATOM     11  C   LIG    1       25.829 -21.713   6.367  0.00  0.00    +0.186 C 
BRANCH  11  12
ATOM     12  C   LIG    1       24.807 -20.810   5.750  0.00  0.00    +0.044 A 
ATOM     13  C   LIG    1       23.567 -20.608   6.355  0.00  0.00    +0.131 A 
ATOM     14  F   LIG    1       23.297 -21.201   7.526  0.00  0.00    -0.205 F 
ATOM     15  C   LIG    1       22.593 -19.799   5.771  0.00  0.00    +0.039 A 
ATOM     16  C   LIG    1       22.853 -19.175   4.551  0.00  0.00    +0.006 A 
ATOM     17  C   LIG    1       24.086 -19.365   3.930  0.00  0.00    +0.039 A 
ATOM     18  C   LIG    1       25.048 -20.176   4.531  0.00  0.00    +0.131 A 
ATOM     19  F   LIG    1       26.231 -20.333   3.921  0.00  0.00    -0.205 F 
ENDBRANCH  11  12
ENDBRANCH   4  11
TORSDOF 3
ENDMDL
MODEL 6
REMARK VINA RESULT:      -8.0      3.828      5.425
REMARK  Name = *****
REMARK                            x       y       z     vdW  Elec       q    Type
REMARK                         _______ _______ _______ _____ _____    ______ ____
ROOT
ATOM      1  C   LIG    1       28.063 -20.203   7.713  0.00  0.00    +0.167 A 
ATOM      2  N   LIG    1       27.056 -20.274   8.650  0.00  0.00    -0.125 NA
ATOM      3  N   LIG    1       25.989 -20.809   8.073  0.00  0.00    -0.065 NA
ATOM      4  N   LIG    1       26.305 -21.062   6.789  0.00  0.00    -0.246 N 
ATOM      5  C   LIG    1       27.594 -20.709   6.518  0.00  0.00    +0.143 A 
ENDROOT
BRANCH   1   9
ATOM      6  N   LIG    1       30.390 -20.238   7.258  0.00  0.00    -0.324 N 
ATOM      7  H   LIG    1       30.190 -20.964   6.582  0.00  0.00    +0.145 HD
ATOM      8  H   LIG    1       31.337 -19.921   7.401  0.00  0.00    +0.145 HD
ATOM      9  C   LIG    1       29.386 -19.677   7.995  0.00  0.00    +0.263 C 
ATOM     10  O   LIG    1       29.613 -18.799   8.822  0.00  0.00    -0.269 OA
ENDBRANCH   1   9
BRANCH   4  11
ATOM     11  C   LIG    1       25.344 -21.685   5.899  0.00  0.00    +0.186 C 
BRANCH  11  12
ATOM     12  C   LIG    1       24.414 -20.671   5.307  0.00  0.00    +0.044 A 
ATOM     13  C   LIG    1       24.772 -19.941   4.174  0.00  0.00    +0.131 A 
ATOM     14  F   LIG    1       25.951 -20.176   3.581  0.00  0.00    -0.205 F 
ATOM     15  C   LIG    1       23.930 -18.969   3.636  0.00  0.00    +0.039 A 
ATOM     16  C   LIG    1       22.701 -18.707   4.241  0.00  0.00    +0.006 A 
ATOM     17  C   LIG    1       22.325 -19.426   5.374  0.00  0.00    +0.039 A 
ATOM     18  C   LIG    1       23.179 -20.397   5.895  0.00  0.00    +0.131 A 
ATOM     19  F   LIG    1       22.790 -21.083   6.979  0.00  0.00    -0.205 F 
ENDBRANCH  11  12
ENDBRANCH   4  11
TORSDOF 3
ENDMDL
MODEL 7
REMARK VINA RESULT:      -7.8      6.026      8.193
REMARK  Name = *****
REMARK                            x       y       z     vdW  Elec       q    Type
REMARK                         _______ _______ _______ _____ _____    ______ ____
ROOT
ATOM      1  C   LIG    1       24.477 -24.633   6.064  0.00  0.00    +0.167 A 
ATOM      2  N   LIG    1       23.244 -24.485   6.658  0.00  0.00    -0.125 NA
ATOM      3  N   LIG    1       23.065 -23.200   6.931  0.00  0.00    -0.065 NA
ATOM      4  N   LIG    1       24.171 -22.543   6.532  0.00  0.00    -0.246 N 
ATOM      5  C   LIG    1       25.078 -23.394   5.975  0.00  0.00    +0.143 A 
ENDROOT
BRANCH   1   9
ATOM      6  N   LIG    1       24.099 -26.932   5.626  0.00  0.00    -0.324 N 
ATOM      7  H   LIG    1       23.147 -26.776   5.930  0.00  0.00    +0.145 HD
ATOM      8  H   LIG    1       24.395 -27.850   5.328  0.00  0.00    +0.145 HD
ATOM      9  C   LIG    1       25.005 -25.910   5.618  0.00  0.00    +0.263 C 
ATOM     10  O   LIG    1       26.164 -26.084   5.256  0.00  0.00    -0.269 OA
ENDBRANCH   1   9
BRANCH   4  11
ATOM     11  C   LIG    1       24.266 -21.102   6.670  0.00  0.00    +0.186 C 
BRANCH  11  12
ATOM     12  C   LIG    1       25.694 -20.653   6.719  0.00  0.00    +0.044 A 
ATOM     13  C   LIG    1       26.374 -20.290   5.557  0.00  0.00    +0.131 A 
ATOM     14  F   LIG    1       25.730 -20.305   4.381  0.00  0.00    -0.205 F 
ATOM     15  C   LIG    1       27.713 -19.906   5.585  0.00  0.00    +0.039 A 
ATOM     16  C   LIG    1       28.402 -19.887   6.798  0.00  0.00    +0.006 A 
ATOM     17  C   LIG    1       27.740 -20.247   7.971  0.00  0.00    +0.039 A 
ATOM     18  C   LIG    1       26.399 -20.625   7.922  0.00  0.00    +0.131 A 
ATOM     19  F   LIG    1       25.781 -20.955   9.065  0.00  0.00    -0.205 F 
ENDBRANCH  11  12
ENDBRANCH   4  11
TORSDOF 3
ENDMDL
MODEL 8
REMARK VINA RESULT:      -7.8      6.037      8.020
REMARK  Name = *****
REMARK                            x       y       z     vdW  Elec       q    Type
REMARK                         _______ _______ _______ _____ _____    ______ ____
ROOT
ATOM      1  C   LIG    1       24.443 -24.648   6.019  0.00  0.00    +0.167 A 
ATOM      2  N   LIG    1       23.224 -24.490   6.639  0.00  0.00    -0.125 NA
ATOM      3  N   LIG    1       23.072 -23.206   6.936  0.00  0.00    -0.065 NA
ATOM      4  N   LIG    1       24.181 -22.562   6.527  0.00  0.00    -0.246 N 
ATOM      5  C   LIG    1       25.063 -23.419   5.938  0.00  0.00    +0.143 A 
ENDROOT
BRANCH   1   9
ATOM      6  N   LIG    1       24.084 -26.974   5.730  0.00  0.00    -0.324 N 
ATOM      7  H   LIG    1       23.185 -26.834   6.174  0.00  0.00    +0.145 HD
ATOM      8  H   LIG    1       24.363 -27.894   5.423  0.00  0.00    +0.145 HD
ATOM      9  C   LIG    1       24.940 -25.926   5.543  0.00  0.00    +0.263 C 
ATOM     10  O   LIG    1       26.034 -26.082   5.010  0.00  0.00    -0.269 OA
ENDBRANCH   1   9
BRANCH   4  11
ATOM     11  C   LIG    1       24.303 -21.124   6.685  0.00  0.00    +0.186 C 
BRANCH  11  12
ATOM     12  C   LIG    1       25.739 -20.702   6.723  0.00  0.00    +0.044 A 
ATOM     13  C   LIG    1       26.444 -20.657   7.926  0.00  0.00    +0.131 A 
ATOM     14  F   LIG    1       25.841 -21.034   9.062  0.00  0.00    -0.205 F 
ATOM     15  C   LIG    1       27.770 -20.230   7.979  0.00  0.00    +0.039 A 
ATOM     16  C   LIG    1       28.415 -19.830   6.809  0.00  0.00    +0.006 A 
ATOM     17  C   LIG    1       27.727 -19.867   5.597  0.00  0.00    +0.039 A 
ATOM     18  C   LIG    1       26.403 -20.300   5.564  0.00  0.00    +0.131 A 
ATOM     19  F   LIG    1       25.766 -20.338   4.385  0.00  0.00    -0.205 F 
ENDBRANCH  11  12
ENDBRANCH   4  11
TORSDOF 3
ENDMDL
MODEL 9
REMARK VINA RESULT:      -7.7      6.626      8.095
REMARK  Name = *****
REMARK                            x       y       z     vdW  Elec       q    Type
REMARK                         _______ _______ _______ _____ _____    ______ ____
ROOT
ATOM      1  C   LIG    1       25.765 -25.131   6.162  0.00  0.00    +0.167 A 
ATOM      2  N   LIG    1       25.070 -24.660   5.071  0.00  0.00    -0.125 NA
ATOM      3  N   LIG    1       24.934 -23.347   5.200  0.00  0.00    -0.065 NA
ATOM      4  N   LIG    1       25.519 -22.991   6.359  0.00  0.00    -0.246 N 
ATOM      5  C   LIG    1       26.062 -24.069   6.992  0.00  0.00    +0.143 A 
ENDROOT
BRANCH   1   9
ATOM      6  N   LIG    1       26.579 -27.155   5.234  0.00  0.00    -0.324 N 
ATOM      7  H   LIG    1       26.664 -26.654   4.359  0.00  0.00    +0.145 HD
ATOM      8  H   LIG    1       26.838 -28.129   5.291  0.00  0.00    +0.145 HD
ATOM      9  C   LIG    1       26.107 -26.528   6.352  0.00  0.00    +0.263 C 
ATOM     10  O   LIG    1       25.995 -27.124   7.420  0.00  0.00    -0.269 OA
ENDBRANCH   1   9
BRANCH   4  11
ATOM     11  C   LIG    1       25.564 -21.599   6.768  0.00  0.00    +0.186 C 
BRANCH  11  12
ATOM     12  C   LIG    1       24.696 -20.748   5.894  0.00  0.00    +0.044 A 
ATOM     13  C   LIG    1       23.340 -20.580   6.173  0.00  0.00    +0.131 A 
ATOM     14  F   LIG    1       22.811 -21.157   7.261  0.00  0.00    -0.205 F 
ATOM     15  C   LIG    1       22.514 -19.820   5.347  0.00  0.00    +0.039 A 
ATOM     16  C   LIG    1       23.043 -19.213   4.208  0.00  0.00    +0.006 A 
ATOM     17  C   LIG    1       24.397 -19.370   3.912  0.00  0.00    +0.039 A 
ATOM     18  C   LIG    1       25.207 -20.131   4.753  0.00  0.00    +0.131 A 
ATOM     19  F   LIG    1       26.508 -20.257   4.453  0.00  0.00    -0.205 F 
ENDBRANCH  11  12
ENDBRANCH   4  11
TORSDOF 3
ENDMDL
