MODEL 1
REMARK VINA RESULT:      -8.3      0.000      0.000
REMARK  Name = *****
REMARK                            x       y       z     vdW  Elec       q    Type
REMARK                         _______ _______ _______ _____ _____    ______ ____
ROOT
ATOM      1  C   LIG    1       24.454 -20.234   4.679  0.00  0.00    +0.065 C 
ATOM      2  C   LIG    1       25.442 -21.281   5.247  0.00  0.00    +0.102 C 
ATOM      3  C   LIG    1       24.715 -22.486   5.887  0.00  0.00    +0.065 C 
ATOM      4  C   LIG    1       23.405 -22.380   6.230  0.00  0.00    +0.016 C 
ATOM      5  C   LIG    1       22.573 -23.456   6.890  0.00  0.00    +0.061 C 
ATOM      6  N   LIG    1       22.720 -21.207   5.964  0.00  0.00    -0.321 N 
ATOM      7  H   LIG    1       21.713 -21.244   6.114  0.00  0.00    +0.152 HD
ATOM      8  C   LIG    1       23.159 -20.233   5.086  0.00  0.00    +0.016 C 
ATOM      9  C   LIG    1       22.080 -19.278   4.631  0.00  0.00    +0.061 C 
ENDROOT
BRANCH   2  10
ATOM     10  C   LIG    1       26.572 -20.703   6.141  0.00  0.00    +0.042 A 
ATOM     11  C   LIG    1       26.570 -20.593   7.548  0.00  0.00    +0.277 A 
ATOM     12  C   LIG    1       27.660 -20.069   8.278  0.00  0.00    +0.084 A 
ATOM     13  C   LIG    1       28.789 -19.609   7.616  0.00  0.00    +0.007 A 
ATOM     14  C   LIG    1       28.834 -19.694   6.231  0.00  0.00    +0.001 A 
ATOM     15  C   LIG    1       27.756 -20.242   5.510  0.00  0.00    +0.011 A 
BRANCH  11  16
ATOM     16  N   LIG    1       25.449 -20.990   8.374  0.00  0.00    +0.080 N 
ATOM     17  O   LIG    1       24.429 -20.292   8.292  0.00  0.00    -0.576 OA
ATOM     18  O   LIG    1       25.647 -21.890   9.198  0.00  0.00    +0.042 OA
ENDBRANCH  11  16
ENDBRANCH   2  10
BRANCH   1  19
ATOM     19  C   LIG    1       24.942 -19.408   3.531  0.00  0.00    +0.337 C 
ATOM     20  O   LIG    1       25.112 -19.848   2.403  0.00  0.00    -0.245 OA
BRANCH  19  22
ATOM     21  C   LIG    1       26.061 -17.323   3.269  0.00  0.00    +0.280 C 
ATOM     22  O   LIG    1       25.020 -18.098   3.874  0.00  0.00    -0.465 OA
ENDBRANCH  19  22
ENDBRANCH   1  19
BRANCH   3  23
ATOM     23  C   LIG    1       25.413 -23.799   5.981  0.00  0.00    +0.337 C 
ATOM     24  O   LIG    1       26.043 -24.200   6.961  0.00  0.00    -0.245 OA
BRANCH  23  25
ATOM     25  O   LIG    1       25.146 -24.544   4.885  0.00  0.00    -0.465 OA
ATOM     26  C   LIG    1       25.277 -25.963   5.021  0.00  0.00    +0.280 C 
ENDBRANCH  23  25
ENDBRANCH   3  23
TORSDOF 6
ENDMDL
MODEL 2
REMARK VINA RESULT:      -7.0      1.982      4.451
REMARK  Name = *****
REMARK                            x       y       z     vdW  Elec       q    Type
REMARK                         _______ _______ _______ _____ _____    ______ ____
ROOT
ATOM      1  C   LIG    1       24.671 -20.563   5.102  0.00  0.00    +0.065 C 
ATOM      2  C   LIG    1       25.181 -21.243   6.395  0.00  0.00    +0.102 C 
ATOM      3  C   LIG    1       26.585 -20.742   6.806  0.00  0.00    +0.065 C 
ATOM      4  C   LIG    1       27.367 -20.102   5.898  0.00  0.00    +0.016 C 
ATOM      5  C   LIG    1       28.767 -19.586   6.142  0.00  0.00    +0.061 C 
ATOM      6  N   LIG    1       26.882 -19.867   4.623  0.00  0.00    -0.321 N 
ATOM      7  H   LIG    1       27.459 -19.262   4.040  0.00  0.00    +0.152 HD
ATOM      8  C   LIG    1       25.546 -19.940   4.273  0.00  0.00    +0.016 C 
ATOM      9  C   LIG    1       25.206 -19.237   2.979  0.00  0.00    +0.061 C 
ENDROOT
BRANCH   2  10
ATOM     10  C   LIG    1       25.054 -22.791   6.420  0.00  0.00    +0.042 A 
ATOM     11  C   LIG    1       23.900 -23.544   6.724  0.00  0.00    +0.277 A 
ATOM     12  C   LIG    1       23.878 -24.957   6.700  0.00  0.00    +0.084 A 
ATOM     13  C   LIG    1       25.028 -25.669   6.395  0.00  0.00    +0.007 A 
ATOM     14  C   LIG    1       26.189 -24.970   6.092  0.00  0.00    +0.001 A 
ATOM     15  C   LIG    1       26.198 -23.562   6.090  0.00  0.00    +0.011 A 
BRANCH  11  16
ATOM     16  N   LIG    1       22.638 -22.945   7.104  0.00  0.00    +0.080 N 
ATOM     17  O   LIG    1       22.692 -22.017   7.923  0.00  0.00    -0.576 OA
ATOM     18  O   LIG    1       21.608 -23.499   6.702  0.00  0.00    +0.042 OA
ENDBRANCH  11  16
ENDBRANCH   2  10
BRANCH   1  19
ATOM     19  C   LIG    1       23.188 -20.445   4.950  0.00  0.00    +0.337 C 
ATOM     20  O   LIG    1       22.484 -21.320   4.467  0.00  0.00    -0.245 OA
BRANCH  19  22
ATOM     21  C   LIG    1       22.163 -18.310   4.702  0.00  0.00    +0.280 C 
ATOM     22  O   LIG    1       22.727 -19.319   5.548  0.00  0.00    -0.465 OA
ENDBRANCH  19  22
ENDBRANCH   1  19
BRANCH   3  23
ATOM     23  C   LIG    1       27.007 -20.827   8.233  0.00  0.00    +0.337 C 
ATOM     24  O   LIG    1       26.504 -20.192   9.161  0.00  0.00    -0.245 OA
BRANCH  23  25
ATOM     25  O   LIG    1       27.935 -21.798   8.383  0.00  0.00    -0.465 OA
ATOM     26  C   LIG    1       29.294 -21.375   8.531  0.00  0.00    +0.280 C 
ENDBRANCH  23  25
ENDBRANCH   3  23
TORSDOF 6
ENDMDL
MODEL 3
REMARK VINA RESULT:      -5.6      6.943     10.488
REMARK  Name = *****
REMARK                            x       y       z     vdW  Elec       q    Type
REMARK                         _______ _______ _______ _____ _____    ______ ____
ROOT
ATOM      1  C   LIG    1       23.816 -30.946   8.829  0.00  0.00    +0.065 C 
ATOM      2  C   LIG    1       24.616 -29.625   8.734  0.00  0.00    +0.102 C 
ATOM      3  C   LIG    1       24.989 -29.268   7.276  0.00  0.00    +0.065 C 
ATOM      4  C   LIG    1       24.945 -30.227   6.315  0.00  0.00    +0.016 C 
ATOM      5  C   LIG    1       25.311 -30.038   4.860  0.00  0.00    +0.061 C 
ATOM      6  N   LIG    1       24.525 -31.504   6.640  0.00  0.00    -0.321 N 
ATOM      7  H   LIG    1       24.379 -32.132   5.850  0.00  0.00    +0.152 HD
ATOM      8  C   LIG    1       23.835 -31.825   7.795  0.00  0.00    +0.016 C 
ATOM      9  C   LIG    1       23.114 -33.152   7.737  0.00  0.00    +0.061 C 
ENDROOT
BRANCH   2  10
ATOM     10  C   LIG    1       25.812 -29.506   9.717  0.00  0.00    +0.042 A 
ATOM     11  C   LIG    1       26.800 -30.480   9.975  0.00  0.00    +0.277 A 
ATOM     12  C   LIG    1       27.867 -30.270  10.878  0.00  0.00    +0.084 A 
ATOM     13  C   LIG    1       27.965 -29.078  11.579  0.00  0.00    +0.007 A 
ATOM     14  C   LIG    1       27.013 -28.091  11.360  0.00  0.00    +0.001 A 
ATOM     15  C   LIG    1       25.967 -28.294  10.439  0.00  0.00    +0.011 A 
BRANCH  11  16
ATOM     16  N   LIG    1       26.807 -31.788   9.354  0.00  0.00    +0.080 N 
ATOM     17  O   LIG    1       26.505 -32.745  10.081  0.00  0.00    -0.576 OA
ATOM     18  O   LIG    1       27.257 -31.864   8.205  0.00  0.00    +0.042 OA
ENDBRANCH  11  16
ENDBRANCH   2  10
BRANCH   1  19
ATOM     19  C   LIG    1       22.879 -31.078   9.986  0.00  0.00    +0.337 C 
ATOM     20  O   LIG    1       21.712 -30.714   9.959  0.00  0.00    -0.245 OA
BRANCH  19  22
ATOM     21  C   LIG    1       23.648 -31.102  12.239  0.00  0.00    +0.280 C 
ATOM     22  O   LIG    1       23.449 -31.782  10.995  0.00  0.00    -0.465 OA
ENDBRANCH  19  22
ENDBRANCH   1  19
BRANCH   3  23
ATOM     23  C   LIG    1       25.245 -27.847   6.910  0.00  0.00    +0.337 C 
ATOM     24  O   LIG    1       26.325 -27.266   7.030  0.00  0.00    -0.245 OA
BRANCH  23  25
ATOM     25  O   LIG    1       24.157 -27.322   6.305  0.00  0.00    -0.465 OA
ATOM     26  C   LIG    1       24.325 -26.057   5.657  0.00  0.00    +0.280 C 
ENDBRANCH  23  25
ENDBRANCH   3  23
TORSDOF 6
ENDMDL
MODEL 4
REMARK VINA RESULT:      -5.5      7.517     10.832
REMARK  Name = *****
REMARK                            x       y       z     vdW  Elec       q    Type
REMARK                         _______ _______ _______ _____ _____    ______ ____
ROOT
ATOM      1  C   LIG    1       24.235 -31.310   9.278  0.00  0.00    +0.065 C 
ATOM      2  C   LIG    1       24.486 -31.026   7.778  0.00  0.00    +0.102 C 
ATOM      3  C   LIG    1       25.456 -32.049   7.142  0.00  0.00    +0.065 C 
ATOM      4  C   LIG    1       26.251 -32.811   7.938  0.00  0.00    +0.016 C 
ATOM      5  C   LIG    1       27.267 -33.825   7.464  0.00  0.00    +0.061 C 
ATOM      6  N   LIG    1       26.154 -32.695   9.314  0.00  0.00    -0.321 N 
ATOM      7  H   LIG    1       26.672 -33.391   9.849  0.00  0.00    +0.152 HD
ATOM      8  C   LIG    1       25.093 -32.101   9.971  0.00  0.00    +0.016 C 
ATOM      9  C   LIG    1       24.988 -32.467  11.434  0.00  0.00    +0.061 C 
ENDROOT
BRANCH   2  10
ATOM     10  C   LIG    1       24.840 -29.554   7.436  0.00  0.00    +0.042 A 
ATOM     11  C   LIG    1       25.707 -28.700   8.151  0.00  0.00    +0.277 A 
ATOM     12  C   LIG    1       25.983 -27.374   7.747  0.00  0.00    +0.084 A 
ATOM     13  C   LIG    1       25.374 -26.846   6.619  0.00  0.00    +0.007 A 
ATOM     14  C   LIG    1       24.510 -27.648   5.885  0.00  0.00    +0.001 A 
ATOM     15  C   LIG    1       24.260 -28.978   6.277  0.00  0.00    +0.011 A 
BRANCH  11  16
ATOM     16  N   LIG    1       26.381 -29.093   9.371  0.00  0.00    +0.080 N 
ATOM     17  O   LIG    1       25.956 -28.592  10.422  0.00  0.00    -0.576 OA
ATOM     18  O   LIG    1       27.410 -29.767   9.254  0.00  0.00    +0.042 OA
ENDBRANCH  11  16
ENDBRANCH   2  10
BRANCH   1  19
ATOM     19  C   LIG    1       22.919 -30.864   9.832  0.00  0.00    +0.337 C 
ATOM     20  O   LIG    1       22.772 -29.845  10.492  0.00  0.00    -0.245 OA
BRANCH  19  22
ATOM     21  C   LIG    1       21.203 -32.431  10.350  0.00  0.00    +0.280 C 
ATOM     22  O   LIG    1       21.910 -31.650   9.381  0.00  0.00    -0.465 OA
ENDBRANCH  19  22
ENDBRANCH   1  19
BRANCH   3  23
ATOM     23  C   LIG    1       25.402 -32.299   5.674  0.00  0.00    +0.337 C 
ATOM     24  O   LIG    1       25.999 -31.643   4.820  0.00  0.00    -0.245 OA
BRANCH  23  25
ATOM     25  O   LIG    1       24.706 -33.430   5.424  0.00  0.00    -0.465 OA
ATOM     26  C   LIG    1       23.295 -33.290   5.229  0.00  0.00    +0.280 C 
ENDBRANCH  23  25
ENDBRANCH   3  23
TORSDOF 6
ENDMDL
MODEL 5
REMARK VINA RESULT:      -5.3      9.177     11.470
REMARK  Name = *****
REMARK                            x       y       z     vdW  Elec       q    Type
REMARK                         _______ _______ _______ _____ _____    ______ ____
ROOT
ATOM      1  C   LIG    1       25.918 -30.306  11.223  0.00  0.00    +0.065 C 
ATOM      2  C   LIG    1       24.979 -30.725  10.067  0.00  0.00    +0.102 C 
ATOM      3  C   LIG    1       23.755 -31.526  10.566  0.00  0.00    +0.065 C 
ATOM      4  C   LIG    1       23.777 -32.094  11.800  0.00  0.00    +0.016 C 
ATOM      5  C   LIG    1       22.674 -32.929  12.410  0.00  0.00    +0.061 C 
ATOM      6  N   LIG    1       24.880 -31.913  12.617  0.00  0.00    -0.321 N 
ATOM      7  H   LIG    1       24.773 -32.243  13.575  0.00  0.00    +0.152 HD
ATOM      8  C   LIG    1       25.840 -30.938  12.422  0.00  0.00    +0.016 C 
ATOM      9  C   LIG    1       26.686 -30.649  13.640  0.00  0.00    +0.061 C 
ENDROOT
BRANCH   2  10
ATOM     10  C   LIG    1       25.685 -31.382   8.850  0.00  0.00    +0.042 A 
ATOM     11  C   LIG    1       25.486 -31.080   7.486  0.00  0.00    +0.277 A 
ATOM     12  C   LIG    1       26.195 -31.723   6.446  0.00  0.00    +0.084 A 
ATOM     13  C   LIG    1       27.116 -32.718   6.739  0.00  0.00    +0.007 A 
ATOM     14  C   LIG    1       27.342 -33.052   8.068  0.00  0.00    +0.001 A 
ATOM     15  C   LIG    1       26.653 -32.389   9.102  0.00  0.00    +0.011 A 
BRANCH  11  16
ATOM     16  N   LIG    1       24.530 -30.097   7.021  0.00  0.00    +0.080 N 
ATOM     17  O   LIG    1       23.519 -30.537   6.455  0.00  0.00    -0.576 OA
ATOM     18  O   LIG    1       24.864 -28.909   7.089  0.00  0.00    +0.042 OA
ENDBRANCH  11  16
ENDBRANCH   2  10
BRANCH   1  19
ATOM     19  C   LIG    1       26.721 -29.062  11.015  0.00  0.00    +0.337 C 
ATOM     20  O   LIG    1       27.768 -29.028  10.384  0.00  0.00    -0.245 OA
BRANCH  19  22
ATOM     21  C   LIG    1       26.782 -27.095  12.356  0.00  0.00    +0.280 C 
ATOM     22  O   LIG    1       26.062 -27.973  11.484  0.00  0.00    -0.465 OA
ENDBRANCH  19  22
ENDBRANCH   1  19
BRANCH   3  23
ATOM     23  C   LIG    1       22.505 -31.540   9.755  0.00  0.00    +0.337 C 
ATOM     24  O   LIG    1       22.188 -32.421   8.954  0.00  0.00    -0.245 OA
BRANCH  23  25
ATOM     25  O   LIG    1       21.706 -30.513  10.119  0.00  0.00    -0.465 OA
ATOM     26  C   LIG    1       20.366 -30.841  10.499  0.00  0.00    +0.280 C 
ENDBRANCH  23  25
ENDBRANCH   3  23
TORSDOF 6
ENDMDL
