MODEL 1
REMARK VINA RESULT:      -6.7      0.000      0.000
REMARK  Name = *****
REMARK                            x       y       z     vdW  Elec       q    Type
REMARK                         _______ _______ _______ _____ _____    ______ ____
ROOT
ATOM      1  C   LIG    1       24.033 -30.518   7.930  0.00  0.00    +0.064 C 
ATOM      2  C   LIG    1       24.482 -31.985   7.766  0.00  0.00    +0.118 C 
ATOM      3  C   LIG    1       24.924 -32.380   6.377  0.00  0.00    +0.074 C 
ATOM      4  C   LIG    1       23.610 -32.675   5.687  0.00  0.00    +0.239 C 
ATOM      5  O   LIG    1       22.794 -33.251   6.716  0.00  0.00    -0.464 OA
ATOM      6  C   LIG    1       25.836 -31.375   5.692  0.00  0.00    +0.152 C 
ATOM      7  C   LIG    1       25.365 -29.944   5.806  0.00  0.00    -0.011 A 
ATOM      8  C   LIG    1       25.896 -28.965   4.942  0.00  0.00    +0.056 A 
ATOM      9  C   LIG    1       25.448 -27.668   5.056  0.00  0.00    +0.167 A 
ATOM     10  O   LIG    1       25.881 -26.610   4.320  0.00  0.00    -0.453 OA
ATOM     11  C   LIG    1       25.116 -25.539   4.910  0.00  0.00    +0.466 C 
ATOM     12  O   LIG    1       24.185 -25.991   5.917  0.00  0.00    -0.453 OA
ATOM     13  C   LIG    1       24.491 -27.314   5.971  0.00  0.00    +0.167 A 
ATOM     14  C   LIG    1       23.969 -28.231   6.854  0.00  0.00    +0.054 A 
ATOM     15  C   LIG    1       23.277 -32.868   7.930  0.00  0.00    +0.312 C 
ATOM     16  O   LIG    1       22.747 -33.162   9.003  0.00  0.00    -0.251 OA
ATOM     17  C   LIG    1       24.453 -29.558   6.818  0.00  0.00    -0.030 A 
ENDROOT
BRANCH   1  22
ATOM     18  C   LIG    1       26.308 -29.093  10.655  0.00  0.00    +0.165 A 
ATOM     19  C   LIG    1       25.447 -29.039  11.776  0.00  0.00    +0.203 A 
ATOM     20  C   LIG    1       24.116 -29.509  11.645  0.00  0.00    +0.165 A 
ATOM     21  C   LIG    1       23.655 -29.961  10.401  0.00  0.00    +0.053 A 
ATOM     22  C   LIG    1       24.508 -30.011   9.290  0.00  0.00    -0.032 A 
ATOM     23  C   LIG    1       25.830 -29.585   9.436  0.00  0.00    +0.053 A 
BRANCH  18  25
ATOM     24  C   LIG    1       28.514 -29.483  11.544  0.00  0.00    +0.277 C 
ATOM     25  O   LIG    1       27.605 -28.687  10.802  0.00  0.00    -0.491 OA
ENDBRANCH  18  25
BRANCH  19  26
ATOM     26  O   LIG    1       25.784 -28.559  13.026  0.00  0.00    -0.488 OA
ATOM     27  C   LIG    1       25.791 -27.150  13.237  0.00  0.00    +0.277 C 
ENDBRANCH  19  26
BRANCH  20  28
ATOM     28  O   LIG    1       23.295 -29.463  12.753  0.00  0.00    -0.491 OA
ATOM     29  C   LIG    1       22.237 -28.503  12.712  0.00  0.00    +0.277 C 
ENDBRANCH  20  28
ENDBRANCH   1  22
BRANCH   6  30
ATOM     30  O   LIG    1       25.972 -31.780   4.333  0.00  0.00    -0.387 OA
ATOM     31  H   LIG    1       25.216 -31.435   3.825  0.00  0.00    +0.210 HD
ENDBRANCH   6  30
TORSDOF 5
ENDMDL
MODEL 2
REMARK VINA RESULT:      -6.6      0.085      2.268
REMARK  Name = *****
REMARK                            x       y       z     vdW  Elec       q    Type
REMARK                         _______ _______ _______ _____ _____    ______ ____
ROOT
ATOM      1  C   LIG    1       24.051 -30.486   7.952  0.00  0.00    +0.064 C 
ATOM      2  C   LIG    1       24.497 -31.955   7.797  0.00  0.00    +0.118 C 
ATOM      3  C   LIG    1       24.929 -32.362   6.408  0.00  0.00    +0.074 C 
ATOM      4  C   LIG    1       23.610 -32.661   5.731  0.00  0.00    +0.239 C 
ATOM      5  O   LIG    1       22.801 -33.228   6.770  0.00  0.00    -0.464 OA
ATOM      6  C   LIG    1       25.837 -31.363   5.709  0.00  0.00    +0.152 C 
ATOM      7  C   LIG    1       25.368 -29.930   5.815  0.00  0.00    -0.011 A 
ATOM      8  C   LIG    1       25.894 -28.959   4.939  0.00  0.00    +0.056 A 
ATOM      9  C   LIG    1       25.448 -27.660   5.046  0.00  0.00    +0.167 A 
ATOM     10  O   LIG    1       25.876 -26.610   4.298  0.00  0.00    -0.453 OA
ATOM     11  C   LIG    1       25.116 -25.533   4.885  0.00  0.00    +0.466 C 
ATOM     12  O   LIG    1       24.192 -25.976   5.902  0.00  0.00    -0.453 OA
ATOM     13  C   LIG    1       24.497 -27.298   5.964  0.00  0.00    +0.167 A 
ATOM     14  C   LIG    1       23.981 -28.207   6.859  0.00  0.00    +0.054 A 
ATOM     15  C   LIG    1       23.293 -32.836   7.977  0.00  0.00    +0.312 C 
ATOM     16  O   LIG    1       22.770 -33.120   9.056  0.00  0.00    -0.251 OA
ATOM     17  C   LIG    1       24.463 -29.536   6.830  0.00  0.00    -0.030 A 
ENDROOT
BRANCH   1  22
ATOM     18  C   LIG    1       24.053 -29.505  11.649  0.00  0.00    +0.165 A 
ATOM     19  C   LIG    1       25.375 -29.043  11.844  0.00  0.00    +0.203 A 
ATOM     20  C   LIG    1       26.265 -29.019  10.741  0.00  0.00    +0.165 A 
ATOM     21  C   LIG    1       25.846 -29.507   9.496  0.00  0.00    +0.053 A 
ATOM     22  C   LIG    1       24.536 -29.968   9.305  0.00  0.00    -0.032 A 
ATOM     23  C   LIG    1       23.652 -29.950  10.385  0.00  0.00    +0.053 A 
BRANCH  18  25
ATOM     24  C   LIG    1       22.152 -28.505  12.743  0.00  0.00    +0.277 C 
ATOM     25  O   LIG    1       23.184 -29.477  12.704  0.00  0.00    -0.491 OA
ENDBRANCH  18  25
BRANCH  19  26
ATOM     26  O   LIG    1       25.903 -28.597  13.040  0.00  0.00    -0.488 OA
ATOM     27  C   LIG    1       25.678 -27.243  13.423  0.00  0.00    +0.277 C 
ENDBRANCH  19  26
BRANCH  20  28
ATOM     28  O   LIG    1       27.547 -28.551  10.946  0.00  0.00    -0.491 OA
ATOM     29  C   LIG    1       28.496 -29.505  11.425  0.00  0.00    +0.277 C 
ENDBRANCH  20  28
ENDBRANCH   1  22
BRANCH   6  30
ATOM     30  O   LIG    1       25.963 -31.779   4.352  0.00  0.00    -0.387 OA
ATOM     31  H   LIG    1       26.908 -31.828   4.126  0.00  0.00    +0.210 HD
ENDBRANCH   6  30
TORSDOF 5
ENDMDL
MODEL 3
REMARK VINA RESULT:      -5.9      3.281      8.001
REMARK  Name = *****
REMARK                            x       y       z     vdW  Elec       q    Type
REMARK                         _______ _______ _______ _____ _____    ______ ____
ROOT
ATOM      1  C   LIG    1       23.625 -28.633  13.188  0.00  0.00    +0.064 C 
ATOM      2  C   LIG    1       22.857 -27.300  13.063  0.00  0.00    +0.118 C 
ATOM      3  C   LIG    1       23.459 -26.129  13.804  0.00  0.00    +0.074 C 
ATOM      4  C   LIG    1       22.938 -26.330  15.210  0.00  0.00    +0.239 C 
ATOM      5  O   LIG    1       21.624 -26.871  15.024  0.00  0.00    -0.464 OA
ATOM      6  C   LIG    1       24.966 -25.992  13.654  0.00  0.00    +0.152 C 
ATOM      7  C   LIG    1       25.720 -27.289  13.833  0.00  0.00    -0.011 A 
ATOM      8  C   LIG    1       27.108 -27.259  14.073  0.00  0.00    +0.056 A 
ATOM      9  C   LIG    1       27.777 -28.452  14.241  0.00  0.00    +0.167 A 
ATOM     10  O   LIG    1       29.112 -28.591  14.451  0.00  0.00    -0.453 OA
ATOM     11  C   LIG    1       29.231 -30.029  14.491  0.00  0.00    +0.466 C 
ATOM     12  O   LIG    1       27.961 -30.708  14.394  0.00  0.00    -0.453 OA
ATOM     13  C   LIG    1       27.124 -29.656  14.199  0.00  0.00    +0.167 A 
ATOM     14  C   LIG    1       25.775 -29.732  13.936  0.00  0.00    +0.054 A 
ATOM     15  C   LIG    1       21.549 -27.438  13.788  0.00  0.00    +0.312 C 
ATOM     16  O   LIG    1       20.557 -28.036  13.367  0.00  0.00    -0.251 OA
ATOM     17  C   LIG    1       25.065 -28.536  13.687  0.00  0.00    -0.030 A 
ENDROOT
BRANCH   1  22
ATOM     18  C   LIG    1       22.281 -30.685  10.253  0.00  0.00    +0.165 A 
ATOM     19  C   LIG    1       23.380 -30.705   9.363  0.00  0.00    +0.203 A 
ATOM     20  C   LIG    1       24.587 -30.067   9.746  0.00  0.00    +0.165 A 
ATOM     21  C   LIG    1       24.657 -29.380  10.965  0.00  0.00    +0.053 A 
ATOM     22  C   LIG    1       23.566 -29.359  11.845  0.00  0.00    -0.032 A 
ATOM     23  C   LIG    1       22.393 -30.023  11.481  0.00  0.00    +0.053 A 
BRANCH  18  25
ATOM     24  C   LIG    1       19.908 -31.010  10.523  0.00  0.00    +0.277 C 
ATOM     25  O   LIG    1       21.137 -31.346   9.901  0.00  0.00    -0.491 OA
ENDBRANCH  18  25
BRANCH  19  26
ATOM     26  O   LIG    1       23.396 -31.301   8.118  0.00  0.00    -0.488 OA
ATOM     27  C   LIG    1       23.605 -32.709   8.039  0.00  0.00    +0.277 C 
ENDBRANCH  19  26
BRANCH  20  28
ATOM     28  O   LIG    1       25.654 -30.109   8.872  0.00  0.00    -0.491 OA
ATOM     29  C   LIG    1       26.772 -30.898   9.283  0.00  0.00    +0.277 C 
ENDBRANCH  20  28
ENDBRANCH   1  22
BRANCH   6  30
ATOM     30  O   LIG    1       25.396 -24.998  14.580  0.00  0.00    -0.387 OA
ATOM     31  H   LIG    1       25.569 -25.423  15.438  0.00  0.00    +0.210 HD
ENDBRANCH   6  30
TORSDOF 5
ENDMDL
MODEL 4
REMARK VINA RESULT:      -5.8      3.335      7.680
REMARK  Name = *****
REMARK                            x       y       z     vdW  Elec       q    Type
REMARK                         _______ _______ _______ _____ _____    ______ ____
ROOT
ATOM      1  C   LIG    1       23.692 -28.581  13.252  0.00  0.00    +0.064 C 
ATOM      2  C   LIG    1       22.967 -27.225  13.123  0.00  0.00    +0.118 C 
ATOM      3  C   LIG    1       23.625 -26.064  13.831  0.00  0.00    +0.074 C 
ATOM      4  C   LIG    1       23.131 -26.225  15.251  0.00  0.00    +0.239 C 
ATOM      5  O   LIG    1       21.795 -26.724  15.104  0.00  0.00    -0.464 OA
ATOM      6  C   LIG    1       25.132 -25.981  13.644  0.00  0.00    +0.152 C 
ATOM      7  C   LIG    1       25.846 -27.299  13.827  0.00  0.00    -0.011 A 
ATOM      8  C   LIG    1       27.239 -27.314  14.035  0.00  0.00    +0.056 A 
ATOM      9  C   LIG    1       27.871 -28.526  14.208  0.00  0.00    +0.167 A 
ATOM     10  O   LIG    1       29.205 -28.707  14.389  0.00  0.00    -0.453 OA
ATOM     11  C   LIG    1       29.277 -30.147  14.450  0.00  0.00    +0.466 C 
ATOM     12  O   LIG    1       27.982 -30.784  14.393  0.00  0.00    -0.453 OA
ATOM     13  C   LIG    1       27.177 -29.707  14.201  0.00  0.00    +0.167 A 
ATOM     14  C   LIG    1       25.821 -29.741  13.969  0.00  0.00    +0.054 A 
ATOM     15  C   LIG    1       21.672 -27.307  13.880  0.00  0.00    +0.312 C 
ATOM     16  O   LIG    1       20.651 -27.878  13.491  0.00  0.00    -0.251 OA
ATOM     17  C   LIG    1       25.145 -28.526  13.717  0.00  0.00    -0.030 A 
ENDROOT
BRANCH   1  22
ATOM     18  C   LIG    1       24.633 -30.059   9.852  0.00  0.00    +0.165 A 
ATOM     19  C   LIG    1       23.439 -30.706   9.457  0.00  0.00    +0.203 A 
ATOM     20  C   LIG    1       22.302 -30.626  10.300  0.00  0.00    +0.165 A 
ATOM     21  C   LIG    1       22.391 -29.964  11.532  0.00  0.00    +0.053 A 
ATOM     22  C   LIG    1       23.577 -29.326  11.923  0.00  0.00    -0.032 A 
ATOM     23  C   LIG    1       24.681 -29.373  11.070  0.00  0.00    +0.053 A 
BRANCH  18  25
ATOM     24  C   LIG    1       26.977 -30.498   9.505  0.00  0.00    +0.277 C 
ATOM     25  O   LIG    1       25.710 -30.096   9.011  0.00  0.00    -0.491 OA
ENDBRANCH  18  25
BRANCH  19  26
ATOM     26  O   LIG    1       23.264 -31.432   8.296  0.00  0.00    -0.488 OA
ATOM     27  C   LIG    1       23.734 -32.776   8.254  0.00  0.00    +0.277 C 
ENDBRANCH  19  26
BRANCH  20  28
ATOM     28  O   LIG    1       21.141 -31.250   9.892  0.00  0.00    -0.491 OA
ATOM     29  C   LIG    1       19.962 -30.934  10.636  0.00  0.00    +0.277 C 
ENDBRANCH  20  28
ENDBRANCH   1  22
BRANCH   6  30
ATOM     30  O   LIG    1       25.617 -24.987  14.544  0.00  0.00    -0.387 OA
ATOM     31  H   LIG    1       25.749 -25.394  15.418  0.00  0.00    +0.210 HD
ENDBRANCH   6  30
TORSDOF 5
ENDMDL
MODEL 5
REMARK VINA RESULT:      -5.8      2.480      6.834
REMARK  Name = *****
REMARK                            x       y       z     vdW  Elec       q    Type
REMARK                         _______ _______ _______ _____ _____    ______ ____
ROOT
ATOM      1  C   LIG    1       23.144 -30.512  12.139  0.00  0.00    +0.064 C 
ATOM      2  C   LIG    1       21.676 -30.900  11.860  0.00  0.00    +0.118 C 
ATOM      3  C   LIG    1       20.635 -30.050  12.550  0.00  0.00    +0.074 C 
ATOM      4  C   LIG    1       20.568 -30.671  13.928  0.00  0.00    +0.239 C 
ATOM      5  O   LIG    1       20.771 -32.071  13.694  0.00  0.00    -0.464 OA
ATOM      6  C   LIG    1       20.901 -28.554  12.494  0.00  0.00    +0.152 C 
ATOM      7  C   LIG    1       22.325 -28.172  12.822  0.00  0.00    -0.011 A 
ATOM      8  C   LIG    1       22.629 -26.837  13.154  0.00  0.00    +0.056 A 
ATOM      9  C   LIG    1       23.932 -26.510  13.459  0.00  0.00    +0.167 A 
ATOM     10  O   LIG    1       24.387 -25.268  13.770  0.00  0.00    -0.453 OA
ATOM     11  C   LIG    1       25.797 -25.528  13.927  0.00  0.00    +0.466 C 
ATOM     12  O   LIG    1       26.137 -26.925  13.795  0.00  0.00    -0.453 OA
ATOM     13  C   LIG    1       24.928 -27.450  13.464  0.00  0.00    +0.167 A 
ATOM     14  C   LIG    1       24.681 -28.758  13.114  0.00  0.00    +0.054 A 
ATOM     15  C   LIG    1       21.410 -32.232  12.503  0.00  0.00    +0.312 C 
ATOM     16  O   LIG    1       21.771 -33.324  12.061  0.00  0.00    -0.251 OA
ATOM     17  C   LIG    1       23.372 -29.122  12.727  0.00  0.00    -0.030 A 
ENDROOT
BRANCH   1  22
ATOM     18  C   LIG    1       24.228 -30.196   8.484  0.00  0.00    +0.165 A 
ATOM     19  C   LIG    1       25.408 -30.974   8.445  0.00  0.00    +0.203 A 
ATOM     20  C   LIG    1       25.833 -31.639   9.623  0.00  0.00    +0.165 A 
ATOM     21  C   LIG    1       25.118 -31.470  10.817  0.00  0.00    +0.053 A 
ATOM     22  C   LIG    1       23.950 -30.695  10.854  0.00  0.00    -0.032 A 
ATOM     23  C   LIG    1       23.514 -30.076   9.681  0.00  0.00    +0.053 A 
BRANCH  18  25
ATOM     24  C   LIG    1       24.503 -28.492   6.802  0.00  0.00    +0.277 C 
ATOM     25  O   LIG    1       23.795 -29.600   7.333  0.00  0.00    -0.491 OA
ENDBRANCH  18  25
BRANCH  19  26
ATOM     26  O   LIG    1       26.214 -31.158   7.340  0.00  0.00    -0.488 OA
ATOM     27  C   LIG    1       25.782 -32.057   6.322  0.00  0.00    +0.277 C 
ENDBRANCH  19  26
BRANCH  20  28
ATOM     28  O   LIG    1       26.978 -32.407   9.563  0.00  0.00    -0.491 OA
ATOM     29  C   LIG    1       26.783 -33.814   9.411  0.00  0.00    +0.277 C 
ENDBRANCH  20  28
ENDBRANCH   1  22
BRANCH   6  30
ATOM     30  O   LIG    1       19.969 -27.924  13.369  0.00  0.00    -0.387 OA
ATOM     31  H   LIG    1       19.195 -28.505  13.474  0.00  0.00    +0.210 HD
ENDBRANCH   6  30
TORSDOF 5
ENDMDL
MODEL 6
REMARK VINA RESULT:      -5.6      2.384      6.666
REMARK  Name = *****
REMARK                            x       y       z     vdW  Elec       q    Type
REMARK                         _______ _______ _______ _____ _____    ______ ____
ROOT
ATOM      1  C   LIG    1       23.346 -30.545  12.003  0.00  0.00    +0.064 C 
ATOM      2  C   LIG    1       21.852 -30.873  11.798  0.00  0.00    +0.118 C 
ATOM      3  C   LIG    1       20.884 -30.015  12.578  0.00  0.00    +0.074 C 
ATOM      4  C   LIG    1       20.874 -30.685  13.934  0.00  0.00    +0.239 C 
ATOM      5  O   LIG    1       21.013 -32.081  13.638  0.00  0.00    -0.464 OA
ATOM      6  C   LIG    1       21.199 -28.528  12.560  0.00  0.00    +0.152 C 
ATOM      7  C   LIG    1       22.652 -28.207  12.817  0.00  0.00    -0.011 A 
ATOM      8  C   LIG    1       23.022 -26.896  13.179  0.00  0.00    +0.056 A 
ATOM      9  C   LIG    1       24.352 -26.625  13.417  0.00  0.00    +0.167 A 
ATOM     10  O   LIG    1       24.869 -25.411  13.745  0.00  0.00    -0.453 OA
ATOM     11  C   LIG    1       26.275 -25.725  13.809  0.00  0.00    +0.466 C 
ATOM     12  O   LIG    1       26.556 -27.127  13.607  0.00  0.00    -0.453 OA
ATOM     13  C   LIG    1       25.312 -27.598  13.329  0.00  0.00    +0.167 A 
ATOM     14  C   LIG    1       24.999 -28.882  12.948  0.00  0.00    +0.054 A 
ATOM     15  C   LIG    1       21.576 -32.219  12.406  0.00  0.00    +0.312 C 
ATOM     16  O   LIG    1       21.871 -33.305  11.905  0.00  0.00    -0.251 OA
ATOM     17  C   LIG    1       23.657 -29.187  12.626  0.00  0.00    -0.030 A 
ENDROOT
BRANCH   1  22
ATOM     18  C   LIG    1       25.918 -31.674   9.407  0.00  0.00    +0.165 A 
ATOM     19  C   LIG    1       25.447 -31.064   8.221  0.00  0.00    +0.203 A 
ATOM     20  C   LIG    1       24.291 -30.244   8.282  0.00  0.00    +0.165 A 
ATOM     21  C   LIG    1       23.602 -30.098   9.493  0.00  0.00    +0.053 A 
ATOM     22  C   LIG    1       24.070 -30.706  10.667  0.00  0.00    -0.032 A 
ATOM     23  C   LIG    1       25.231 -31.479  10.609  0.00  0.00    +0.053 A 
BRANCH  18  25
ATOM     24  C   LIG    1       26.983 -33.816   9.111  0.00  0.00    +0.277 C 
ATOM     25  O   LIG    1       27.062 -32.421   9.352  0.00  0.00    -0.491 OA
ENDBRANCH  18  25
BRANCH  19  26
ATOM     26  O   LIG    1       26.016 -31.191   6.970  0.00  0.00    -0.488 OA
ATOM     27  C   LIG    1       25.579 -32.253   6.126  0.00  0.00    +0.277 C 
ENDBRANCH  19  26
BRANCH  20  28
ATOM     28  O   LIG    1       23.854 -29.645   7.119  0.00  0.00    -0.491 OA
ATOM     29  C   LIG    1       24.415 -28.364   6.823  0.00  0.00    +0.277 C 
ENDBRANCH  20  28
ENDBRANCH   1  22
BRANCH   6  30
ATOM     30  O   LIG    1       20.342 -27.901  13.511  0.00  0.00    -0.387 OA
ATOM     31  H   LIG    1       19.752 -27.285  13.042  0.00  0.00    +0.210 HD
ENDBRANCH   6  30
TORSDOF 5
ENDMDL
MODEL 7
REMARK VINA RESULT:      -5.5      2.317      7.076
REMARK  Name = *****
REMARK                            x       y       z     vdW  Elec       q    Type
REMARK                         _______ _______ _______ _____ _____    ______ ____
ROOT
ATOM      1  C   LIG    1       24.637 -29.846  10.469  0.00  0.00    +0.064 C 
ATOM      2  C   LIG    1       25.895 -29.892  11.362  0.00  0.00    +0.118 C 
ATOM      3  C   LIG    1       25.667 -30.349  12.784  0.00  0.00    +0.074 C 
ATOM      4  C   LIG    1       25.197 -29.082  13.463  0.00  0.00    +0.239 C 
ATOM      5  O   LIG    1       25.940 -28.040  12.818  0.00  0.00    -0.464 OA
ATOM      6  C   LIG    1       24.766 -31.565  12.922  0.00  0.00    +0.152 C 
ATOM      7  C   LIG    1       23.507 -31.493  12.089  0.00  0.00    -0.011 A 
ATOM      8  C   LIG    1       22.431 -32.356  12.377  0.00  0.00    +0.056 A 
ATOM      9  C   LIG    1       21.289 -32.268  11.611  0.00  0.00    +0.167 A 
ATOM     10  O   LIG    1       20.182 -33.045  11.744  0.00  0.00    -0.453 OA
ATOM     11  C   LIG    1       19.369 -32.545  10.663  0.00  0.00    +0.466 C 
ATOM     12  O   LIG    1       19.967 -31.429   9.969  0.00  0.00    -0.453 OA
ATOM     13  C   LIG    1       21.171 -31.356  10.596  0.00  0.00    +0.167 A 
ATOM     14  C   LIG    1       22.209 -30.517  10.261  0.00  0.00    +0.054 A 
ATOM     15  C   LIG    1       26.357 -28.482  11.600  0.00  0.00    +0.312 C 
ATOM     16  O   LIG    1       26.972 -27.785  10.790  0.00  0.00    -0.251 OA
ATOM     17  C   LIG    1       23.423 -30.621  10.975  0.00  0.00    -0.030 A 
ENDROOT
BRANCH   1  22
ATOM     18  C   LIG    1       26.090 -31.958   7.630  0.00  0.00    +0.165 A 
ATOM     19  C   LIG    1       25.744 -31.209   6.481  0.00  0.00    +0.203 A 
ATOM     20  C   LIG    1       25.057 -29.979   6.643  0.00  0.00    +0.165 A 
ATOM     21  C   LIG    1       24.680 -29.553   7.924  0.00  0.00    +0.053 A 
ATOM     22  C   LIG    1       25.021 -30.299   9.061  0.00  0.00    -0.032 A 
ATOM     23  C   LIG    1       25.733 -31.489   8.899  0.00  0.00    +0.053 A 
BRANCH  18  25
ATOM     24  C   LIG    1       27.577 -33.621   8.543  0.00  0.00    +0.277 C 
ATOM     25  O   LIG    1       26.797 -33.117   7.471  0.00  0.00    -0.491 OA
ENDBRANCH  18  25
BRANCH  19  26
ATOM     26  O   LIG    1       26.016 -31.567   5.176  0.00  0.00    -0.488 OA
ATOM     27  C   LIG    1       25.256 -32.616   4.584  0.00  0.00    +0.277 C 
ENDBRANCH  19  26
BRANCH  20  28
ATOM     28  O   LIG    1       24.741 -29.254   5.513  0.00  0.00    -0.491 OA
ATOM     29  C   LIG    1       24.381 -27.887   5.724  0.00  0.00    +0.277 C 
ENDBRANCH  20  28
ENDBRANCH   1  22
BRANCH   6  30
ATOM     30  O   LIG    1       24.474 -31.724  14.308  0.00  0.00    -0.387 OA
ATOM     31  H   LIG    1       23.893 -30.996  14.591  0.00  0.00    +0.210 HD
ENDBRANCH   6  30
TORSDOF 5
ENDMDL
MODEL 8
REMARK VINA RESULT:      -5.5      2.362      5.588
REMARK  Name = *****
REMARK                            x       y       z     vdW  Elec       q    Type
REMARK                         _______ _______ _______ _____ _____    ______ ____
ROOT
ATOM      1  C   LIG    1       24.699 -30.538  11.475  0.00  0.00    +0.064 C 
ATOM      2  C   LIG    1       25.535 -29.333  11.957  0.00  0.00    +0.118 C 
ATOM      3  C   LIG    1       26.545 -28.804  10.967  0.00  0.00    +0.074 C 
ATOM      4  C   LIG    1       27.720 -29.736  11.168  0.00  0.00    +0.239 C 
ATOM      5  O   LIG    1       27.702 -30.027  12.572  0.00  0.00    -0.464 OA
ATOM      6  C   LIG    1       26.026 -28.667   9.544  0.00  0.00    +0.152 C 
ATOM      7  C   LIG    1       25.256 -29.871   9.055  0.00  0.00    -0.011 A 
ATOM      8  C   LIG    1       25.027 -30.037   7.675  0.00  0.00    +0.056 A 
ATOM      9  C   LIG    1       24.330 -31.146   7.248  0.00  0.00    +0.167 A 
ATOM     10  O   LIG    1       24.006 -31.433   5.959  0.00  0.00    -0.453 OA
ATOM     11  C   LIG    1       23.250 -32.649   6.135  0.00  0.00    +0.466 C 
ATOM     12  O   LIG    1       23.217 -33.106   7.504  0.00  0.00    -0.453 OA
ATOM     13  C   LIG    1       23.873 -32.092   8.127  0.00  0.00    +0.167 A 
ATOM     14  C   LIG    1       24.047 -31.953   9.485  0.00  0.00    +0.054 A 
ATOM     15  C   LIG    1       26.449 -29.801  13.055  0.00  0.00    +0.312 C 
ATOM     16  O   LIG    1       26.113 -30.020  14.220  0.00  0.00    -0.251 OA
ATOM     17  C   LIG    1       24.695 -30.795   9.970  0.00  0.00    -0.030 A 
ENDROOT
BRANCH   1  22
ATOM     18  C   LIG    1       21.408 -28.917  12.558  0.00  0.00    +0.165 A 
ATOM     19  C   LIG    1       20.630 -30.032  12.948  0.00  0.00    +0.203 A 
ATOM     20  C   LIG    1       21.205 -31.327  12.889  0.00  0.00    +0.165 A 
ATOM     21  C   LIG    1       22.505 -31.491  12.392  0.00  0.00    +0.053 A 
ATOM     22  C   LIG    1       23.273 -30.385  12.002  0.00  0.00    -0.032 A 
ATOM     23  C   LIG    1       22.716 -29.109  12.101  0.00  0.00    +0.053 A 
BRANCH  18  25
ATOM     24  C   LIG    1       21.618 -26.621  13.257  0.00  0.00    +0.277 C 
ATOM     25  O   LIG    1       20.866 -27.667  12.666  0.00  0.00    -0.491 OA
ENDBRANCH  18  25
BRANCH  19  26
ATOM     26  O   LIG    1       19.325 -29.985  13.396  0.00  0.00    -0.488 OA
ATOM     27  C   LIG    1       19.082 -29.628  14.754  0.00  0.00    +0.277 C 
ENDBRANCH  19  26
BRANCH  20  28
ATOM     28  O   LIG    1       20.437 -32.401  13.289  0.00  0.00    -0.491 OA
ATOM     29  C   LIG    1       20.108 -33.351  12.272  0.00  0.00    +0.277 C 
ENDBRANCH  20  28
ENDBRANCH   1  22
BRANCH   6  30
ATOM     30  O   LIG    1       27.145 -28.380   8.710  0.00  0.00    -0.387 OA
ATOM     31  H   LIG    1       27.943 -28.324   9.264  0.00  0.00    +0.210 HD
ENDBRANCH   6  30
TORSDOF 5
ENDMDL
MODEL 9
REMARK VINA RESULT:      -5.5      1.822      6.935
REMARK  Name = *****
REMARK                            x       y       z     vdW  Elec       q    Type
REMARK                         _______ _______ _______ _____ _____    ______ ____
ROOT
ATOM      1  C   LIG    1       23.123 -30.812  11.048  0.00  0.00    +0.064 C 
ATOM      2  C   LIG    1       21.704 -30.205  11.047  0.00  0.00    +0.118 C 
ATOM      3  C   LIG    1       21.397 -29.265  12.188  0.00  0.00    +0.074 C 
ATOM      4  C   LIG    1       21.021 -30.215  13.303  0.00  0.00    +0.239 C 
ATOM      5  O   LIG    1       20.343 -31.289  12.636  0.00  0.00    -0.464 OA
ATOM      6  C   LIG    1       22.498 -28.262  12.497  0.00  0.00    +0.152 C 
ATOM      7  C   LIG    1       23.880 -28.869  12.552  0.00  0.00    -0.011 A 
ATOM      8  C   LIG    1       24.930 -28.155  13.165  0.00  0.00    +0.056 A 
ATOM      9  C   LIG    1       26.181 -28.728  13.212  0.00  0.00    +0.167 A 
ATOM     10  O   LIG    1       27.297 -28.158  13.740  0.00  0.00    -0.453 OA
ATOM     11  C   LIG    1       28.280 -29.176  13.458  0.00  0.00    +0.466 C 
ATOM     12  O   LIG    1       27.717 -30.359  12.852  0.00  0.00    -0.453 OA
ATOM     13  C   LIG    1       26.422 -29.976  12.699  0.00  0.00    +0.167 A 
ATOM     14  C   LIG    1       25.435 -30.693  12.065  0.00  0.00    +0.054 A 
ATOM     15  C   LIG    1       20.720 -31.305  11.328  0.00  0.00    +0.312 C 
ATOM     16  O   LIG    1       20.345 -32.154  10.517  0.00  0.00    -0.251 OA
ATOM     17  C   LIG    1       24.153 -30.112  11.931  0.00  0.00    -0.030 A 
ENDROOT
BRANCH   1  22
ATOM     18  C   LIG    1       23.937 -32.240   7.594  0.00  0.00    +0.165 A 
ATOM     19  C   LIG    1       24.495 -31.126   6.924  0.00  0.00    +0.203 A 
ATOM     20  C   LIG    1       24.637 -29.902   7.626  0.00  0.00    +0.165 A 
ATOM     21  C   LIG    1       24.173 -29.795   8.944  0.00  0.00    +0.053 A 
ATOM     22  C   LIG    1       23.618 -30.899   9.605  0.00  0.00    -0.032 A 
ATOM     23  C   LIG    1       23.517 -32.113   8.922  0.00  0.00    +0.053 A 
BRANCH  18  25
ATOM     24  C   LIG    1       22.657 -33.769   6.242  0.00  0.00    +0.277 C 
ATOM     25  O   LIG    1       23.850 -33.431   6.929  0.00  0.00    -0.491 OA
ENDBRANCH  18  25
BRANCH  19  26
ATOM     26  O   LIG    1       24.927 -31.109   5.613  0.00  0.00    -0.488 OA
ATOM     27  C   LIG    1       26.109 -31.831   5.276  0.00  0.00    +0.277 C 
ENDBRANCH  19  26
BRANCH  20  28
ATOM     28  O   LIG    1       25.197 -28.830   6.962  0.00  0.00    -0.491 OA
ATOM     29  C   LIG    1       24.279 -27.915   6.360  0.00  0.00    +0.277 C 
ENDBRANCH  20  28
ENDBRANCH   1  22
BRANCH   6  30
ATOM     30  O   LIG    1       22.154 -27.616  13.719  0.00  0.00    -0.387 OA
ATOM     31  H   LIG    1       21.926 -26.689  13.531  0.00  0.00    +0.210 HD
ENDBRANCH   6  30
TORSDOF 5
ENDMDL
