MODEL 1
REMARK VINA RESULT:      -6.2      0.000      0.000
REMARK  Name = *****
REMARK                            x       y       z     vdW  Elec       q    Type
REMARK                         _______ _______ _______ _____ _____    ______ ____
ROOT
ATOM      1  C   LIG    1       21.530 -18.448   3.831  0.00  0.00    +0.008 C 
ATOM      2  C   LIG    1       22.903 -18.582   4.532  0.00  0.00    -0.007 C 
ENDROOT
BRANCH   2   3
ATOM      3  C   LIG    1       23.132 -20.036   5.105  0.00  0.00    -0.007 C 
ATOM      4  C   LIG    1       21.927 -20.974   4.944  0.00  0.00    +0.008 C 
BRANCH   3   5
ATOM      5  C   LIG    1       24.393 -20.790   4.541  0.00  0.00    +0.039 C 
BRANCH   5   6
ATOM      6  C   LIG    1       25.692 -20.611   5.302  0.00  0.00    -0.043 A 
ATOM      7  C   LIG    1       26.655 -19.709   4.812  0.00  0.00    +0.052 A 
ATOM      8  C   LIG    1       27.883 -19.596   5.452  0.00  0.00    +0.159 A 
ATOM      9  C   LIG    1       28.208 -20.395   6.529  0.00  0.00    +0.158 A 
ATOM     10  C   LIG    1       27.254 -21.267   7.062  0.00  0.00    +0.049 A 
ATOM     11  C   LIG    1       25.984 -21.319   6.472  0.00  0.00    +0.007 A 
BRANCH   8  12
ATOM     12  O   LIG    1       28.789 -18.668   5.001  0.00  0.00    -0.503 OA
ATOM     13  H   LIG    1       29.325 -19.157   4.348  0.00  0.00    +0.292 HD
ENDBRANCH   8  12
BRANCH   9  14
ATOM     14  O   LIG    1       29.464 -20.303   7.062  0.00  0.00    -0.503 OA
ATOM     15  H   LIG    1       29.774 -19.384   6.974  0.00  0.00    +0.292 HD
ENDBRANCH   9  14
ENDBRANCH   5   6
ENDBRANCH   3   5
ENDBRANCH   2   3
BRANCH   2  16
ATOM     16  C   LIG    1       23.959 -18.070   3.503  0.00  0.00    +0.039 C 
BRANCH  16  17
ATOM     17  C   LIG    1       24.439 -16.651   3.650  0.00  0.00    -0.043 A 
ATOM     18  C   LIG    1       25.784 -16.381   3.353  0.00  0.00    +0.052 A 
ATOM     19  C   LIG    1       26.328 -15.152   3.680  0.00  0.00    +0.159 A 
ATOM     20  C   LIG    1       25.542 -14.156   4.249  0.00  0.00    +0.158 A 
ATOM     21  C   LIG    1       24.190 -14.377   4.488  0.00  0.00    +0.049 A 
ATOM     22  C   LIG    1       23.634 -15.628   4.185  0.00  0.00    +0.007 A 
BRANCH  19  23
ATOM     23  O   LIG    1       27.665 -14.956   3.487  0.00  0.00    -0.503 OA
ATOM     24  H   LIG    1       28.052 -15.042   4.380  0.00  0.00    +0.292 HD
ENDBRANCH  19  23
BRANCH  20  25
ATOM     25  O   LIG    1       26.160 -12.979   4.573  0.00  0.00    -0.503 OA
ATOM     26  H   LIG    1       25.594 -12.506   5.205  0.00  0.00    +0.292 HD
ENDBRANCH  20  25
ENDBRANCH  16  17
ENDBRANCH   2  16
TORSDOF 9
ENDMDL
MODEL 2
REMARK VINA RESULT:      -5.5      0.877      5.542
REMARK  Name = *****
REMARK                            x       y       z     vdW  Elec       q    Type
REMARK                         _______ _______ _______ _____ _____    ______ ____
ROOT
ATOM      1  C   LIG    1       22.743 -19.763   6.189  0.00  0.00    +0.008 C 
ATOM      2  C   LIG    1       22.582 -19.938   4.660  0.00  0.00    -0.007 C 
ENDROOT
BRANCH   2   3
ATOM      3  C   LIG    1       22.221 -18.577   3.946  0.00  0.00    -0.007 C 
ATOM      4  C   LIG    1       20.819 -18.545   3.321  0.00  0.00    +0.008 C 
BRANCH   3   5
ATOM      5  C   LIG    1       22.367 -17.290   4.839  0.00  0.00    +0.039 C 
BRANCH   5   6
ATOM      6  C   LIG    1       23.374 -16.252   4.383  0.00  0.00    -0.043 A 
ATOM      7  C   LIG    1       24.611 -16.678   3.864  0.00  0.00    +0.052 A 
ATOM      8  C   LIG    1       25.574 -15.738   3.520  0.00  0.00    +0.159 A 
ATOM      9  C   LIG    1       25.371 -14.390   3.731  0.00  0.00    +0.158 A 
ATOM     10  C   LIG    1       24.136 -13.938   4.204  0.00  0.00    +0.049 A 
ATOM     11  C   LIG    1       23.130 -14.878   4.469  0.00  0.00    +0.007 A 
BRANCH   8  12
ATOM     12  O   LIG    1       26.753 -16.164   2.958  0.00  0.00    -0.503 OA
ATOM     13  H   LIG    1       26.592 -17.105   2.752  0.00  0.00    +0.292 HD
ENDBRANCH   8  12
BRANCH   9  14
ATOM     14  O   LIG    1       26.389 -13.520   3.458  0.00  0.00    -0.503 OA
ATOM     15  H   LIG    1       26.616 -13.039   4.274  0.00  0.00    +0.292 HD
ENDBRANCH   9  14
ENDBRANCH   5   6
ENDBRANCH   3   5
ENDBRANCH   2   3
BRANCH   2  16
ATOM     16  C   LIG    1       23.883 -20.651   4.174  0.00  0.00    +0.039 C 
BRANCH  16  17
ATOM     17  C   LIG    1       25.081 -20.604   5.085  0.00  0.00    -0.043 A 
ATOM     18  C   LIG    1       26.121 -19.722   4.752  0.00  0.00    +0.052 A 
ATOM     19  C   LIG    1       27.329 -19.798   5.424  0.00  0.00    +0.159 A 
ATOM     20  C   LIG    1       27.506 -20.700   6.467  0.00  0.00    +0.158 A 
ATOM     21  C   LIG    1       26.464 -21.535   6.860  0.00  0.00    +0.049 A 
ATOM     22  C   LIG    1       25.245 -21.486   6.169  0.00  0.00    +0.007 A 
BRANCH  19  23
ATOM     23  O   LIG    1       28.361 -19.011   5.004  0.00  0.00    -0.503 OA
ATOM     24  H   LIG    1       27.939 -18.353   4.418  0.00  0.00    +0.292 HD
ENDBRANCH  19  23
BRANCH  20  25
ATOM     25  O   LIG    1       28.738 -20.737   7.062  0.00  0.00    -0.503 OA
ATOM     26  H   LIG    1       29.119 -19.844   7.018  0.00  0.00    +0.292 HD
ENDBRANCH  20  25
ENDBRANCH  16  17
ENDBRANCH   2  16
TORSDOF 9
ENDMDL
MODEL 3
REMARK VINA RESULT:      -5.4      1.398      2.130
REMARK  Name = *****
REMARK                            x       y       z     vdW  Elec       q    Type
REMARK                         _______ _______ _______ _____ _____    ______ ____
ROOT
ATOM      1  C   LIG    1       21.971 -15.935   5.872  0.00  0.00    +0.008 C 
ATOM      2  C   LIG    1       22.776 -16.767   4.846  0.00  0.00    -0.007 C 
ENDROOT
BRANCH   2   3
ATOM      3  C   LIG    1       22.007 -18.078   4.418  0.00  0.00    -0.007 C 
ATOM      4  C   LIG    1       20.886 -17.846   3.394  0.00  0.00    +0.008 C 
BRANCH   3   5
ATOM      5  C   LIG    1       22.913 -19.240   3.866  0.00  0.00    +0.039 C 
BRANCH   5   6
ATOM      6  C   LIG    1       23.986 -19.771   4.797  0.00  0.00    -0.043 A 
ATOM      7  C   LIG    1       25.338 -19.645   4.428  0.00  0.00    +0.052 A 
ATOM      8  C   LIG    1       26.327 -20.200   5.232  0.00  0.00    +0.159 A 
ATOM      9  C   LIG    1       26.010 -20.928   6.360  0.00  0.00    +0.158 A 
ATOM     10  C   LIG    1       24.679 -21.030   6.772  0.00  0.00    +0.049 A 
ATOM     11  C   LIG    1       23.687 -20.397   6.011  0.00  0.00    +0.007 A 
BRANCH   8  12
ATOM     12  O   LIG    1       27.645 -20.017   4.892  0.00  0.00    -0.503 OA
ATOM     13  H   LIG    1       28.139 -20.454   5.612  0.00  0.00    +0.292 HD
ENDBRANCH   8  12
BRANCH   9  14
ATOM     14  O   LIG    1       27.020 -21.527   7.062  0.00  0.00    -0.503 OA
ATOM     15  H   LIG    1       26.983 -22.487   6.903  0.00  0.00    +0.292 HD
ENDBRANCH   9  14
ENDBRANCH   5   6
ENDBRANCH   3   5
ENDBRANCH   2   3
BRANCH   2  16
ATOM     16  C   LIG    1       23.152 -15.779   3.698  0.00  0.00    +0.039 C 
BRANCH  16  17
ATOM     17  C   LIG    1       24.329 -14.868   3.926  0.00  0.00    -0.043 A 
ATOM     18  C   LIG    1       25.613 -15.392   3.707  0.00  0.00    +0.052 A 
ATOM     19  C   LIG    1       26.726 -14.676   4.110  0.00  0.00    +0.159 A 
ATOM     20  C   LIG    1       26.592 -13.413   4.678  0.00  0.00    +0.158 A 
ATOM     21  C   LIG    1       25.332 -12.845   4.840  0.00  0.00    +0.049 A 
ATOM     22  C   LIG    1       24.196 -13.573   4.460  0.00  0.00    +0.007 A 
BRANCH  19  23
ATOM     23  O   LIG    1       27.956 -15.257   3.992  0.00  0.00    -0.503 OA
ATOM     24  H   LIG    1       28.380 -14.774   3.257  0.00  0.00    +0.292 HD
ENDBRANCH  19  23
BRANCH  20  25
ATOM     25  O   LIG    1       27.737 -12.781   5.079  0.00  0.00    -0.503 OA
ATOM     26  H   LIG    1       27.946 -13.080   5.980  0.00  0.00    +0.292 HD
ENDBRANCH  20  25
ENDBRANCH  16  17
ENDBRANCH   2  16
TORSDOF 9
ENDMDL
MODEL 4
REMARK VINA RESULT:      -4.6      2.683      7.100
REMARK  Name = *****
REMARK                            x       y       z     vdW  Elec       q    Type
REMARK                         _______ _______ _______ _____ _____    ______ ____
ROOT
ATOM      1  C   LIG    1       24.513 -16.941   3.755  0.00  0.00    +0.008 C 
ATOM      2  C   LIG    1       25.954 -17.219   3.263  0.00  0.00    -0.007 C 
ENDROOT
BRANCH   2   3
ATOM      3  C   LIG    1       27.036 -16.580   4.219  0.00  0.00    -0.007 C 
ATOM      4  C   LIG    1       28.267 -17.464   4.459  0.00  0.00    +0.008 C 
BRANCH   3   5
ATOM      5  C   LIG    1       27.556 -15.157   3.790  0.00  0.00    +0.039 C 
BRANCH   5   6
ATOM      6  C   LIG    1       26.504 -14.100   3.513  0.00  0.00    -0.043 A 
ATOM      7  C   LIG    1       25.806 -13.528   4.593  0.00  0.00    +0.052 A 
ATOM      8  C   LIG    1       24.783 -12.620   4.349  0.00  0.00    +0.159 A 
ATOM      9  C   LIG    1       24.392 -12.307   3.064  0.00  0.00    +0.158 A 
ATOM     10  C   LIG    1       25.097 -12.828   1.975  0.00  0.00    +0.049 A 
ATOM     11  C   LIG    1       26.186 -13.676   2.220  0.00  0.00    +0.007 A 
BRANCH   8  12
ATOM     12  O   LIG    1       24.151 -12.023   5.412  0.00  0.00    -0.503 OA
ATOM     13  H   LIG    1       23.439 -11.497   5.002  0.00  0.00    +0.292 HD
ENDBRANCH   8  12
BRANCH   9  14
ATOM     14  O   LIG    1       23.320 -11.477   2.885  0.00  0.00    -0.503 OA
ATOM     15  H   LIG    1       22.562 -12.007   2.580  0.00  0.00    +0.292 HD
ENDBRANCH   9  14
ENDBRANCH   5   6
ENDBRANCH   3   5
ENDBRANCH   2   3
BRANCH   2  16
ATOM     16  C   LIG    1       26.041 -18.763   3.054  0.00  0.00    +0.039 C 
BRANCH  16  17
ATOM     17  C   LIG    1       25.362 -19.640   4.072  0.00  0.00    -0.043 A 
ATOM     18  C   LIG    1       23.989 -19.883   3.913  0.00  0.00    +0.052 A 
ATOM     19  C   LIG    1       23.276 -20.492   4.931  0.00  0.00    +0.159 A 
ATOM     20  C   LIG    1       23.916 -20.921   6.089  0.00  0.00    +0.158 A 
ATOM     21  C   LIG    1       25.289 -20.753   6.238  0.00  0.00    +0.049 A 
ATOM     22  C   LIG    1       26.017 -20.113   5.225  0.00  0.00    +0.007 A 
BRANCH  19  23
ATOM     23  O   LIG    1       21.923 -20.613   4.800  0.00  0.00    -0.503 OA
ATOM     24  H   LIG    1       21.630 -20.977   5.658  0.00  0.00    +0.292 HD
ENDBRANCH  19  23
BRANCH  20  25
ATOM     25  O   LIG    1       23.137 -21.486   7.062  0.00  0.00    -0.503 OA
ATOM     26  H   LIG    1       23.384 -22.423   7.138  0.00  0.00    +0.292 HD
ENDBRANCH  20  25
ENDBRANCH  16  17
ENDBRANCH   2  16
TORSDOF 9
ENDMDL
MODEL 5
REMARK VINA RESULT:      -4.2      2.421      4.279
REMARK  Name = *****
REMARK                            x       y       z     vdW  Elec       q    Type
REMARK                         _______ _______ _______ _____ _____    ______ ____
ROOT
ATOM      1  C   LIG    1       23.465 -14.526   2.863  0.00  0.00    +0.008 C 
ATOM      2  C   LIG    1       23.020 -14.278   4.325  0.00  0.00    -0.007 C 
ENDROOT
BRANCH   2   3
ATOM      3  C   LIG    1       22.785 -15.629   5.106  0.00  0.00    -0.007 C 
ATOM      4  C   LIG    1       21.852 -15.503   6.319  0.00  0.00    +0.008 C 
BRANCH   3   5
ATOM      5  C   LIG    1       22.258 -16.828   4.233  0.00  0.00    +0.039 C 
BRANCH   5   6
ATOM      6  C   LIG    1       23.065 -18.111   4.278  0.00  0.00    -0.043 A 
ATOM      7  C   LIG    1       22.546 -19.224   4.965  0.00  0.00    +0.052 A 
ATOM      8  C   LIG    1       23.310 -20.379   5.084  0.00  0.00    +0.159 A 
ATOM      9  C   LIG    1       24.598 -20.442   4.594  0.00  0.00    +0.158 A 
ATOM     10  C   LIG    1       25.120 -19.367   3.869  0.00  0.00    +0.049 A 
ATOM     11  C   LIG    1       24.319 -18.234   3.672  0.00  0.00    +0.007 A 
BRANCH   8  12
ATOM     12  O   LIG    1       22.768 -21.478   5.704  0.00  0.00    -0.503 OA
ATOM     13  H   LIG    1       22.071 -21.108   6.279  0.00  0.00    +0.292 HD
ENDBRANCH   8  12
BRANCH   9  14
ATOM     14  O   LIG    1       25.334 -21.572   4.820  0.00  0.00    -0.503 OA
ATOM     15  H   LIG    1       24.725 -22.326   4.920  0.00  0.00    +0.292 HD
ENDBRANCH   9  14
ENDBRANCH   5   6
ENDBRANCH   3   5
ENDBRANCH   2   3
BRANCH   2  16
ATOM     16  C   LIG    1       24.077 -13.302   4.932  0.00  0.00    +0.039 C 
BRANCH  16  17
ATOM     17  C   LIG    1       25.512 -13.490   4.515  0.00  0.00    -0.043 A 
ATOM     18  C   LIG    1       26.507 -12.918   5.325  0.00  0.00    +0.052 A 
ATOM     19  C   LIG    1       27.814 -12.869   4.876  0.00  0.00    +0.159 A 
ATOM     20  C   LIG    1       28.168 -13.434   3.655  0.00  0.00    +0.158 A 
ATOM     21  C   LIG    1       27.211 -14.067   2.868  0.00  0.00    +0.049 A 
ATOM     22  C   LIG    1       25.877 -14.098   3.301  0.00  0.00    +0.007 A 
BRANCH  19  23
ATOM     23  O   LIG    1       28.740 -12.206   5.628  0.00  0.00    -0.503 OA
ATOM     24  H   LIG    1       28.701 -11.286   5.302  0.00  0.00    +0.292 HD
ENDBRANCH  19  23
BRANCH  20  25
ATOM     25  O   LIG    1       29.475 -13.318   3.266  0.00  0.00    -0.503 OA
ATOM     26  H   LIG    1       29.942 -12.790   3.935  0.00  0.00    +0.292 HD
ENDBRANCH  20  25
ENDBRANCH  16  17
ENDBRANCH   2  16
TORSDOF 9
ENDMDL
MODEL 6
REMARK VINA RESULT:      -3.3      1.566      5.562
REMARK  Name = *****
REMARK                            x       y       z     vdW  Elec       q    Type
REMARK                         _______ _______ _______ _____ _____    ______ ____
ROOT
ATOM      1  C   LIG    1       20.840 -17.985   2.917  0.00  0.00    +0.008 C 
ATOM      2  C   LIG    1       22.007 -17.823   3.922  0.00  0.00    -0.007 C 
ENDROOT
BRANCH   2   3
ATOM      3  C   LIG    1       21.990 -16.407   4.620  0.00  0.00    -0.007 C 
ATOM      4  C   LIG    1       22.580 -16.395   6.037  0.00  0.00    +0.008 C 
BRANCH   3   5
ATOM      5  C   LIG    1       22.687 -15.250   3.812  0.00  0.00    +0.039 C 
BRANCH   5   6
ATOM      6  C   LIG    1       24.193 -15.131   3.950  0.00  0.00    -0.043 A 
ATOM      7  C   LIG    1       24.733 -14.023   4.628  0.00  0.00    +0.052 A 
ATOM      8  C   LIG    1       26.112 -13.859   4.691  0.00  0.00    +0.159 A 
ATOM      9  C   LIG    1       26.969 -14.729   4.049  0.00  0.00    +0.158 A 
ATOM     10  C   LIG    1       26.460 -15.861   3.406  0.00  0.00    +0.049 A 
ATOM     11  C   LIG    1       25.075 -16.076   3.417  0.00  0.00    +0.007 A 
BRANCH   8  12
ATOM     12  O   LIG    1       26.628 -12.807   5.408  0.00  0.00    -0.503 OA
ATOM     13  H   LIG    1       27.353 -13.205   5.926  0.00  0.00    +0.292 HD
ENDBRANCH   8  12
BRANCH   9  14
ATOM     14  O   LIG    1       28.311 -14.466   4.069  0.00  0.00    -0.503 OA
ATOM     15  H   LIG    1       28.602 -14.259   3.163  0.00  0.00    +0.292 HD
ENDBRANCH   9  14
ENDBRANCH   5   6
ENDBRANCH   3   5
ENDBRANCH   2   3
BRANCH   2  16
ATOM     16  C   LIG    1       21.929 -19.062   4.868  0.00  0.00    +0.039 C 
BRANCH  16  17
ATOM     17  C   LIG    1       23.224 -19.600   5.414  0.00  0.00    -0.043 A 
ATOM     18  C   LIG    1       24.357 -19.541   4.586  0.00  0.00    +0.052 A 
ATOM     19  C   LIG    1       25.509 -20.215   4.948  0.00  0.00    +0.159 A 
ATOM     20  C   LIG    1       25.581 -20.904   6.154  0.00  0.00    +0.158 A 
ATOM     21  C   LIG    1       24.494 -20.917   7.022  0.00  0.00    +0.049 A 
ATOM     22  C   LIG    1       23.311 -20.260   6.653  0.00  0.00    +0.007 A 
BRANCH  19  23
ATOM     23  O   LIG    1       26.556 -20.239   4.072  0.00  0.00    -0.503 OA
ATOM     24  H   LIG    1       27.326 -19.968   4.610  0.00  0.00    +0.292 HD
ENDBRANCH  19  23
BRANCH  20  25
ATOM     25  O   LIG    1       26.744 -21.571   6.427  0.00  0.00    -0.503 OA
ATOM     26  H   LIG    1       27.009 -21.354   7.336  0.00  0.00    +0.292 HD
ENDBRANCH  20  25
ENDBRANCH  16  17
ENDBRANCH   2  16
TORSDOF 9
ENDMDL
