MODEL 1
REMARK VINA RESULT:      -8.4      0.000      0.000
REMARK  Name = *****
REMARK                            x       y       z     vdW  Elec       q    Type
REMARK                         _______ _______ _______ _____ _____    ______ ____
ROOT
ATOM      1  C   LIG    1       25.096 -27.421   5.768  0.00  0.00    +0.039 C 
ENDROOT
BRANCH   1   5
ATOM      2  C   LIG    1       24.892 -23.216   6.910  0.00  0.00    -0.042 A 
ATOM      3  C   LIG    1       26.116 -23.899   6.799  0.00  0.00    +0.004 A 
ATOM      4  C   LIG    1       26.168 -25.249   6.441  0.00  0.00    +0.004 A 
ATOM      5  C   LIG    1       25.002 -25.965   6.154  0.00  0.00    -0.047 A 
ATOM      6  C   LIG    1       23.778 -25.302   6.258  0.00  0.00    +0.004 A 
ATOM      7  C   LIG    1       23.730 -23.951   6.625  0.00  0.00    +0.004 A 
BRANCH   2   8
ATOM      8  C   LIG    1       24.835 -21.722   7.290  0.00  0.00    -0.010 C 
ATOM      9  C   LIG    1       25.479 -21.444   8.672  0.00  0.00    +0.016 C 
ATOM     10  C   LIG    1       25.644 -20.861   6.281  0.00  0.00    +0.016 C 
BRANCH   8  12
ATOM     11  C   LIG    1       22.968 -20.330   6.093  0.00  0.00    +0.004 C 
ATOM     12  C   LIG    1       23.361 -21.214   7.274  0.00  0.00    +0.007 C 
ENDBRANCH   8  12
ENDBRANCH   2   8
ENDBRANCH   1   5
BRANCH   1  13
ATOM     13  C   LIG    1       24.487 -28.411   6.787  0.00  0.00    +0.004 C 
ATOM     14  C   LIG    1       23.863 -29.628   6.097  0.00  0.00    +0.009 C 
BRANCH  13  15
ATOM     15  C   LIG    1       25.595 -28.839   7.782  0.00  0.00    +0.088 C 
BRANCH  15  16
ATOM     16  N   LIG    1       25.138 -29.562   8.983  0.00  0.00    -0.297 NA
ATOM     17  C   LIG    1       25.355 -31.025   8.836  0.00  0.00    +0.115 C 
ATOM     18  C   LIG    1       26.846 -31.432   8.895  0.00  0.00    +0.130 C 
ATOM     19  C   LIG    1       27.010 -32.943   8.812  0.00  0.00    +0.039 C 
ATOM     20  O   LIG    1       27.448 -30.987  10.122  0.00  0.00    -0.371 OA
ATOM     21  C   LIG    1       27.306 -29.566  10.289  0.00  0.00    +0.130 C 
ATOM     22  C   LIG    1       27.912 -29.193  11.636  0.00  0.00    +0.039 C 
ATOM     23  C   LIG    1       25.820 -29.149  10.229  0.00  0.00    +0.115 C 
ENDBRANCH  15  16
ENDBRANCH  13  15
ENDBRANCH   1  13
TORSDOF 6
ENDMDL
MODEL 2
REMARK VINA RESULT:      -8.3      2.321      3.250
REMARK  Name = *****
REMARK                            x       y       z     vdW  Elec       q    Type
REMARK                         _______ _______ _______ _____ _____    ______ ____
ROOT
ATOM      1  C   LIG    1       24.720 -27.035   6.609  0.00  0.00    +0.039 C 
ENDROOT
BRANCH   1   5
ATOM      2  C   LIG    1       24.751 -22.676   6.770  0.00  0.00    -0.042 A 
ATOM      3  C   LIG    1       25.928 -23.434   6.898  0.00  0.00    +0.004 A 
ATOM      4  C   LIG    1       25.904 -24.831   6.854  0.00  0.00    +0.004 A 
ATOM      5  C   LIG    1       24.708 -25.526   6.654  0.00  0.00    -0.047 A 
ATOM      6  C   LIG    1       23.530 -24.789   6.523  0.00  0.00    +0.004 A 
ATOM      7  C   LIG    1       23.558 -23.390   6.576  0.00  0.00    +0.004 A 
BRANCH   2   8
ATOM      8  C   LIG    1       24.779 -21.133   6.803  0.00  0.00    -0.010 C 
ATOM      9  C   LIG    1       25.594 -20.588   8.002  0.00  0.00    +0.016 C 
ATOM     10  C   LIG    1       25.480 -20.563   5.538  0.00  0.00    +0.016 C 
BRANCH   8  12
ATOM     11  C   LIG    1       22.819 -19.939   5.543  0.00  0.00    +0.004 C 
ATOM     12  C   LIG    1       23.327 -20.565   6.839  0.00  0.00    +0.007 C 
ENDBRANCH   8  12
ENDBRANCH   2   8
ENDBRANCH   1   5
BRANCH   1  13
ATOM     13  C   LIG    1       24.912 -27.648   5.203  0.00  0.00    +0.004 C 
ATOM     14  C   LIG    1       26.332 -27.425   4.673  0.00  0.00    +0.009 C 
BRANCH  13  15
ATOM     15  C   LIG    1       24.571 -29.157   5.272  0.00  0.00    +0.088 C 
BRANCH  15  16
ATOM     16  N   LIG    1       25.596 -30.023   5.885  0.00  0.00    -0.297 NA
ATOM     17  C   LIG    1       25.178 -30.461   7.242  0.00  0.00    +0.115 C 
ATOM     18  C   LIG    1       24.017 -31.484   7.223  0.00  0.00    +0.130 C 
ATOM     19  C   LIG    1       23.675 -31.955   8.630  0.00  0.00    +0.039 C 
ATOM     20  O   LIG    1       24.366 -32.638   6.441  0.00  0.00    -0.371 OA
ATOM     21  C   LIG    1       24.734 -32.270   5.101  0.00  0.00    +0.130 C 
ATOM     22  C   LIG    1       25.147 -33.538   4.366  0.00  0.00    +0.039 C 
ATOM     23  C   LIG    1       25.891 -31.247   5.108  0.00  0.00    +0.115 C 
ENDBRANCH  15  16
ENDBRANCH  13  15
ENDBRANCH   1  13
TORSDOF 6
ENDMDL
MODEL 3
REMARK VINA RESULT:      -8.3      2.224      2.594
REMARK  Name = *****
REMARK                            x       y       z     vdW  Elec       q    Type
REMARK                         _______ _______ _______ _____ _____    ______ ____
ROOT
ATOM      1  C   LIG    1       24.744 -27.060   6.643  0.00  0.00    +0.039 C 
ENDROOT
BRANCH   1   5
ATOM      2  C   LIG    1       24.770 -22.700   6.787  0.00  0.00    -0.042 A 
ATOM      3  C   LIG    1       25.938 -23.458   6.978  0.00  0.00    +0.004 A 
ATOM      4  C   LIG    1       25.915 -24.855   6.939  0.00  0.00    +0.004 A 
ATOM      5  C   LIG    1       24.731 -25.551   6.681  0.00  0.00    -0.047 A 
ATOM      6  C   LIG    1       23.562 -24.814   6.486  0.00  0.00    +0.004 A 
ATOM      7  C   LIG    1       23.587 -23.414   6.534  0.00  0.00    +0.004 A 
BRANCH   2   8
ATOM      8  C   LIG    1       24.797 -21.158   6.814  0.00  0.00    -0.010 C 
ATOM      9  C   LIG    1       25.619 -20.608   8.007  0.00  0.00    +0.016 C 
ATOM     10  C   LIG    1       25.491 -20.592   5.544  0.00  0.00    +0.016 C 
BRANCH   8  12
ATOM     11  C   LIG    1       22.832 -19.962   5.563  0.00  0.00    +0.004 C 
ATOM     12  C   LIG    1       23.346 -20.590   6.856  0.00  0.00    +0.007 C 
ENDBRANCH   8  12
ENDBRANCH   2   8
ENDBRANCH   1   5
BRANCH   1  13
ATOM     13  C   LIG    1       25.005 -27.679   5.251  0.00  0.00    +0.004 C 
ATOM     14  C   LIG    1       25.809 -26.738   4.349  0.00  0.00    +0.009 C 
BRANCH  13  15
ATOM     15  C   LIG    1       25.736 -29.032   5.442  0.00  0.00    +0.088 C 
BRANCH  15  16
ATOM     16  N   LIG    1       24.922 -30.242   5.225  0.00  0.00    -0.297 NA
ATOM     17  C   LIG    1       25.786 -31.432   5.011  0.00  0.00    +0.115 C 
ATOM     18  C   LIG    1       26.519 -31.894   6.293  0.00  0.00    +0.130 C 
ATOM     19  C   LIG    1       27.332 -33.155   6.038  0.00  0.00    +0.039 C 
ATOM     20  O   LIG    1       25.580 -32.175   7.344  0.00  0.00    -0.371 OA
ATOM     21  C   LIG    1       24.749 -31.035   7.622  0.00  0.00    +0.130 C 
ATOM     22  C   LIG    1       23.749 -31.439   8.697  0.00  0.00    +0.039 C 
ATOM     23  C   LIG    1       24.014 -30.564   6.348  0.00  0.00    +0.115 C 
ENDBRANCH  15  16
ENDBRANCH  13  15
ENDBRANCH   1  13
TORSDOF 6
ENDMDL
MODEL 4
REMARK VINA RESULT:      -8.3      1.913      2.602
REMARK  Name = *****
REMARK                            x       y       z     vdW  Elec       q    Type
REMARK                         _______ _______ _______ _____ _____    ______ ____
ROOT
ATOM      1  C   LIG    1       24.733 -27.137   6.629  0.00  0.00    +0.039 C 
ENDROOT
BRANCH   1   5
ATOM      2  C   LIG    1       24.764 -22.777   6.749  0.00  0.00    -0.042 A 
ATOM      3  C   LIG    1       25.932 -23.535   6.936  0.00  0.00    +0.004 A 
ATOM      4  C   LIG    1       25.909 -24.933   6.905  0.00  0.00    +0.004 A 
ATOM      5  C   LIG    1       24.722 -25.629   6.659  0.00  0.00    -0.047 A 
ATOM      6  C   LIG    1       23.552 -24.891   6.469  0.00  0.00    +0.004 A 
ATOM      7  C   LIG    1       23.579 -23.492   6.509  0.00  0.00    +0.004 A 
BRANCH   2   8
ATOM      8  C   LIG    1       24.792 -21.234   6.767  0.00  0.00    -0.010 C 
ATOM      9  C   LIG    1       25.630 -20.679   7.947  0.00  0.00    +0.016 C 
ATOM     10  C   LIG    1       25.471 -20.676   5.486  0.00  0.00    +0.016 C 
BRANCH   8  12
ATOM     11  C   LIG    1       22.840 -19.979   5.557  0.00  0.00    +0.004 C 
ATOM     12  C   LIG    1       23.342 -20.665   6.825  0.00  0.00    +0.007 C 
ENDBRANCH   8  12
ENDBRANCH   2   8
ENDBRANCH   1   5
BRANCH   1  13
ATOM     13  C   LIG    1       25.083 -27.765   5.260  0.00  0.00    +0.004 C 
ATOM     14  C   LIG    1       26.335 -27.131   4.646  0.00  0.00    +0.009 C 
BRANCH  13  15
ATOM     15  C   LIG    1       25.263 -29.292   5.449  0.00  0.00    +0.088 C 
BRANCH  15  16
ATOM     16  N   LIG    1       24.573 -29.885   6.609  0.00  0.00    -0.297 NA
ATOM     17  C   LIG    1       23.635 -30.954   6.179  0.00  0.00    +0.115 C 
ATOM     18  C   LIG    1       24.352 -32.232   5.680  0.00  0.00    +0.130 C 
ATOM     19  C   LIG    1       23.352 -33.321   5.321  0.00  0.00    +0.039 C 
ATOM     20  O   LIG    1       25.230 -32.752   6.692  0.00  0.00    -0.371 OA
ATOM     21  C   LIG    1       26.190 -31.766   7.109  0.00  0.00    +0.130 C 
ATOM     22  C   LIG    1       27.033 -32.378   8.221  0.00  0.00    +0.039 C 
ATOM     23  C   LIG    1       25.484 -30.485   7.607  0.00  0.00    +0.115 C 
ENDBRANCH  15  16
ENDBRANCH  13  15
ENDBRANCH   1  13
TORSDOF 6
ENDMDL
MODEL 5
REMARK VINA RESULT:      -8.2      3.442      8.405
REMARK  Name = *****
REMARK                            x       y       z     vdW  Elec       q    Type
REMARK                         _______ _______ _______ _____ _____    ______ ____
ROOT
ATOM      1  C   LIG    1       25.170 -24.675   5.203  0.00  0.00    +0.039 C 
ENDROOT
BRANCH   1   5
ATOM      2  C   LIG    1       25.205 -28.529   7.246  0.00  0.00    -0.042 A 
ATOM      3  C   LIG    1       26.082 -27.490   7.601  0.00  0.00    +0.004 A 
ATOM      4  C   LIG    1       26.068 -26.262   6.933  0.00  0.00    +0.004 A 
ATOM      5  C   LIG    1       25.159 -26.013   5.901  0.00  0.00    -0.047 A 
ATOM      6  C   LIG    1       24.279 -27.034   5.536  0.00  0.00    +0.004 A 
ATOM      7  C   LIG    1       24.303 -28.265   6.203  0.00  0.00    +0.004 A 
BRANCH   2   8
ATOM      8  C   LIG    1       25.210 -29.879   7.993  0.00  0.00    -0.010 C 
ATOM      9  C   LIG    1       25.575 -31.062   7.062  0.00  0.00    +0.016 C 
ATOM     10  C   LIG    1       26.289 -29.891   9.112  0.00  0.00    +0.016 C 
BRANCH   8  12
ATOM     11  C   LIG    1       23.812 -30.150  10.191  0.00  0.00    +0.004 C 
ATOM     12  C   LIG    1       23.826 -30.133   8.664  0.00  0.00    +0.007 C 
ENDBRANCH   8  12
ENDBRANCH   2   8
ENDBRANCH   1   5
BRANCH   1  13
ATOM     13  C   LIG    1       24.430 -23.540   5.949  0.00  0.00    +0.004 C 
ATOM     14  C   LIG    1       23.242 -24.069   6.758  0.00  0.00    +0.009 C 
BRANCH  13  15
ATOM     15  C   LIG    1       25.445 -22.805   6.860  0.00  0.00    +0.088 C 
BRANCH  15  16
ATOM     16  N   LIG    1       25.175 -21.377   7.105  0.00  0.00    -0.297 NA
ATOM     17  C   LIG    1       26.415 -20.664   7.508  0.00  0.00    +0.115 C 
ATOM     18  C   LIG    1       27.426 -20.494   6.349  0.00  0.00    +0.130 C 
ATOM     19  C   LIG    1       28.643 -19.696   6.793  0.00  0.00    +0.039 C 
ATOM     20  O   LIG    1       26.822 -19.803   5.243  0.00  0.00    -0.371 OA
ATOM     21  C   LIG    1       25.640 -20.482   4.784  0.00  0.00    +0.130 C 
ATOM     22  C   LIG    1       25.034 -19.653   3.660  0.00  0.00    +0.039 C 
ATOM     23  C   LIG    1       24.624 -20.659   5.935  0.00  0.00    +0.115 C 
ENDBRANCH  15  16
ENDBRANCH  13  15
ENDBRANCH   1  13
TORSDOF 6
ENDMDL
MODEL 6
REMARK VINA RESULT:      -8.1      3.423      8.563
REMARK  Name = *****
REMARK                            x       y       z     vdW  Elec       q    Type
REMARK                         _______ _______ _______ _____ _____    ______ ____
ROOT
ATOM      1  C   LIG    1       25.140 -24.843   5.102  0.00  0.00    +0.039 C 
ENDROOT
BRANCH   1   5
ATOM      2  C   LIG    1       25.187 -28.595   7.326  0.00  0.00    -0.042 A 
ATOM      3  C   LIG    1       24.316 -28.382   6.244  0.00  0.00    +0.004 A 
ATOM      4  C   LIG    1       24.304 -27.172   5.544  0.00  0.00    +0.004 A 
ATOM      5  C   LIG    1       25.179 -26.135   5.881  0.00  0.00    -0.047 A 
ATOM      6  C   LIG    1       26.052 -26.330   6.953  0.00  0.00    +0.004 A 
ATOM      7  C   LIG    1       26.055 -27.542   7.655  0.00  0.00    +0.004 A 
BRANCH   2   8
ATOM      8  C   LIG    1       25.212 -29.937   8.088  0.00  0.00    -0.010 C 
ATOM      9  C   LIG    1       26.320 -29.973   9.172  0.00  0.00    +0.016 C 
ATOM     10  C   LIG    1       23.881 -30.164   8.857  0.00  0.00    +0.016 C 
BRANCH   8  12
ATOM     11  C   LIG    1       26.559 -32.069   7.386  0.00  0.00    +0.004 C 
ATOM     12  C   LIG    1       25.397 -31.123   7.094  0.00  0.00    +0.007 C 
ENDBRANCH   8  12
ENDBRANCH   2   8
ENDBRANCH   1   5
BRANCH   1  13
ATOM     13  C   LIG    1       24.477 -23.655   5.836  0.00  0.00    +0.004 C 
ATOM     14  C   LIG    1       23.329 -24.112   6.741  0.00  0.00    +0.009 C 
BRANCH  13  15
ATOM     15  C   LIG    1       25.564 -22.906   6.646  0.00  0.00    +0.088 C 
BRANCH  15  16
ATOM     16  N   LIG    1       25.255 -21.510   7.005  0.00  0.00    -0.297 NA
ATOM     17  C   LIG    1       26.477 -20.794   7.454  0.00  0.00    +0.115 C 
ATOM     18  C   LIG    1       27.472 -20.504   6.305  0.00  0.00    +0.130 C 
ATOM     19  C   LIG    1       28.670 -19.707   6.801  0.00  0.00    +0.039 C 
ATOM     20  O   LIG    1       26.838 -19.747   5.260  0.00  0.00    -0.371 OA
ATOM     21  C   LIG    1       25.672 -20.423   4.758  0.00  0.00    +0.130 C 
ATOM     22  C   LIG    1       25.032 -19.527   3.706  0.00  0.00    +0.039 C 
ATOM     23  C   LIG    1       24.673 -20.720   5.899  0.00  0.00    +0.115 C 
ENDBRANCH  15  16
ENDBRANCH  13  15
ENDBRANCH   1  13
TORSDOF 6
ENDMDL
MODEL 7
REMARK VINA RESULT:      -8.1      0.994      1.766
REMARK  Name = *****
REMARK                            x       y       z     vdW  Elec       q    Type
REMARK                         _______ _______ _______ _____ _____    ______ ____
ROOT
ATOM      1  C   LIG    1       25.062 -27.508   5.743  0.00  0.00    +0.039 C 
ENDROOT
BRANCH   1   5
ATOM      2  C   LIG    1       24.896 -23.301   6.883  0.00  0.00    -0.042 A 
ATOM      3  C   LIG    1       26.114 -23.989   6.751  0.00  0.00    +0.004 A 
ATOM      4  C   LIG    1       26.154 -25.339   6.394  0.00  0.00    +0.004 A 
ATOM      5  C   LIG    1       24.981 -26.051   6.129  0.00  0.00    -0.047 A 
ATOM      6  C   LIG    1       23.762 -25.383   6.254  0.00  0.00    +0.004 A 
ATOM      7  C   LIG    1       23.726 -24.032   6.619  0.00  0.00    +0.004 A 
BRANCH   2   8
ATOM      8  C   LIG    1       24.851 -21.806   7.262  0.00  0.00    -0.010 C 
ATOM      9  C   LIG    1       25.521 -21.528   8.631  0.00  0.00    +0.016 C 
ATOM     10  C   LIG    1       25.646 -20.949   6.237  0.00  0.00    +0.016 C 
BRANCH   8  12
ATOM     11  C   LIG    1       22.976 -20.386   6.110  0.00  0.00    +0.004 C 
ATOM     12  C   LIG    1       23.379 -21.292   7.271  0.00  0.00    +0.007 C 
ENDBRANCH   8  12
ENDBRANCH   2   8
ENDBRANCH   1   5
BRANCH   1  13
ATOM     13  C   LIG    1       24.463 -28.494   6.772  0.00  0.00    +0.004 C 
ATOM     14  C   LIG    1       24.193 -29.869   6.154  0.00  0.00    +0.009 C 
BRANCH  13  15
ATOM     15  C   LIG    1       25.433 -28.602   7.975  0.00  0.00    +0.088 C 
BRANCH  15  16
ATOM     16  N   LIG    1       25.527 -29.929   8.611  0.00  0.00    -0.297 NA
ATOM     17  C   LIG    1       26.804 -30.071   9.357  0.00  0.00    +0.115 C 
ATOM     18  C   LIG    1       26.859 -29.213  10.644  0.00  0.00    +0.130 C 
ATOM     19  C   LIG    1       28.153 -29.447  11.408  0.00  0.00    +0.039 C 
ATOM     20  O   LIG    1       25.763 -29.532  11.518  0.00  0.00    -0.371 OA
ATOM     21  C   LIG    1       24.499 -29.365  10.854  0.00  0.00    +0.130 C 
ATOM     22  C   LIG    1       23.404 -29.783  11.826  0.00  0.00    +0.039 C 
ATOM     23  C   LIG    1       24.434 -30.216   9.566  0.00  0.00    +0.115 C 
ENDBRANCH  15  16
ENDBRANCH  13  15
ENDBRANCH   1  13
TORSDOF 6
ENDMDL
MODEL 8
REMARK VINA RESULT:      -8.1      1.401      1.682
REMARK  Name = *****
REMARK                            x       y       z     vdW  Elec       q    Type
REMARK                         _______ _______ _______ _____ _____    ______ ____
ROOT
ATOM      1  C   LIG    1       25.800 -26.964   5.860  0.00  0.00    +0.039 C 
ENDROOT
BRANCH   1   5
ATOM      2  C   LIG    1       25.144 -22.677   6.328  0.00  0.00    -0.042 A 
ATOM      3  C   LIG    1       24.800 -23.358   5.148  0.00  0.00    +0.004 A 
ATOM      4  C   LIG    1       25.023 -24.731   5.006  0.00  0.00    +0.004 A 
ATOM      5  C   LIG    1       25.575 -25.483   6.047  0.00  0.00    -0.047 A 
ATOM      6  C   LIG    1       25.922 -24.823   7.227  0.00  0.00    +0.004 A 
ATOM      7  C   LIG    1       25.704 -23.446   7.361  0.00  0.00    +0.004 A 
BRANCH   2   8
ATOM      8  C   LIG    1       24.884 -21.165   6.491  0.00  0.00    -0.010 C 
ATOM      9  C   LIG    1       25.633 -20.570   7.711  0.00  0.00    +0.016 C 
ATOM     10  C   LIG    1       25.412 -20.374   5.262  0.00  0.00    +0.016 C 
BRANCH   8  12
ATOM     11  C   LIG    1       22.757 -19.947   5.570  0.00  0.00    +0.004 C 
ATOM     12  C   LIG    1       23.355 -20.887   6.614  0.00  0.00    +0.007 C 
ENDBRANCH   8  12
ENDBRANCH   2   8
ENDBRANCH   1   5
BRANCH   1  13
ATOM     13  C   LIG    1       24.658 -27.871   6.374  0.00  0.00    +0.004 C 
ATOM     14  C   LIG    1       24.023 -28.684   5.241  0.00  0.00    +0.009 C 
BRANCH  13  15
ATOM     15  C   LIG    1       25.223 -28.797   7.479  0.00  0.00    +0.088 C 
BRANCH  15  16
ATOM     16  N   LIG    1       24.465 -30.036   7.733  0.00  0.00    -0.297 NA
ATOM     17  C   LIG    1       25.351 -31.226   7.655  0.00  0.00    +0.115 C 
ATOM     18  C   LIG    1       26.338 -31.332   8.843  0.00  0.00    +0.130 C 
ATOM     19  C   LIG    1       27.171 -32.603   8.755  0.00  0.00    +0.039 C 
ATOM     20  O   LIG    1       25.630 -31.351  10.094  0.00  0.00    -0.371 OA
ATOM     21  C   LIG    1       24.791 -30.192  10.238  0.00  0.00    +0.130 C 
ATOM     22  C   LIG    1       24.036 -30.325  11.554  0.00  0.00    +0.039 C 
ATOM     23  C   LIG    1       23.804 -30.075   9.055  0.00  0.00    +0.115 C 
ENDBRANCH  15  16
ENDBRANCH  13  15
ENDBRANCH   1  13
TORSDOF 6
ENDMDL
MODEL 9
REMARK VINA RESULT:      -8.0      5.792      8.666
REMARK  Name = *****
REMARK                            x       y       z     vdW  Elec       q    Type
REMARK                         _______ _______ _______ _____ _____    ______ ____
ROOT
ATOM      1  C   LIG    1       24.471 -22.336   7.945  0.00  0.00    +0.039 C 
ENDROOT
BRANCH   1   5
ATOM      2  C   LIG    1       28.390 -20.424   7.824  0.00  0.00    -0.042 A 
ATOM      3  C   LIG    1       27.340 -19.920   8.609  0.00  0.00    +0.004 A 
ATOM      4  C   LIG    1       26.086 -20.536   8.633  0.00  0.00    +0.004 A 
ATOM      5  C   LIG    1       25.837 -21.696   7.894  0.00  0.00    -0.047 A 
ATOM      6  C   LIG    1       26.870 -22.212   7.109  0.00  0.00    +0.004 A 
ATOM      7  C   LIG    1       28.123 -21.587   7.082  0.00  0.00    +0.004 A 
BRANCH   2   8
ATOM      8  C   LIG    1       29.780 -19.754   7.809  0.00  0.00    -0.010 C 
ATOM      9  C   LIG    1       29.819 -18.469   8.674  0.00  0.00    +0.016 C 
ATOM     10  C   LIG    1       30.856 -20.693   8.423  0.00  0.00    +0.016 C 
BRANCH   8  12
ATOM     11  C   LIG    1       29.335 -18.428   5.596  0.00  0.00    +0.004 C 
ATOM     12  C   LIG    1       30.211 -19.429   6.346  0.00  0.00    +0.007 C 
ENDBRANCH   8  12
ENDBRANCH   2   8
ENDBRANCH   1   5
BRANCH   1  13
ATOM     13  C   LIG    1       23.946 -22.872   6.594  0.00  0.00    +0.004 C 
ATOM     14  C   LIG    1       23.436 -24.311   6.711  0.00  0.00    +0.009 C 
BRANCH  13  15
ATOM     15  C   LIG    1       22.832 -21.923   6.085  0.00  0.00    +0.088 C 
BRANCH  15  16
ATOM     16  N   LIG    1       22.886 -21.574   4.654  0.00  0.00    -0.297 NA
ATOM     17  C   LIG    1       22.080 -20.357   4.374  0.00  0.00    +0.115 C 
ATOM     18  C   LIG    1       22.714 -19.062   4.933  0.00  0.00    +0.130 C 
ATOM     19  C   LIG    1       21.890 -17.838   4.559  0.00  0.00    +0.039 C 
ATOM     20  O   LIG    1       24.042 -18.878   4.415  0.00  0.00    -0.371 OA
ATOM     21  C   LIG    1       24.877 -20.013   4.702  0.00  0.00    +0.130 C 
ATOM     22  C   LIG    1       26.238 -19.762   4.066  0.00  0.00    +0.039 C 
ATOM     23  C   LIG    1       24.252 -21.313   4.149  0.00  0.00    +0.115 C 
ENDBRANCH  15  16
ENDBRANCH  13  15
ENDBRANCH   1  13
TORSDOF 6
ENDMDL
