MODEL 1
REMARK VINA RESULT:      -8.0      0.000      0.000
REMARK  Name = *****
REMARK                            x       y       z     vdW  Elec       q    Type
REMARK                         _______ _______ _______ _____ _____    ______ ____
ROOT
ATOM      1  O   LIG    1       25.318 -22.306   9.074  0.00  0.00    -0.252 OA
ATOM      2  C   LIG    1       25.473 -22.085   7.887  0.00  0.00    +0.306 C 
ATOM      3  N   LIG    1       24.923 -22.809   6.836  0.00  0.00    -0.272 N 
ATOM      4  C   LIG    1       25.423 -22.347   5.544  0.00  0.00    +0.152 C 
ATOM      5  C   LIG    1       26.152 -21.024   5.888  0.00  0.00    +0.155 C 
ATOM      6  C   LIG    1       25.310 -19.828   5.393  0.00  0.00    +0.230 C 
ATOM      7  S   LIG    1       23.619 -20.448   4.948  0.00  0.00    -0.004 S 
ATOM      8  C   LIG    1       23.658 -19.636   3.310  0.00  0.00    +0.278 C 
ATOM      9  C   LIG    1       24.722 -18.555   3.392  0.00  0.00    +0.059 C 
ATOM     10  C   LIG    1       25.888 -19.186   4.128  0.00  0.00    +0.064 C 
ATOM     11  C   LIG    1       24.366 -22.050   4.485  0.00  0.00    +0.302 C 
ATOM     12  N   LIG    1       26.260 -21.080   7.341  0.00  0.00    -0.271 N 
ENDROOT
BRANCH   3  13
ATOM     13  C   LIG    1       24.124 -24.005   7.038  0.00  0.00    +0.145 C 
BRANCH  13  14
ATOM     14  C   LIG    1       24.722 -25.262   6.449  0.00  0.00    -0.030 A 
ATOM     15  C   LIG    1       23.944 -26.146   5.686  0.00  0.00    +0.005 A 
ATOM     16  C   LIG    1       24.518 -27.281   5.105  0.00  0.00    +0.000 A 
ATOM     17  C   LIG    1       25.875 -27.543   5.276  0.00  0.00    +0.000 A 
ATOM     18  C   LIG    1       26.663 -26.668   6.022  0.00  0.00    +0.000 A 
ATOM     19  C   LIG    1       26.091 -25.533   6.601  0.00  0.00    +0.005 A 
ENDBRANCH  13  14
ENDBRANCH   3  13
BRANCH  12  20
ATOM     20  C   LIG    1       27.019 -20.134   8.136  0.00  0.00    +0.145 C 
BRANCH  20  21
ATOM     21  C   LIG    1       28.444 -19.968   7.663  0.00  0.00    -0.030 A 
ATOM     22  C   LIG    1       28.748 -19.104   6.601  0.00  0.00    +0.005 A 
ATOM     23  C   LIG    1       30.072 -18.906   6.204  0.00  0.00    +0.000 A 
ATOM     24  C   LIG    1       31.106 -19.567   6.863  0.00  0.00    +0.000 A 
ATOM     25  C   LIG    1       30.817 -20.433   7.917  0.00  0.00    +0.000 A 
ATOM     26  C   LIG    1       29.494 -20.634   8.314  0.00  0.00    +0.005 A 
ENDBRANCH  20  21
ENDBRANCH  12  20
TORSDOF 4
ENDMDL
MODEL 2
REMARK VINA RESULT:      -7.8      5.287      9.345
REMARK  Name = *****
REMARK                            x       y       z     vdW  Elec       q    Type
REMARK                         _______ _______ _______ _____ _____    ______ ____
ROOT
ATOM      1  O   LIG    1       26.959 -27.863   8.959  0.00  0.00    -0.252 OA
ATOM      2  C   LIG    1       26.012 -28.470   8.495  0.00  0.00    +0.306 C 
ATOM      3  N   LIG    1       25.455 -28.289   7.234  0.00  0.00    -0.272 N 
ATOM      4  C   LIG    1       24.250 -29.094   7.057  0.00  0.00    +0.152 C 
ATOM      5  C   LIG    1       24.269 -30.049   8.275  0.00  0.00    +0.155 C 
ATOM      6  C   LIG    1       24.648 -31.472   7.808  0.00  0.00    +0.230 C 
ATOM      7  S   LIG    1       25.295 -31.364   6.072  0.00  0.00    -0.004 S 
ATOM      8  C   LIG    1       24.189 -32.697   5.487  0.00  0.00    +0.278 C 
ATOM      9  C   LIG    1       23.754 -33.469   6.720  0.00  0.00    +0.059 C 
ATOM     10  C   LIG    1       23.444 -32.418   7.770  0.00  0.00    +0.064 C 
ATOM     11  C   LIG    1       24.191 -29.937   5.787  0.00  0.00    +0.302 C 
ATOM     12  N   LIG    1       25.274 -29.451   9.144  0.00  0.00    -0.271 N 
ENDROOT
BRANCH   3  13
ATOM     13  C   LIG    1       25.912 -27.261   6.314  0.00  0.00    +0.145 C 
BRANCH  13  14
ATOM     14  C   LIG    1       25.299 -25.899   6.546  0.00  0.00    -0.030 A 
ATOM     15  C   LIG    1       26.090 -24.804   6.928  0.00  0.00    +0.005 A 
ATOM     16  C   LIG    1       25.520 -23.538   7.094  0.00  0.00    +0.000 A 
ATOM     17  C   LIG    1       24.158 -23.349   6.876  0.00  0.00    +0.000 A 
ATOM     18  C   LIG    1       23.362 -24.425   6.486  0.00  0.00    +0.000 A 
ATOM     19  C   LIG    1       23.930 -25.691   6.317  0.00  0.00    +0.005 A 
ENDBRANCH  13  14
ENDBRANCH   3  13
BRANCH  12  20
ATOM     20  C   LIG    1       25.544 -29.892  10.499  0.00  0.00    +0.145 C 
BRANCH  20  21
ATOM     21  C   LIG    1       24.793 -29.100  11.543  0.00  0.00    -0.030 A 
ATOM     22  C   LIG    1       25.434 -28.082  12.265  0.00  0.00    +0.005 A 
ATOM     23  C   LIG    1       24.723 -27.311  13.189  0.00  0.00    +0.000 A 
ATOM     24  C   LIG    1       23.366 -27.547  13.399  0.00  0.00    +0.000 A 
ATOM     25  C   LIG    1       22.718 -28.558  12.691  0.00  0.00    +0.000 A 
ATOM     26  C   LIG    1       23.427 -29.332  11.770  0.00  0.00    +0.005 A 
ENDBRANCH  20  21
ENDBRANCH  12  20
TORSDOF 4
ENDMDL
MODEL 3
REMARK VINA RESULT:      -7.4      4.937      8.333
REMARK  Name = *****
REMARK                            x       y       z     vdW  Elec       q    Type
REMARK                         _______ _______ _______ _____ _____    ______ ____
ROOT
ATOM      1  O   LIG    1       25.669 -29.029   4.742  0.00  0.00    -0.252 OA
ATOM      2  C   LIG    1       25.429 -28.996   5.934  0.00  0.00    +0.306 C 
ATOM      3  N   LIG    1       24.823 -30.001   6.680  0.00  0.00    -0.272 N 
ATOM      4  C   LIG    1       24.572 -29.575   8.054  0.00  0.00    +0.152 C 
ATOM      5  C   LIG    1       25.369 -28.253   8.176  0.00  0.00    +0.155 C 
ATOM      6  C   LIG    1       26.627 -28.489   9.041  0.00  0.00    +0.230 C 
ATOM      7  S   LIG    1       26.862 -30.318   9.245  0.00  0.00    -0.004 S 
ATOM      8  C   LIG    1       27.031 -30.180  11.060  0.00  0.00    +0.278 C 
ATOM      9  C   LIG    1       27.387 -28.732  11.350  0.00  0.00    +0.059 C 
ATOM     10  C   LIG    1       26.490 -27.904  10.449  0.00  0.00    +0.064 C 
ATOM     11  C   LIG    1       25.050 -30.526   9.147  0.00  0.00    +0.302 C 
ATOM     12  N   LIG    1       25.685 -27.933   6.790  0.00  0.00    -0.271 N 
ENDROOT
BRANCH   3  13
ATOM     13  C   LIG    1       24.320 -31.227   6.085  0.00  0.00    +0.145 C 
BRANCH  13  14
ATOM     14  C   LIG    1       25.390 -32.125   5.507  0.00  0.00    -0.030 A 
ATOM     15  C   LIG    1       25.357 -32.516   4.160  0.00  0.00    +0.005 A 
ATOM     16  C   LIG    1       26.378 -33.308   3.623  0.00  0.00    +0.000 A 
ATOM     17  C   LIG    1       27.443 -33.713   4.424  0.00  0.00    +0.000 A 
ATOM     18  C   LIG    1       27.494 -33.323   5.761  0.00  0.00    +0.000 A 
ATOM     19  C   LIG    1       26.476 -32.531   6.298  0.00  0.00    +0.005 A 
ENDBRANCH  13  14
ENDBRANCH   3  13
BRANCH  12  20
ATOM     20  C   LIG    1       26.291 -26.687   6.361  0.00  0.00    +0.145 C 
BRANCH  20  21
ATOM     21  C   LIG    1       25.409 -25.484   6.600  0.00  0.00    -0.030 A 
ATOM     22  C   LIG    1       25.956 -24.280   7.067  0.00  0.00    +0.005 A 
ATOM     23  C   LIG    1       25.150 -23.151   7.232  0.00  0.00    +0.000 A 
ATOM     24  C   LIG    1       23.791 -23.212   6.929  0.00  0.00    +0.000 A 
ATOM     25  C   LIG    1       23.235 -24.404   6.469  0.00  0.00    +0.000 A 
ATOM     26  C   LIG    1       24.038 -25.535   6.306  0.00  0.00    +0.005 A 
ENDBRANCH  20  21
ENDBRANCH  12  20
TORSDOF 4
ENDMDL
MODEL 4
REMARK VINA RESULT:      -7.2      2.133      4.606
REMARK  Name = *****
REMARK                            x       y       z     vdW  Elec       q    Type
REMARK                         _______ _______ _______ _____ _____    ______ ____
ROOT
ATOM      1  O   LIG    1       24.326 -21.748   4.379  0.00  0.00    -0.252 OA
ATOM      2  C   LIG    1       25.041 -21.143   5.156  0.00  0.00    +0.306 C 
ATOM      3  N   LIG    1       25.190 -21.407   6.513  0.00  0.00    -0.272 N 
ATOM      4  C   LIG    1       26.027 -20.404   7.166  0.00  0.00    +0.152 C 
ATOM      5  C   LIG    1       26.642 -19.616   5.983  0.00  0.00    +0.155 C 
ATOM      6  C   LIG    1       28.132 -19.993   5.834  0.00  0.00    +0.230 C 
ATOM      7  S   LIG    1       28.462 -21.498   6.868  0.00  0.00    -0.004 S 
ATOM      8  C   LIG    1       29.911 -20.730   7.677  0.00  0.00    +0.278 C 
ATOM      9  C   LIG    1       30.349 -19.586   6.779  0.00  0.00    +0.059 C 
ATOM     10  C   LIG    1       29.070 -18.895   6.346  0.00  0.00    +0.064 C 
ATOM     11  C   LIG    1       27.165 -20.942   8.028  0.00  0.00    +0.302 C 
ATOM     12  N   LIG    1       25.832 -20.044   4.850  0.00  0.00    -0.271 N 
ENDROOT
BRANCH   3  13
ATOM     13  C   LIG    1       24.425 -22.430   7.204  0.00  0.00    +0.145 C 
BRANCH  13  14
ATOM     14  C   LIG    1       24.709 -23.841   6.741  0.00  0.00    -0.030 A 
ATOM     15  C   LIG    1       26.008 -24.370   6.786  0.00  0.00    +0.005 A 
ATOM     16  C   LIG    1       26.252 -25.692   6.400  0.00  0.00    +0.000 A 
ATOM     17  C   LIG    1       25.202 -26.500   5.970  0.00  0.00    +0.000 A 
ATOM     18  C   LIG    1       23.906 -25.991   5.931  0.00  0.00    +0.000 A 
ATOM     19  C   LIG    1       23.660 -24.672   6.318  0.00  0.00    +0.005 A 
ENDBRANCH  13  14
ENDBRANCH   3  13
BRANCH  12  20
ATOM     20  C   LIG    1       25.912 -19.458   3.526  0.00  0.00    +0.145 C 
BRANCH  20  21
ATOM     21  C   LIG    1       25.788 -17.953   3.533  0.00  0.00    -0.030 A 
ATOM     22  C   LIG    1       24.534 -17.340   3.673  0.00  0.00    +0.005 A 
ATOM     23  C   LIG    1       24.427 -15.949   3.739  0.00  0.00    +0.000 A 
ATOM     24  C   LIG    1       25.570 -15.156   3.667  0.00  0.00    +0.000 A 
ATOM     25  C   LIG    1       26.822 -15.752   3.523  0.00  0.00    +0.000 A 
ATOM     26  C   LIG    1       26.931 -17.142   3.454  0.00  0.00    +0.005 A 
ENDBRANCH  20  21
ENDBRANCH  12  20
TORSDOF 4
ENDMDL
MODEL 5
REMARK VINA RESULT:      -7.1      1.653      6.242
REMARK  Name = *****
REMARK                            x       y       z     vdW  Elec       q    Type
REMARK                         _______ _______ _______ _____ _____    ______ ____
ROOT
ATOM      1  O   LIG    1       27.302 -23.822   6.538  0.00  0.00    -0.252 OA
ATOM      2  C   LIG    1       26.200 -23.334   6.708  0.00  0.00    +0.306 C 
ATOM      3  N   LIG    1       25.894 -22.260   7.536  0.00  0.00    -0.272 N 
ATOM      4  C   LIG    1       24.454 -22.023   7.600  0.00  0.00    +0.152 C 
ATOM      5  C   LIG    1       23.889 -22.910   6.463  0.00  0.00    +0.155 C 
ATOM      6  C   LIG    1       23.448 -22.015   5.284  0.00  0.00    +0.230 C 
ATOM      7  S   LIG    1       24.129 -20.311   5.557  0.00  0.00    -0.004 S 
ATOM      8  C   LIG    1       22.502 -19.524   5.278  0.00  0.00    +0.278 C 
ATOM      9  C   LIG    1       21.658 -20.536   4.523  0.00  0.00    +0.059 C 
ATOM     10  C   LIG    1       21.926 -21.870   5.193  0.00  0.00    +0.064 C 
ATOM     11  C   LIG    1       24.003 -20.587   7.358  0.00  0.00    +0.302 C 
ATOM     12  N   LIG    1       25.016 -23.772   6.131  0.00  0.00    -0.271 N 
ENDROOT
BRANCH   3  13
ATOM     13  C   LIG    1       26.882 -21.615   8.384  0.00  0.00    +0.145 C 
BRANCH  13  14
ATOM     14  C   LIG    1       27.943 -20.845   7.632  0.00  0.00    -0.030 A 
ATOM     15  C   LIG    1       27.626 -20.119   6.473  0.00  0.00    +0.005 A 
ATOM     16  C   LIG    1       28.605 -19.371   5.812  0.00  0.00    +0.000 A 
ATOM     17  C   LIG    1       29.909 -19.336   6.302  0.00  0.00    +0.000 A 
ATOM     18  C   LIG    1       30.235 -20.043   7.457  0.00  0.00    +0.000 A 
ATOM     19  C   LIG    1       29.257 -20.789   8.121  0.00  0.00    +0.005 A 
ENDBRANCH  13  14
ENDBRANCH   3  13
BRANCH  12  20
ATOM     20  C   LIG    1       24.936 -24.900   5.223  0.00  0.00    +0.145 C 
BRANCH  20  21
ATOM     21  C   LIG    1       24.969 -26.235   5.929  0.00  0.00    -0.030 A 
ATOM     22  C   LIG    1       24.166 -27.297   5.486  0.00  0.00    +0.005 A 
ATOM     23  C   LIG    1       24.241 -28.548   6.103  0.00  0.00    +0.000 A 
ATOM     24  C   LIG    1       25.119 -28.752   7.165  0.00  0.00    +0.000 A 
ATOM     25  C   LIG    1       25.919 -27.705   7.617  0.00  0.00    +0.000 A 
ATOM     26  C   LIG    1       25.844 -26.452   7.005  0.00  0.00    +0.005 A 
ENDBRANCH  20  21
ENDBRANCH  12  20
TORSDOF 4
ENDMDL
MODEL 6
REMARK VINA RESULT:      -7.1      1.693      4.902
REMARK  Name = *****
REMARK                            x       y       z     vdW  Elec       q    Type
REMARK                         _______ _______ _______ _____ _____    ______ ____
ROOT
ATOM      1  O   LIG    1       25.980 -20.025   7.358  0.00  0.00    -0.252 OA
ATOM      2  C   LIG    1       25.651 -21.194   7.437  0.00  0.00    +0.306 C 
ATOM      3  N   LIG    1       24.369 -21.703   7.264  0.00  0.00    -0.272 N 
ATOM      4  C   LIG    1       24.313 -23.133   7.558  0.00  0.00    +0.152 C 
ATOM      5  C   LIG    1       25.804 -23.541   7.660  0.00  0.00    +0.155 C 
ATOM      6  C   LIG    1       26.201 -24.354   6.407  0.00  0.00    +0.230 C 
ATOM      7  S   LIG    1       24.857 -24.171   5.141  0.00  0.00    -0.004 S 
ATOM      8  C   LIG    1       24.741 -25.976   4.878  0.00  0.00    +0.278 C 
ATOM      9  C   LIG    1       26.041 -26.570   5.391  0.00  0.00    +0.059 C 
ATOM     10  C   LIG    1       26.331 -25.852   6.696  0.00  0.00    +0.064 C 
ATOM     11  C   LIG    1       23.647 -24.006   6.500  0.00  0.00    +0.302 C 
ATOM     12  N   LIG    1       26.489 -22.258   7.744  0.00  0.00    -0.271 N 
ENDROOT
BRANCH   3  13
ATOM     13  C   LIG    1       23.212 -20.856   7.033  0.00  0.00    +0.145 C 
BRANCH  13  14
ATOM     14  C   LIG    1       23.202 -20.166   5.688  0.00  0.00    -0.030 A 
ATOM     15  C   LIG    1       22.350 -19.080   5.437  0.00  0.00    +0.005 A 
ATOM     16  C   LIG    1       22.383 -18.419   4.205  0.00  0.00    +0.000 A 
ATOM     17  C   LIG    1       23.269 -18.832   3.213  0.00  0.00    +0.000 A 
ATOM     18  C   LIG    1       24.128 -19.902   3.452  0.00  0.00    +0.000 A 
ATOM     19  C   LIG    1       24.099 -20.563   4.683  0.00  0.00    +0.005 A 
ENDBRANCH  13  14
ENDBRANCH   3  13
BRANCH  12  20
ATOM     20  C   LIG    1       27.905 -22.110   8.020  0.00  0.00    +0.145 C 
BRANCH  20  21
ATOM     21  C   LIG    1       28.490 -20.836   7.456  0.00  0.00    -0.030 A 
ATOM     22  C   LIG    1       29.141 -19.918   8.293  0.00  0.00    +0.005 A 
ATOM     23  C   LIG    1       29.733 -18.769   7.761  0.00  0.00    +0.000 A 
ATOM     24  C   LIG    1       29.683 -18.528   6.390  0.00  0.00    +0.000 A 
ATOM     25  C   LIG    1       29.036 -19.430   5.548  0.00  0.00    +0.000 A 
ATOM     26  C   LIG    1       28.440 -20.577   6.077  0.00  0.00    +0.005 A 
ENDBRANCH  20  21
ENDBRANCH  12  20
TORSDOF 4
ENDMDL
MODEL 7
REMARK VINA RESULT:      -7.0      1.879      4.997
REMARK  Name = *****
REMARK                            x       y       z     vdW  Elec       q    Type
REMARK                         _______ _______ _______ _____ _____    ______ ____
ROOT
ATOM      1  O   LIG    1       24.794 -22.834   4.984  0.00  0.00    -0.252 OA
ATOM      2  C   LIG    1       25.428 -22.100   5.718  0.00  0.00    +0.306 C 
ATOM      3  N   LIG    1       25.854 -22.392   7.008  0.00  0.00    -0.272 N 
ATOM      4  C   LIG    1       26.475 -21.235   7.645  0.00  0.00    +0.152 C 
ATOM      5  C   LIG    1       26.658 -20.233   6.479  0.00  0.00    +0.155 C 
ATOM      6  C   LIG    1       28.153 -20.157   6.095  0.00  0.00    +0.230 C 
ATOM      7  S   LIG    1       29.039 -21.566   6.915  0.00  0.00    -0.004 S 
ATOM      8  C   LIG    1       30.330 -20.468   7.600  0.00  0.00    +0.278 C 
ATOM      9  C   LIG    1       30.293 -19.193   6.775  0.00  0.00    +0.059 C 
ATOM     10  C   LIG    1       28.822 -18.871   6.589  0.00  0.00    +0.064 C 
ATOM     11  C   LIG    1       27.837 -21.477   8.288  0.00  0.00    +0.302 C 
ATOM     12  N   LIG    1       25.830 -20.803   5.425  0.00  0.00    -0.271 N 
ENDROOT
BRANCH   3  13
ATOM     13  C   LIG    1       25.516 -23.633   7.685  0.00  0.00    +0.145 C 
BRANCH  13  14
ATOM     14  C   LIG    1       25.411 -24.833   6.773  0.00  0.00    -0.030 A 
ATOM     15  C   LIG    1       26.560 -25.504   6.325  0.00  0.00    +0.005 A 
ATOM     16  C   LIG    1       26.451 -26.642   5.520  0.00  0.00    +0.000 A 
ATOM     17  C   LIG    1       25.195 -27.125   5.157  0.00  0.00    +0.000 A 
ATOM     18  C   LIG    1       24.047 -26.476   5.604  0.00  0.00    +0.000 A 
ATOM     19  C   LIG    1       24.153 -25.340   6.410  0.00  0.00    +0.005 A 
ENDBRANCH  13  14
ENDBRANCH   3  13
BRANCH  12  20
ATOM     20  C   LIG    1       25.539 -20.138   4.170  0.00  0.00    +0.145 C 
BRANCH  20  21
ATOM     21  C   LIG    1       24.211 -19.419   4.171  0.00  0.00    -0.030 A 
ATOM     22  C   LIG    1       23.033 -20.096   4.518  0.00  0.00    +0.005 A 
ATOM     23  C   LIG    1       21.814 -19.415   4.576  0.00  0.00    +0.000 A 
ATOM     24  C   LIG    1       21.760 -18.052   4.291  0.00  0.00    +0.000 A 
ATOM     25  C   LIG    1       22.923 -17.369   3.941  0.00  0.00    +0.000 A 
ATOM     26  C   LIG    1       24.142 -18.048   3.879  0.00  0.00    +0.005 A 
ENDBRANCH  20  21
ENDBRANCH  12  20
TORSDOF 4
ENDMDL
MODEL 8
REMARK VINA RESULT:      -6.9      6.398      9.732
REMARK  Name = *****
REMARK                            x       y       z     vdW  Elec       q    Type
REMARK                         _______ _______ _______ _____ _____    ______ ____
ROOT
ATOM      1  O   LIG    1       27.106 -28.783   9.893  0.00  0.00    -0.252 OA
ATOM      2  C   LIG    1       25.980 -29.239   9.946  0.00  0.00    +0.306 C 
ATOM      3  N   LIG    1       25.195 -29.624   8.864  0.00  0.00    -0.272 N 
ATOM      4  C   LIG    1       23.849 -30.005   9.284  0.00  0.00    +0.152 C 
ATOM      5  C   LIG    1       23.962 -30.095  10.826  0.00  0.00    +0.155 C 
ATOM      6  C   LIG    1       23.942 -31.579  11.257  0.00  0.00    +0.230 C 
ATOM      7  S   LIG    1       24.183 -32.629   9.747  0.00  0.00    -0.004 S 
ATOM      8  C   LIG    1       22.737 -33.676  10.140  0.00  0.00    +0.278 C 
ATOM      9  C   LIG    1       22.455 -33.483  11.620  0.00  0.00    +0.059 C 
ATOM     10  C   LIG    1       22.603 -31.995  11.872  0.00  0.00    +0.064 C 
ATOM     11  C   LIG    1       23.340 -31.344   8.761  0.00  0.00    +0.302 C 
ATOM     12  N   LIG    1       25.235 -29.441  11.100  0.00  0.00    -0.271 N 
ENDROOT
BRANCH   3  13
ATOM     13  C   LIG    1       25.619 -29.451   7.485  0.00  0.00    +0.145 C 
BRANCH  13  14
ATOM     14  C   LIG    1       25.343 -28.078   6.915  0.00  0.00    -0.030 A 
ATOM     15  C   LIG    1       26.124 -26.972   7.281  0.00  0.00    +0.005 A 
ATOM     16  C   LIG    1       25.891 -25.716   6.712  0.00  0.00    +0.000 A 
ATOM     17  C   LIG    1       24.879 -25.553   5.769  0.00  0.00    +0.000 A 
ATOM     18  C   LIG    1       24.102 -26.645   5.389  0.00  0.00    +0.000 A 
ATOM     19  C   LIG    1       24.335 -27.901   5.955  0.00  0.00    +0.005 A 
ENDBRANCH  13  14
ENDBRANCH   3  13
BRANCH  12  20
ATOM     20  C   LIG    1       25.717 -29.126  12.431  0.00  0.00    +0.145 C 
BRANCH  20  21
ATOM     21  C   LIG    1       25.426 -27.704  12.848  0.00  0.00    -0.030 A 
ATOM     22  C   LIG    1       24.156 -27.345  13.321  0.00  0.00    +0.005 A 
ATOM     23  C   LIG    1       23.905 -26.043  13.762  0.00  0.00    +0.000 A 
ATOM     24  C   LIG    1       24.920 -25.089  13.737  0.00  0.00    +0.000 A 
ATOM     25  C   LIG    1       26.185 -25.432  13.265  0.00  0.00    +0.000 A 
ATOM     26  C   LIG    1       26.438 -26.731  12.821  0.00  0.00    +0.005 A 
ENDBRANCH  20  21
ENDBRANCH  12  20
TORSDOF 4
ENDMDL
MODEL 9
REMARK VINA RESULT:      -6.9      1.782      6.302
REMARK  Name = *****
REMARK                            x       y       z     vdW  Elec       q    Type
REMARK                         _______ _______ _______ _____ _____    ______ ____
ROOT
ATOM      1  O   LIG    1       24.774 -20.741   8.067  0.00  0.00    -0.252 OA
ATOM      2  C   LIG    1       25.104 -21.665   7.348  0.00  0.00    +0.306 C 
ATOM      3  N   LIG    1       26.318 -22.341   7.380  0.00  0.00    -0.272 N 
ATOM      4  C   LIG    1       26.425 -23.308   6.290  0.00  0.00    +0.152 C 
ATOM      5  C   LIG    1       24.987 -23.373   5.720  0.00  0.00    +0.155 C 
ATOM      6  C   LIG    1       24.331 -24.710   6.132  0.00  0.00    +0.230 C 
ATOM      7  S   LIG    1       25.380 -25.496   7.445  0.00  0.00    -0.004 S 
ATOM      8  C   LIG    1       25.427 -27.099   6.568  0.00  0.00    +0.278 C 
ATOM      9  C   LIG    1       24.259 -27.093   5.596  0.00  0.00    +0.059 C 
ATOM     10  C   LIG    1       24.255 -25.709   4.974  0.00  0.00    +0.064 C 
ATOM     11  C   LIG    1       26.849 -24.718   6.687  0.00  0.00    +0.302 C 
ATOM     12  N   LIG    1       24.343 -22.215   6.324  0.00  0.00    -0.271 N 
ENDROOT
BRANCH   3  13
ATOM     13  C   LIG    1       27.406 -21.960   8.264  0.00  0.00    +0.145 C 
BRANCH  13  14
ATOM     14  C   LIG    1       28.421 -21.030   7.639  0.00  0.00    -0.030 A 
ATOM     15  C   LIG    1       28.058 -20.149   6.610  0.00  0.00    +0.005 A 
ATOM     16  C   LIG    1       28.992 -19.258   6.071  0.00  0.00    +0.000 A 
ATOM     17  C   LIG    1       30.297 -19.235   6.558  0.00  0.00    +0.000 A 
ATOM     18  C   LIG    1       30.669 -20.097   7.588  0.00  0.00    +0.000 A 
ATOM     19  C   LIG    1       29.736 -20.985   8.129  0.00  0.00    +0.005 A 
ENDBRANCH  13  14
ENDBRANCH   3  13
BRANCH  12  20
ATOM     20  C   LIG    1       23.017 -21.745   5.971  0.00  0.00    +0.145 C 
BRANCH  20  21
ATOM     21  C   LIG    1       23.036 -20.499   5.117  0.00  0.00    -0.030 A 
ATOM     22  C   LIG    1       22.067 -19.499   5.292  0.00  0.00    +0.005 A 
ATOM     23  C   LIG    1       22.120 -18.321   4.543  0.00  0.00    +0.000 A 
ATOM     24  C   LIG    1       23.141 -18.128   3.615  0.00  0.00    +0.000 A 
ATOM     25  C   LIG    1       24.107 -19.115   3.428  0.00  0.00    +0.000 A 
ATOM     26  C   LIG    1       24.055 -20.295   4.173  0.00  0.00    +0.005 A 
ENDBRANCH  20  21
ENDBRANCH  12  20
TORSDOF 4
ENDMDL
