MODEL 1
REMARK VINA RESULT:      -5.7      0.000      0.000
REMARK  Name = *****
REMARK                            x       y       z     vdW  Elec       q    Type
REMARK                         _______ _______ _______ _____ _____    ______ ____
ROOT
ATOM      1  C   LIG    1       25.656 -20.567   5.927  0.00  0.00    +0.100 A 
ATOM      2  C   LIG    1       25.034 -20.323   4.693  0.00  0.00    +0.131 A 
ATOM      3  C   LIG    1       23.641 -20.270   4.593  0.00  0.00    +0.046 A 
ATOM      4  C   LIG    1       22.855 -20.463   5.731  0.00  0.00    +0.004 A 
ATOM      5  C   LIG    1       23.459 -20.706   6.963  0.00  0.00    +0.001 A 
ATOM      6  C   LIG    1       24.851 -20.758   7.061  0.00  0.00    +0.019 A 
ENDROOT
BRANCH   1   8
ATOM      7  O   LIG    1       27.646 -21.265   7.039  0.00  0.00    -0.245 OA
ATOM      8  C   LIG    1       27.135 -20.640   6.122  0.00  0.00    +0.340 C 
BRANCH   8   9
ATOM      9  O   LIG    1       27.871 -19.967   5.213  0.00  0.00    -0.477 OA
ATOM     10  H   LIG    1       28.835 -20.031   5.395  0.00  0.00    +0.295 HD
ENDBRANCH   8   9
ENDBRANCH   1   8
BRANCH   2  11
ATOM     11  O   LIG    1       25.792 -20.132   3.566  0.00  0.00    -0.506 OA
ATOM     12  H   LIG    1       26.552 -19.563   3.797  0.00  0.00    +0.292 HD
ENDBRANCH   2  11
TORSDOF 3
ENDMDL
MODEL 2
REMARK VINA RESULT:      -5.3      1.560      2.331
REMARK  Name = *****
REMARK                            x       y       z     vdW  Elec       q    Type
REMARK                         _______ _______ _______ _____ _____    ______ ____
ROOT
ATOM      1  C   LIG    1       25.004 -20.192   5.223  0.00  0.00    +0.100 A 
ATOM      2  C   LIG    1       23.833 -20.513   5.926  0.00  0.00    +0.131 A 
ATOM      3  C   LIG    1       22.587 -20.058   5.485  0.00  0.00    +0.046 A 
ATOM      4  C   LIG    1       22.503 -19.275   4.332  0.00  0.00    +0.004 A 
ATOM      5  C   LIG    1       23.657 -18.948   3.623  0.00  0.00    +0.001 A 
ATOM      6  C   LIG    1       24.901 -19.404   4.066  0.00  0.00    +0.019 A 
ENDROOT
BRANCH   1   8
ATOM      7  O   LIG    1       26.565 -21.426   6.536  0.00  0.00    -0.245 OA
ATOM      8  C   LIG    1       26.373 -20.636   5.625  0.00  0.00    +0.340 C 
BRANCH   8   9
ATOM      9  O   LIG    1       27.386 -20.102   4.911  0.00  0.00    -0.477 OA
ATOM     10  H   LIG    1       27.945 -19.501   5.453  0.00  0.00    +0.295 HD
ENDBRANCH   8   9
ENDBRANCH   1   8
BRANCH   2  11
ATOM     11  O   LIG    1       23.900 -21.282   7.061  0.00  0.00    -0.506 OA
ATOM     12  H   LIG    1       23.029 -21.701   7.202  0.00  0.00    +0.292 HD
ENDBRANCH   2  11
TORSDOF 3
ENDMDL
MODEL 3
REMARK VINA RESULT:      -5.2      7.161      7.623
REMARK  Name = *****
REMARK                            x       y       z     vdW  Elec       q    Type
REMARK                         _______ _______ _______ _____ _____    ______ ____
ROOT
ATOM      1  C   LIG    1       25.982 -13.401   3.942  0.00  0.00    +0.100 A 
ATOM      2  C   LIG    1       25.923 -13.465   2.542  0.00  0.00    +0.131 A 
ATOM      3  C   LIG    1       24.868 -12.871   1.843  0.00  0.00    +0.046 A 
ATOM      4  C   LIG    1       23.859 -12.207   2.543  0.00  0.00    +0.004 A 
ATOM      5  C   LIG    1       23.904 -12.135   3.934  0.00  0.00    +0.001 A 
ATOM      6  C   LIG    1       24.960 -12.729   4.629  0.00  0.00    +0.019 A 
ENDROOT
BRANCH   1   8
ATOM      7  O   LIG    1       27.809 -14.881   4.335  0.00  0.00    -0.245 OA
ATOM      8  C   LIG    1       27.072 -14.008   4.765  0.00  0.00    +0.340 C 
BRANCH   8   9
ATOM      9  O   LIG    1       27.186 -13.523   6.019  0.00  0.00    -0.477 OA
ATOM     10  H   LIG    1       28.084 -13.668   6.392  0.00  0.00    +0.295 HD
ENDBRANCH   8   9
ENDBRANCH   1   8
BRANCH   2  11
ATOM     11  O   LIG    1       26.907 -14.115   1.840  0.00  0.00    -0.506 OA
ATOM     12  H   LIG    1       26.629 -15.041   1.703  0.00  0.00    +0.292 HD
ENDBRANCH   2  11
TORSDOF 3
ENDMDL
MODEL 4
REMARK VINA RESULT:      -5.1      7.078      7.735
REMARK  Name = *****
REMARK                            x       y       z     vdW  Elec       q    Type
REMARK                         _______ _______ _______ _____ _____    ______ ____
ROOT
ATOM      1  C   LIG    1       26.530 -13.545   3.607  0.00  0.00    +0.100 A 
ATOM      2  C   LIG    1       25.707 -13.211   4.692  0.00  0.00    +0.131 A 
ATOM      3  C   LIG    1       24.410 -12.734   4.486  0.00  0.00    +0.046 A 
ATOM      4  C   LIG    1       23.924 -12.586   3.186  0.00  0.00    +0.004 A 
ATOM      5  C   LIG    1       24.729 -12.914   2.097  0.00  0.00    +0.001 A 
ATOM      6  C   LIG    1       26.025 -13.390   2.306  0.00  0.00    +0.019 A 
ENDROOT
BRANCH   1   8
ATOM      7  O   LIG    1       28.906 -13.353   3.554  0.00  0.00    -0.245 OA
ATOM      8  C   LIG    1       27.926 -14.060   3.738  0.00  0.00    +0.340 C 
BRANCH   8   9
ATOM      9  O   LIG    1       28.032 -15.362   4.076  0.00  0.00    -0.477 OA
ATOM     10  H   LIG    1       27.154 -15.797   4.152  0.00  0.00    +0.295 HD
ENDBRANCH   8   9
ENDBRANCH   1   8
BRANCH   2  11
ATOM     11  O   LIG    1       26.171 -13.350   5.977  0.00  0.00    -0.506 OA
ATOM     12  H   LIG    1       25.921 -12.554   6.484  0.00  0.00    +0.292 HD
ENDBRANCH   2  11
TORSDOF 3
ENDMDL
MODEL 5
REMARK VINA RESULT:      -5.1      7.281      7.935
REMARK  Name = *****
REMARK                            x       y       z     vdW  Elec       q    Type
REMARK                         _______ _______ _______ _____ _____    ______ ____
ROOT
ATOM      1  C   LIG    1       27.164 -13.187   3.881  0.00  0.00    +0.100 A 
ATOM      2  C   LIG    1       26.262 -13.392   4.935  0.00  0.00    +0.131 A 
ATOM      3  C   LIG    1       24.915 -13.668   4.681  0.00  0.00    +0.046 A 
ATOM      4  C   LIG    1       24.459 -13.741   3.363  0.00  0.00    +0.004 A 
ATOM      5  C   LIG    1       25.343 -13.540   2.305  0.00  0.00    +0.001 A 
ATOM      6  C   LIG    1       26.688 -13.264   2.563  0.00  0.00    +0.019 A 
ENDROOT
BRANCH   1   8
ATOM      7  O   LIG    1       29.475 -13.321   3.312  0.00  0.00    -0.245 OA
ATOM      8  C   LIG    1       28.616 -12.887   4.064  0.00  0.00    +0.340 C 
BRANCH   8   9
ATOM      9  O   LIG    1       28.914 -12.101   5.119  0.00  0.00    -0.477 OA
ATOM     10  H   LIG    1       28.263 -11.374   5.236  0.00  0.00    +0.295 HD
ENDBRANCH   8   9
ENDBRANCH   1   8
BRANCH   2  11
ATOM     11  O   LIG    1       26.695 -13.323   6.236  0.00  0.00    -0.506 OA
ATOM     12  H   LIG    1       27.210 -12.501   6.347  0.00  0.00    +0.292 HD
ENDBRANCH   2  11
TORSDOF 3
ENDMDL
MODEL 6
REMARK VINA RESULT:      -5.0      2.144      3.711
REMARK  Name = *****
REMARK                            x       y       z     vdW  Elec       q    Type
REMARK                         _______ _______ _______ _____ _____    ______ ____
ROOT
ATOM      1  C   LIG    1       23.864 -20.338   5.308  0.00  0.00    +0.100 A 
ATOM      2  C   LIG    1       24.944 -19.948   4.502  0.00  0.00    +0.131 A 
ATOM      3  C   LIG    1       26.258 -20.059   4.965  0.00  0.00    +0.046 A 
ATOM      4  C   LIG    1       26.503 -20.563   6.243  0.00  0.00    +0.004 A 
ATOM      5  C   LIG    1       25.440 -20.954   7.055  0.00  0.00    +0.001 A 
ATOM      6  C   LIG    1       24.128 -20.842   6.590  0.00  0.00    +0.019 A 
ENDROOT
BRANCH   1   8
ATOM      7  O   LIG    1       21.914 -19.205   4.533  0.00  0.00    -0.245 OA
ATOM      8  C   LIG    1       22.431 -20.252   4.892  0.00  0.00    +0.340 C 
BRANCH   8   9
ATOM      9  O   LIG    1       21.746 -21.413   4.939  0.00  0.00    -0.477 OA
ATOM     10  H   LIG    1       21.020 -21.442   4.277  0.00  0.00    +0.295 HD
ENDBRANCH   8   9
ENDBRANCH   1   8
BRANCH   2  11
ATOM     11  O   LIG    1       24.719 -19.450   3.243  0.00  0.00    -0.506 OA
ATOM     12  H   LIG    1       24.846 -20.173   2.598  0.00  0.00    +0.292 HD
ENDBRANCH   2  11
TORSDOF 3
ENDMDL
MODEL 7
REMARK VINA RESULT:      -5.0      6.029      6.621
REMARK  Name = *****
REMARK                            x       y       z     vdW  Elec       q    Type
REMARK                         _______ _______ _______ _____ _____    ______ ____
ROOT
ATOM      1  C   LIG    1       25.784 -14.959   3.392  0.00  0.00    +0.100 A 
ATOM      2  C   LIG    1       26.151 -13.885   2.568  0.00  0.00    +0.131 A 
ATOM      3  C   LIG    1       25.364 -12.732   2.504  0.00  0.00    +0.046 A 
ATOM      4  C   LIG    1       24.199 -12.644   3.268  0.00  0.00    +0.004 A 
ATOM      5  C   LIG    1       23.821 -13.703   4.091  0.00  0.00    +0.001 A 
ATOM      6  C   LIG    1       24.610 -14.854   4.153  0.00  0.00    +0.019 A 
ENDROOT
BRANCH   1   8
ATOM      7  O   LIG    1       26.108 -17.314   3.205  0.00  0.00    -0.245 OA
ATOM      8  C   LIG    1       26.566 -16.226   3.519  0.00  0.00    +0.340 C 
BRANCH   8   9
ATOM      9  O   LIG    1       27.817 -16.086   4.004  0.00  0.00    -0.477 OA
ATOM     10  H   LIG    1       28.348 -16.908   3.904  0.00  0.00    +0.295 HD
ENDBRANCH   8   9
ENDBRANCH   1   8
BRANCH   2  11
ATOM     11  O   LIG    1       27.294 -13.956   1.812  0.00  0.00    -0.506 OA
ATOM     12  H   LIG    1       27.078 -14.393   0.965  0.00  0.00    +0.292 HD
ENDBRANCH   2  11
TORSDOF 3
ENDMDL
MODEL 8
REMARK VINA RESULT:      -4.9      7.015      7.450
REMARK  Name = *****
REMARK                            x       y       z     vdW  Elec       q    Type
REMARK                         _______ _______ _______ _____ _____    ______ ____
ROOT
ATOM      1  C   LIG    1       27.133 -13.385   4.110  0.00  0.00    +0.100 A 
ATOM      2  C   LIG    1       26.615 -13.967   2.944  0.00  0.00    +0.131 A 
ATOM      3  C   LIG    1       25.283 -14.386   2.885  0.00  0.00    +0.046 A 
ATOM      4  C   LIG    1       24.455 -14.225   3.998  0.00  0.00    +0.004 A 
ATOM      5  C   LIG    1       24.956 -13.649   5.163  0.00  0.00    +0.001 A 
ATOM      6  C   LIG    1       26.287 -13.231   5.219  0.00  0.00    +0.019 A 
ENDROOT
BRANCH   1   8
ATOM      7  O   LIG    1       29.424 -13.220   3.471  0.00  0.00    -0.245 OA
ATOM      8  C   LIG    1       28.542 -12.911   4.258  0.00  0.00    +0.340 C 
BRANCH   8   9
ATOM      9  O   LIG    1       28.776 -12.117   5.322  0.00  0.00    -0.477 OA
ATOM     10  H   LIG    1       28.411 -12.494   6.154  0.00  0.00    +0.295 HD
ENDBRANCH   8   9
ENDBRANCH   1   8
BRANCH   2  11
ATOM     11  O   LIG    1       27.416 -14.132   1.842  0.00  0.00    -0.506 OA
ATOM     12  H   LIG    1       27.724 -15.059   1.820  0.00  0.00    +0.292 HD
ENDBRANCH   2  11
TORSDOF 3
ENDMDL
MODEL 9
REMARK VINA RESULT:      -4.9      6.989      7.771
REMARK  Name = *****
REMARK                            x       y       z     vdW  Elec       q    Type
REMARK                         _______ _______ _______ _____ _____    ______ ____
ROOT
ATOM      1  C   LIG    1       25.606 -13.781   3.992  0.00  0.00    +0.100 A 
ATOM      2  C   LIG    1       26.660 -13.957   3.083  0.00  0.00    +0.131 A 
ATOM      3  C   LIG    1       27.978 -13.678   3.455  0.00  0.00    +0.046 A 
ATOM      4  C   LIG    1       28.253 -13.219   4.744  0.00  0.00    +0.004 A 
ATOM      5  C   LIG    1       27.216 -13.039   5.658  0.00  0.00    +0.001 A 
ATOM      6  C   LIG    1       25.900 -13.319   5.284  0.00  0.00    +0.019 A 
ENDROOT
BRANCH   1   8
ATOM      7  O   LIG    1       23.492 -14.829   4.333  0.00  0.00    -0.245 OA
ATOM      8  C   LIG    1       24.171 -14.054   3.677  0.00  0.00    +0.340 C 
BRANCH   8   9
ATOM      9  O   LIG    1       23.675 -13.385   2.616  0.00  0.00    -0.477 OA
ATOM     10  H   LIG    1       23.586 -13.959   1.823  0.00  0.00    +0.295 HD
ENDBRANCH   8   9
ENDBRANCH   1   8
BRANCH   2  11
ATOM     11  O   LIG    1       26.405 -14.408   1.812  0.00  0.00    -0.506 OA
ATOM     12  H   LIG    1       27.217 -14.824   1.463  0.00  0.00    +0.292 HD
ENDBRANCH   2  11
TORSDOF 3
ENDMDL
