MODEL 1
REMARK VINA RESULT:      -8.8      0.000      0.000
REMARK  Name = *****
REMARK                            x       y       z     vdW  Elec       q    Type
REMARK                         _______ _______ _______ _____ _____    ______ ____
ROOT
ATOM      1  C   LIG    1       26.017 -21.555   6.392  0.00  0.00    +0.037 A 
ATOM      2  C   LIG    1       27.177 -21.522   7.179  0.00  0.00    +0.033 A 
ATOM      3  C   LIG    1       28.206 -20.609   6.908  0.00  0.00    +0.002 A 
ATOM      4  C   LIG    1       28.069 -19.732   5.825  0.00  0.00    +0.010 A 
ATOM      5  C   LIG    1       26.920 -19.768   5.030  0.00  0.00    +0.002 A 
ATOM      6  C   LIG    1       25.900 -20.679   5.309  0.00  0.00    +0.023 A 
ENDROOT
BRANCH   3   7
ATOM      7  C   LIG    1       29.395 -20.545   7.776  0.00  0.00    +0.076 A 
ATOM      8  N   LIG    1       29.869 -19.329   8.304  0.00  0.00    -0.213 N 
ATOM      9  C   LIG    1       31.002 -19.308   9.138  0.00  0.00    +0.174 A 
ATOM     10  C   LIG    1       31.195 -17.988   9.484  0.00  0.00    +0.116 A 
ATOM     11  C   LIG    1       30.173 -17.283   8.837  0.00  0.00    +0.156 A 
ATOM     12  N   LIG    1       31.686 -20.447   9.466  0.00  0.00    -0.235 NA
ATOM     13  C   LIG    1       31.230 -21.551   8.958  0.00  0.00    +0.115 A 
ATOM     14  N   LIG    1       29.369 -18.073   8.125  0.00  0.00    -0.172 NA
ATOM     15  C   LIG    1       30.046 -21.686   8.070  0.00  0.00    +0.048 A 
BRANCH  10  16
ATOM     16  C   LIG    1       32.217 -17.468  10.319  0.00  0.00    +0.104 C 
ATOM     17  N   LIG    1       33.025 -17.022  11.032  0.00  0.00    -0.191 NA
ENDBRANCH  10  16
ENDBRANCH   3   7
BRANCH   1  18
ATOM     18  N   LIG    1       24.998 -22.499   6.690  0.00  0.00    -0.272 N 
ATOM     19  C   LIG    1       23.672 -22.168   6.972  0.00  0.00    +0.217 C 
ATOM     20  O   LIG    1       22.814 -23.018   7.225  0.00  0.00    -0.276 OA
ATOM     21  C   LIG    1       23.296 -20.706   7.032  0.00  0.00    +0.110 C 
BRANCH  18  23
ATOM     22  C   LIG    1       25.149 -24.610   5.366  0.00  0.00    +0.025 C 
ATOM     23  C   LIG    1       25.379 -23.918   6.702  0.00  0.00    +0.110 C 
ENDBRANCH  18  23
ENDBRANCH   1  18
TORSDOF 4
ENDMDL
MODEL 2
REMARK VINA RESULT:      -8.1      1.820      3.038
REMARK  Name = *****
REMARK                            x       y       z     vdW  Elec       q    Type
REMARK                         _______ _______ _______ _____ _____    ______ ____
ROOT
ATOM      1  C   LIG    1       24.624 -21.899   5.026  0.00  0.00    +0.037 A 
ATOM      2  C   LIG    1       25.871 -21.413   5.445  0.00  0.00    +0.033 A 
ATOM      3  C   LIG    1       26.350 -20.175   4.997  0.00  0.00    +0.002 A 
ATOM      4  C   LIG    1       25.571 -19.426   4.108  0.00  0.00    +0.010 A 
ATOM      5  C   LIG    1       24.332 -19.909   3.676  0.00  0.00    +0.002 A 
ATOM      6  C   LIG    1       23.862 -21.143   4.130  0.00  0.00    +0.023 A 
ENDROOT
BRANCH   3   7
ATOM      7  C   LIG    1       27.636 -19.650   5.489  0.00  0.00    +0.076 A 
ATOM      8  N   LIG    1       28.343 -20.268   6.539  0.00  0.00    -0.213 N 
ATOM      9  C   LIG    1       29.574 -19.743   6.974  0.00  0.00    +0.174 A 
ATOM     10  C   LIG    1       29.999 -20.568   7.993  0.00  0.00    +0.116 A 
ATOM     11  C   LIG    1       29.002 -21.542   8.121  0.00  0.00    +0.156 A 
ATOM     12  N   LIG    1       30.130 -18.627   6.411  0.00  0.00    -0.235 NA
ATOM     13  C   LIG    1       29.453 -18.076   5.451  0.00  0.00    +0.115 A 
ATOM     14  N   LIG    1       28.000 -21.376   7.256  0.00  0.00    -0.172 NA
ATOM     15  C   LIG    1       28.148 -18.545   4.914  0.00  0.00    +0.048 A 
BRANCH  10  16
ATOM     16  C   LIG    1       31.196 -20.445   8.743  0.00  0.00    +0.104 C 
ATOM     17  N   LIG    1       32.198 -20.319   9.327  0.00  0.00    -0.191 NA
ENDBRANCH  10  16
ENDBRANCH   3   7
BRANCH   1  18
ATOM     18  N   LIG    1       24.174 -23.163   5.494  0.00  0.00    -0.272 N 
ATOM     19  C   LIG    1       23.279 -23.341   6.550  0.00  0.00    +0.217 C 
ATOM     20  O   LIG    1       22.910 -24.457   6.926  0.00  0.00    -0.276 OA
ATOM     21  C   LIG    1       22.801 -22.119   7.298  0.00  0.00    +0.110 C 
BRANCH  18  23
ATOM     22  C   LIG    1       25.668 -25.156   5.666  0.00  0.00    +0.025 C 
ATOM     23  C   LIG    1       24.694 -24.356   4.812  0.00  0.00    +0.110 C 
ENDBRANCH  18  23
ENDBRANCH   1  18
TORSDOF 4
ENDMDL
MODEL 3
REMARK VINA RESULT:      -7.9      2.906      7.291
REMARK  Name = *****
REMARK                            x       y       z     vdW  Elec       q    Type
REMARK                         _______ _______ _______ _____ _____    ______ ____
ROOT
ATOM      1  C   LIG    1       30.165 -19.423   7.758  0.00  0.00    +0.037 A 
ATOM      2  C   LIG    1       28.852 -19.865   7.974  0.00  0.00    +0.033 A 
ATOM      3  C   LIG    1       27.936 -19.949   6.917  0.00  0.00    +0.002 A 
ATOM      4  C   LIG    1       28.344 -19.572   5.632  0.00  0.00    +0.010 A 
ATOM      5  C   LIG    1       29.648 -19.119   5.411  0.00  0.00    +0.002 A 
ATOM      6  C   LIG    1       30.554 -19.042   6.470  0.00  0.00    +0.023 A 
ENDROOT
BRANCH   3   7
ATOM      7  C   LIG    1       26.576 -20.468   7.146  0.00  0.00    +0.076 A 
ATOM      8  N   LIG    1       25.586 -20.435   6.145  0.00  0.00    -0.213 N 
ATOM      9  C   LIG    1       24.300 -20.950   6.398  0.00  0.00    +0.174 A 
ATOM     10  C   LIG    1       23.586 -20.774   5.233  0.00  0.00    +0.116 A 
ATOM     11  C   LIG    1       24.473 -20.158   4.343  0.00  0.00    +0.156 A 
ATOM     12  N   LIG    1       23.958 -21.494   7.607  0.00  0.00    -0.235 NA
ATOM     13  C   LIG    1       24.890 -21.504   8.510  0.00  0.00    +0.115 A 
ATOM     14  N   LIG    1       25.678 -19.948   4.875  0.00  0.00    -0.172 NA
ATOM     15  C   LIG    1       26.275 -20.989   8.350  0.00  0.00    +0.048 A 
BRANCH  10  16
ATOM     16  C   LIG    1       22.236 -21.143   5.000  0.00  0.00    +0.104 C 
ATOM     17  N   LIG    1       21.136 -21.450   4.764  0.00  0.00    -0.191 NA
ENDBRANCH  10  16
ENDBRANCH   3   7
BRANCH   1  18
ATOM     18  N   LIG    1       31.065 -19.343   8.854  0.00  0.00    -0.272 N 
ATOM     19  C   LIG    1       31.205 -18.227   9.681  0.00  0.00    +0.217 C 
ATOM     20  O   LIG    1       31.998 -18.197  10.626  0.00  0.00    -0.276 OA
ATOM     21  C   LIG    1       30.400 -16.990   9.359  0.00  0.00    +0.110 C 
BRANCH  18  23
ATOM     22  C   LIG    1       31.115 -21.825   9.125  0.00  0.00    +0.025 C 
ATOM     23  C   LIG    1       31.900 -20.520   9.125  0.00  0.00    +0.110 C 
ENDBRANCH  18  23
ENDBRANCH   1  18
TORSDOF 4
ENDMDL
MODEL 4
REMARK VINA RESULT:      -7.3      1.716      2.619
REMARK  Name = *****
REMARK                            x       y       z     vdW  Elec       q    Type
REMARK                         _______ _______ _______ _____ _____    ______ ____
ROOT
ATOM      1  C   LIG    1       25.623 -21.935   6.761  0.00  0.00    +0.037 A 
ATOM      2  C   LIG    1       26.825 -21.244   6.544  0.00  0.00    +0.033 A 
ATOM      3  C   LIG    1       27.388 -20.444   7.547  0.00  0.00    +0.002 A 
ATOM      4  C   LIG    1       26.727 -20.330   8.776  0.00  0.00    +0.010 A 
ATOM      5  C   LIG    1       25.524 -21.006   8.996  0.00  0.00    +0.002 A 
ATOM      6  C   LIG    1       24.971 -21.802   7.991  0.00  0.00    +0.023 A 
ENDROOT
BRANCH   3   7
ATOM      7  C   LIG    1       28.678 -19.768   7.327  0.00  0.00    +0.076 A 
ATOM      8  N   LIG    1       29.316 -19.028   8.341  0.00  0.00    -0.213 N 
ATOM      9  C   LIG    1       30.554 -18.404   8.097  0.00  0.00    +0.174 A 
ATOM     10  C   LIG    1       30.901 -17.777   9.274  0.00  0.00    +0.116 A 
ATOM     11  C   LIG    1       29.855 -18.049  10.162  0.00  0.00    +0.156 A 
ATOM     12  N   LIG    1       31.183 -18.485   6.884  0.00  0.00    -0.235 NA
ATOM     13  C   LIG    1       30.568 -19.169   5.969  0.00  0.00    +0.115 A 
ATOM     14  N   LIG    1       28.895 -18.799   9.618  0.00  0.00    -0.172 NA
ATOM     15  C   LIG    1       29.263 -19.865   6.119  0.00  0.00    +0.048 A 
BRANCH  10  16
ATOM     16  C   LIG    1       32.075 -17.019   9.518  0.00  0.00    +0.104 C 
ATOM     17  N   LIG    1       33.025 -16.365   9.691  0.00  0.00    -0.191 NA
ENDBRANCH  10  16
ENDBRANCH   3   7
BRANCH   1  18
ATOM     18  N   LIG    1       25.077 -22.730   5.719  0.00  0.00    -0.272 N 
ATOM     19  C   LIG    1       25.141 -24.123   5.670  0.00  0.00    +0.217 C 
ATOM     20  O   LIG    1       24.651 -24.779   4.747  0.00  0.00    -0.276 OA
ATOM     21  C   LIG    1       25.898 -24.844   6.761  0.00  0.00    +0.110 C 
BRANCH  18  23
ATOM     22  C   LIG    1       23.335 -21.052   5.100  0.00  0.00    +0.025 C 
ATOM     23  C   LIG    1       24.402 -22.026   4.620  0.00  0.00    +0.110 C 
ENDBRANCH  18  23
ENDBRANCH   1  18
TORSDOF 4
ENDMDL
MODEL 5
REMARK VINA RESULT:      -7.2      2.649      7.150
REMARK  Name = *****
REMARK                            x       y       z     vdW  Elec       q    Type
REMARK                         _______ _______ _______ _____ _____    ______ ____
ROOT
ATOM      1  C   LIG    1       29.771 -19.276   7.779  0.00  0.00    +0.037 A 
ATOM      2  C   LIG    1       28.543 -19.842   7.405  0.00  0.00    +0.033 A 
ATOM      3  C   LIG    1       28.046 -19.690   6.104  0.00  0.00    +0.002 A 
ATOM      4  C   LIG    1       28.787 -18.949   5.175  0.00  0.00    +0.010 A 
ATOM      5  C   LIG    1       30.005 -18.372   5.544  0.00  0.00    +0.002 A 
ATOM      6  C   LIG    1       30.494 -18.531   6.842  0.00  0.00    +0.023 A 
ENDROOT
BRANCH   3   7
ATOM      7  C   LIG    1       26.782 -20.336   5.707  0.00  0.00    +0.076 A 
ATOM      8  N   LIG    1       26.330 -21.524   6.313  0.00  0.00    -0.213 N 
ATOM      9  C   LIG    1       25.112 -22.107   5.915  0.00  0.00    +0.174 A 
ATOM     10  C   LIG    1       24.959 -23.235   6.692  0.00  0.00    +0.116 A 
ATOM     11  C   LIG    1       26.093 -23.276   7.512  0.00  0.00    +0.156 A 
ATOM     12  N   LIG    1       24.328 -21.559   4.936  0.00  0.00    -0.235 NA
ATOM     13  C   LIG    1       24.775 -20.469   4.393  0.00  0.00    +0.115 A 
ATOM     14  N   LIG    1       26.925 -22.257   7.297  0.00  0.00    -0.172 NA
ATOM     15  C   LIG    1       26.042 -19.771   4.736  0.00  0.00    +0.048 A 
BRANCH  10  16
ATOM     16  C   LIG    1       23.877 -24.151   6.657  0.00  0.00    +0.104 C 
ATOM     17  N   LIG    1       22.983 -24.897   6.584  0.00  0.00    -0.191 NA
ENDBRANCH  10  16
ENDBRANCH   3   7
BRANCH   1  18
ATOM     18  N   LIG    1       30.241 -19.443   9.109  0.00  0.00    -0.272 N 
ATOM     19  C   LIG    1       30.469 -18.397  10.004  0.00  0.00    +0.217 C 
ATOM     20  O   LIG    1       30.876 -18.584  11.154  0.00  0.00    -0.276 OA
ATOM     21  C   LIG    1       30.270 -16.981   9.517  0.00  0.00    +0.110 C 
BRANCH  18  23
ATOM     22  C   LIG    1       31.619 -21.499   8.784  0.00  0.00    +0.025 C 
ATOM     23  C   LIG    1       30.502 -20.816   9.561  0.00  0.00    +0.110 C 
ENDBRANCH  18  23
ENDBRANCH   1  18
TORSDOF 4
ENDMDL
MODEL 6
REMARK VINA RESULT:      -7.0      1.848      2.627
REMARK  Name = *****
REMARK                            x       y       z     vdW  Elec       q    Type
REMARK                         _______ _______ _______ _____ _____    ______ ____
ROOT
ATOM      1  C   LIG    1       25.943 -20.726   6.382  0.00  0.00    +0.037 A 
ATOM      2  C   LIG    1       27.164 -20.041   6.474  0.00  0.00    +0.033 A 
ATOM      3  C   LIG    1       28.094 -20.357   7.473  0.00  0.00    +0.002 A 
ATOM      4  C   LIG    1       27.785 -21.363   8.396  0.00  0.00    +0.010 A 
ATOM      5  C   LIG    1       26.566 -22.042   8.318  0.00  0.00    +0.002 A 
ATOM      6  C   LIG    1       25.646 -21.722   7.317  0.00  0.00    +0.023 A 
ENDROOT
BRANCH   3   7
ATOM      7  C   LIG    1       29.396 -19.670   7.525  0.00  0.00    +0.076 A 
ATOM      8  N   LIG    1       29.765 -18.850   8.610  0.00  0.00    -0.213 N 
ATOM      9  C   LIG    1       31.022 -18.218   8.630  0.00  0.00    +0.174 A 
ATOM     10  C   LIG    1       31.071 -17.508   9.809  0.00  0.00    +0.116 A 
ATOM     11  C   LIG    1       29.841 -17.743  10.435  0.00  0.00    +0.156 A 
ATOM     12  N   LIG    1       31.927 -18.365   7.613  0.00  0.00    -0.235 NA
ATOM     13  C   LIG    1       31.556 -19.120   6.626  0.00  0.00    +0.115 A 
ATOM     14  N   LIG    1       29.046 -18.547   9.728  0.00  0.00    -0.172 NA
ATOM     15  C   LIG    1       30.257 -19.832   6.504  0.00  0.00    +0.048 A 
BRANCH  10  16
ATOM     16  C   LIG    1       32.147 -16.710  10.278  0.00  0.00    +0.104 C 
ATOM     17  N   LIG    1       33.025 -16.027  10.628  0.00  0.00    -0.191 NA
ENDBRANCH  10  16
ENDBRANCH   3   7
BRANCH   1  18
ATOM     18  N   LIG    1       25.020 -20.373   5.361  0.00  0.00    -0.272 N 
ATOM     19  C   LIG    1       23.640 -20.275   5.543  0.00  0.00    +0.217 C 
ATOM     20  O   LIG    1       22.870 -19.963   4.630  0.00  0.00    -0.276 OA
ATOM     21  C   LIG    1       23.068 -20.629   6.896  0.00  0.00    +0.110 C 
BRANCH  18  23
ATOM     22  C   LIG    1       25.388 -18.650   3.592  0.00  0.00    +0.025 C 
ATOM     23  C   LIG    1       25.568 -20.098   4.026  0.00  0.00    +0.110 C 
ENDBRANCH  18  23
ENDBRANCH   1  18
TORSDOF 4
ENDMDL
MODEL 7
REMARK VINA RESULT:      -6.9      5.085      9.535
REMARK  Name = *****
REMARK                            x       y       z     vdW  Elec       q    Type
REMARK                         _______ _______ _______ _____ _____    ______ ____
ROOT
ATOM      1  C   LIG    1       25.151 -24.363   6.432  0.00  0.00    +0.037 A 
ATOM      2  C   LIG    1       25.306 -25.512   7.221  0.00  0.00    +0.033 A 
ATOM      3  C   LIG    1       25.462 -26.775   6.633  0.00  0.00    +0.002 A 
ATOM      4  C   LIG    1       25.448 -26.881   5.237  0.00  0.00    +0.010 A 
ATOM      5  C   LIG    1       25.282 -25.742   4.445  0.00  0.00    +0.002 A 
ATOM      6  C   LIG    1       25.130 -24.488   5.040  0.00  0.00    +0.023 A 
ENDROOT
BRANCH   3   7
ATOM      7  C   LIG    1       25.681 -27.967   7.471  0.00  0.00    +0.076 A 
ATOM      8  N   LIG    1       25.109 -29.215   7.157  0.00  0.00    -0.213 N 
ATOM      9  C   LIG    1       25.349 -30.334   7.976  0.00  0.00    +0.174 A 
ATOM     10  C   LIG    1       24.663 -31.381   7.398  0.00  0.00    +0.116 A 
ATOM     11  C   LIG    1       24.042 -30.838   6.268  0.00  0.00    +0.156 A 
ATOM     12  N   LIG    1       26.131 -30.263   9.096  0.00  0.00    -0.235 NA
ATOM     13  C   LIG    1       26.638 -29.099   9.363  0.00  0.00    +0.115 A 
ATOM     14  N   LIG    1       24.299 -29.539   6.108  0.00  0.00    -0.172 NA
ATOM     15  C   LIG    1       26.450 -27.856   8.570  0.00  0.00    +0.048 A 
BRANCH  10  16
ATOM     16  C   LIG    1       24.606 -32.720   7.863  0.00  0.00    +0.104 C 
ATOM     17  N   LIG    1       24.604 -33.824   8.238  0.00  0.00    -0.191 NA
ENDBRANCH  10  16
ENDBRANCH   3   7
BRANCH   1  18
ATOM     18  N   LIG    1       24.988 -23.100   7.062  0.00  0.00    -0.272 N 
ATOM     19  C   LIG    1       23.758 -22.475   7.271  0.00  0.00    +0.217 C 
ATOM     20  O   LIG    1       23.657 -21.377   7.825  0.00  0.00    -0.276 OA
ATOM     21  C   LIG    1       22.513 -23.144   6.737  0.00  0.00    +0.110 C 
BRANCH  18  23
ATOM     22  C   LIG    1       26.634 -21.282   6.597  0.00  0.00    +0.025 C 
ATOM     23  C   LIG    1       26.204 -22.415   7.519  0.00  0.00    +0.110 C 
ENDBRANCH  18  23
ENDBRANCH   1  18
TORSDOF 4
ENDMDL
MODEL 8
REMARK VINA RESULT:      -6.7      2.676      7.649
REMARK  Name = *****
REMARK                            x       y       z     vdW  Elec       q    Type
REMARK                         _______ _______ _______ _____ _____    ______ ____
ROOT
ATOM      1  C   LIG    1       28.502 -20.590   7.327  0.00  0.00    +0.037 A 
ATOM      2  C   LIG    1       27.437 -21.497   7.431  0.00  0.00    +0.033 A 
ATOM      3  C   LIG    1       26.397 -21.499   6.492  0.00  0.00    +0.002 A 
ATOM      4  C   LIG    1       26.424 -20.568   5.446  0.00  0.00    +0.010 A 
ATOM      5  C   LIG    1       27.476 -19.653   5.343  0.00  0.00    +0.002 A 
ATOM      6  C   LIG    1       28.509 -19.661   6.282  0.00  0.00    +0.023 A 
ENDROOT
BRANCH   3   7
ATOM      7  C   LIG    1       25.314 -22.493   6.579  0.00  0.00    +0.076 A 
ATOM      8  N   LIG    1       25.551 -23.872   6.419  0.00  0.00    -0.213 N 
ATOM      9  C   LIG    1       24.492 -24.793   6.520  0.00  0.00    +0.174 A 
ATOM     10  C   LIG    1       25.052 -26.037   6.323  0.00  0.00    +0.116 A 
ATOM     11  C   LIG    1       26.415 -25.801   6.108  0.00  0.00    +0.156 A 
ATOM     12  N   LIG    1       23.206 -24.400   6.770  0.00  0.00    -0.235 NA
ATOM     13  C   LIG    1       23.018 -23.123   6.906  0.00  0.00    +0.115 A 
ATOM     14  N   LIG    1       26.731 -24.507   6.163  0.00  0.00    -0.172 NA
ATOM     15  C   LIG    1       24.060 -22.067   6.819  0.00  0.00    +0.048 A 
BRANCH  10  16
ATOM     16  C   LIG    1       24.377 -27.285   6.337  0.00  0.00    +0.104 C 
ATOM     17  N   LIG    1       23.853 -28.326   6.377  0.00  0.00    -0.191 NA
ENDBRANCH  10  16
ENDBRANCH   3   7
BRANCH   1  18
ATOM     18  N   LIG    1       29.535 -20.611   8.301  0.00  0.00    -0.272 N 
ATOM     19  C   LIG    1       30.210 -19.480   8.763  0.00  0.00    +0.217 C 
ATOM     20  O   LIG    1       31.102 -19.540   9.613  0.00  0.00    -0.276 OA
ATOM     21  C   LIG    1       29.875 -18.143   8.144  0.00  0.00    +0.110 C 
BRANCH  18  23
ATOM     22  C   LIG    1       31.414 -22.169   8.832  0.00  0.00    +0.025 C 
ATOM     23  C   LIG    1       29.912 -21.920   8.852  0.00  0.00    +0.110 C 
ENDBRANCH  18  23
ENDBRANCH   1  18
TORSDOF 4
ENDMDL
MODEL 9
REMARK VINA RESULT:      -6.5      4.863      9.049
REMARK  Name = *****
REMARK                            x       y       z     vdW  Elec       q    Type
REMARK                         _______ _______ _______ _____ _____    ______ ____
ROOT
ATOM      1  C   LIG    1       24.893 -24.572   6.238  0.00  0.00    +0.037 A 
ATOM      2  C   LIG    1       24.723 -25.850   6.790  0.00  0.00    +0.033 A 
ATOM      3  C   LIG    1       24.858 -27.000   6.001  0.00  0.00    +0.002 A 
ATOM      4  C   LIG    1       25.155 -26.860   4.640  0.00  0.00    +0.010 A 
ATOM      5  C   LIG    1       25.315 -25.589   4.080  0.00  0.00    +0.002 A 
ATOM      6  C   LIG    1       25.181 -24.449   4.875  0.00  0.00    +0.023 A 
ENDROOT
BRANCH   3   7
ATOM      7  C   LIG    1       24.733 -28.339   6.604  0.00  0.00    +0.076 A 
ATOM      8  N   LIG    1       25.366 -28.674   7.817  0.00  0.00    -0.213 N 
ATOM      9  C   LIG    1       25.215 -29.960   8.368  0.00  0.00    +0.174 A 
ATOM     10  C   LIG    1       25.944 -29.959   9.537  0.00  0.00    +0.116 A 
ATOM     11  C   LIG    1       26.501 -28.679   9.627  0.00  0.00    +0.156 A 
ATOM     12  N   LIG    1       24.461 -30.928   7.761  0.00  0.00    -0.235 NA
ATOM     13  C   LIG    1       23.895 -30.591   6.643  0.00  0.00    +0.115 A 
ATOM     14  N   LIG    1       26.164 -27.894   8.602  0.00  0.00    -0.172 NA
ATOM     15  C   LIG    1       23.989 -29.267   5.975  0.00  0.00    +0.048 A 
BRANCH  10  16
ATOM     16  C   LIG    1       26.091 -31.037  10.448  0.00  0.00    +0.104 C 
ATOM     17  N   LIG    1       26.176 -31.908  11.219  0.00  0.00    -0.191 NA
ENDBRANCH  10  16
ENDBRANCH   3   7
BRANCH   1  18
ATOM     18  N   LIG    1       24.741 -23.428   7.066  0.00  0.00    -0.272 N 
ATOM     19  C   LIG    1       23.540 -22.739   7.249  0.00  0.00    +0.217 C 
ATOM     20  O   LIG    1       23.448 -21.749   7.980  0.00  0.00    -0.276 OA
ATOM     21  C   LIG    1       22.328 -23.192   6.469  0.00  0.00    +0.110 C 
BRANCH  18  23
ATOM     22  C   LIG    1       26.692 -21.871   6.998  0.00  0.00    +0.025 C 
ATOM     23  C   LIG    1       25.936 -22.944   7.770  0.00  0.00    +0.110 C 
ENDBRANCH  18  23
ENDBRANCH   1  18
TORSDOF 4
ENDMDL
