MODEL 1
REMARK VINA RESULT:      -1.6      0.000      0.000
REMARK  Name = *****
REMARK                            x       y       z     vdW  Elec       q    Type
REMARK                         _______ _______ _______ _____ _____    ______ ____
ROOT
ATOM      1  O   LIG    1       25.269 -16.959   3.687  0.00  0.00    -0.461 OA
ENDROOT
BRANCH   1   6
ATOM      2  N   LIG    1       25.713 -12.996   3.564  0.00  0.00    +0.247 N 
ATOM      3  C   LIG    1       27.133 -12.580   3.172  0.00  0.00    +0.193 C 
ATOM      4  C   LIG    1       25.650 -13.925   4.815  0.00  0.00    +0.070 C 
ATOM      5  C   LIG    1       26.610 -15.121   4.668  0.00  0.00    +0.099 C 
ATOM      6  C   LIG    1       26.335 -16.001   3.436  0.00  0.00    +0.187 C 
ATOM      7  C   LIG    1       25.927 -15.163   2.216  0.00  0.00    +0.099 C 
ATOM      8  C   LIG    1       24.189 -14.400   4.810  0.00  0.00    +0.060 C 
ATOM      9  C   LIG    1       23.774 -14.413   3.332  0.00  0.00    +0.060 C 
ATOM     10  C   LIG    1       25.020 -13.963   2.554  0.00  0.00    +0.070 C 
BRANCH   2  12
ATOM     11  C   LIG    1       24.158 -11.648   5.167  0.00  0.00    +0.063 C 
ATOM     12  C   LIG    1       24.836 -11.670   3.794  0.00  0.00    +0.060 C 
ATOM     13  C   LIG    1       23.807 -11.447   2.682  0.00  0.00    +0.063 C 
ENDBRANCH   2  12
ENDBRANCH   1   6
BRANCH   1  14
ATOM     14  C   LIG    1       25.531 -18.256   3.323  0.00  0.00    +0.317 C 
ATOM     15  O   LIG    1       26.131 -18.534   2.301  0.00  0.00    -0.250 OA
BRANCH  14  16
ATOM     16  C   LIG    1       25.038 -19.253   4.383  0.00  0.00    +0.153 C 
BRANCH  16  17
ATOM     17  C   LIG    1       26.195 -19.826   5.199  0.00  0.00    -0.032 A 
ATOM     18  C   LIG    1       27.497 -19.317   5.063  0.00  0.00    +0.004 A 
ATOM     19  C   LIG    1       28.536 -19.795   5.859  0.00  0.00    +0.000 A 
ATOM     20  C   LIG    1       28.299 -20.814   6.777  0.00  0.00    +0.000 A 
ATOM     21  C   LIG    1       27.022 -21.358   6.897  0.00  0.00    +0.000 A 
ATOM     22  C   LIG    1       25.973 -20.868   6.114  0.00  0.00    +0.004 A 
ENDBRANCH  16  17
BRANCH  16  23
ATOM     23  C   LIG    1       24.199 -20.363   3.736  0.00  0.00    +0.175 C 
BRANCH  23  24
ATOM     24  O   LIG    1       22.864 -20.377   4.238  0.00  0.00    -0.394 OA
ATOM     25  H   LIG    1       22.876 -19.986   5.133  0.00  0.00    +0.209 HD
ENDBRANCH  23  24
ENDBRANCH  16  23
ENDBRANCH  14  16
ENDBRANCH   1  14
TORSDOF 7
ENDMDL
MODEL 2
REMARK VINA RESULT:      -1.3      1.235      2.433
REMARK  Name = *****
REMARK                            x       y       z     vdW  Elec       q    Type
REMARK                         _______ _______ _______ _____ _____    ______ ____
ROOT
ATOM      1  O   LIG    1       25.970 -16.912   4.089  0.00  0.00    -0.461 OA
ENDROOT
BRANCH   1   6
ATOM      2  N   LIG    1       25.815 -12.973   3.475  0.00  0.00    +0.247 N 
ATOM      3  C   LIG    1       27.113 -12.425   2.876  0.00  0.00    +0.193 C 
ATOM      4  C   LIG    1       26.014 -13.735   4.820  0.00  0.00    +0.070 C 
ATOM      5  C   LIG    1       27.119 -14.802   4.697  0.00  0.00    +0.099 C 
ATOM      6  C   LIG    1       26.854 -15.860   3.610  0.00  0.00    +0.187 C 
ATOM      7  C   LIG    1       26.208 -15.245   2.360  0.00  0.00    +0.099 C 
ATOM      8  C   LIG    1       24.645 -14.398   5.038  0.00  0.00    +0.060 C 
ATOM      9  C   LIG    1       24.090 -14.653   3.629  0.00  0.00    +0.060 C 
ATOM     10  C   LIG    1       25.173 -14.143   2.666  0.00  0.00    +0.070 C 
BRANCH   2  12
ATOM     11  C   LIG    1       24.003 -11.843   4.972  0.00  0.00    +0.063 C 
ATOM     12  C   LIG    1       24.781 -11.757   3.656  0.00  0.00    +0.060 C 
ATOM     13  C   LIG    1       23.821 -11.621   2.470  0.00  0.00    +0.063 C 
ENDBRANCH   2  12
ENDBRANCH   1   6
BRANCH   1  14
ATOM     14  C   LIG    1       26.012 -18.094   3.394  0.00  0.00    +0.317 C 
ATOM     15  O   LIG    1       25.765 -18.155   2.203  0.00  0.00    -0.250 OA
BRANCH  14  16
ATOM     16  C   LIG    1       26.466 -19.260   4.285  0.00  0.00    +0.153 C 
BRANCH  16  17
ATOM     17  C   LIG    1       25.297 -19.866   5.059  0.00  0.00    -0.032 A 
ATOM     18  C   LIG    1       25.496 -20.478   6.307  0.00  0.00    +0.004 A 
ATOM     19  C   LIG    1       24.418 -20.967   7.043  0.00  0.00    +0.000 A 
ATOM     20  C   LIG    1       23.129 -20.885   6.527  0.00  0.00    +0.000 A 
ATOM     21  C   LIG    1       22.916 -20.315   5.273  0.00  0.00    +0.000 A 
ATOM     22  C   LIG    1       23.993 -19.807   4.541  0.00  0.00    +0.004 A 
ENDBRANCH  16  17
BRANCH  16  23
ATOM     23  C   LIG    1       27.595 -18.818   5.225  0.00  0.00    +0.175 C 
BRANCH  23  24
ATOM     24  O   LIG    1       28.652 -18.174   4.513  0.00  0.00    -0.394 OA
ATOM     25  H   LIG    1       29.226 -18.868   4.134  0.00  0.00    +0.209 HD
ENDBRANCH  23  24
ENDBRANCH  16  23
ENDBRANCH  14  16
ENDBRANCH   1  14
TORSDOF 7
ENDMDL
MODEL 3
REMARK VINA RESULT:      -0.4      2.079      3.508
REMARK  Name = *****
REMARK                            x       y       z     vdW  Elec       q    Type
REMARK                         _______ _______ _______ _____ _____    ______ ____
ROOT
ATOM      1  O   LIG    1       23.245 -15.924   3.917  0.00  0.00    -0.461 OA
ENDROOT
BRANCH   1   6
ATOM      2  N   LIG    1       26.232 -13.280   3.936  0.00  0.00    +0.247 N 
ATOM      3  C   LIG    1       25.731 -11.834   3.944  0.00  0.00    +0.193 C 
ATOM      4  C   LIG    1       25.698 -14.127   2.741  0.00  0.00    +0.070 C 
ATOM      5  C   LIG    1       24.165 -14.019   2.626  0.00  0.00    +0.099 C 
ATOM      6  C   LIG    1       23.405 -14.478   3.884  0.00  0.00    +0.187 C 
ATOM      7  C   LIG    1       24.130 -14.063   5.172  0.00  0.00    +0.099 C 
ATOM      8  C   LIG    1       26.111 -15.555   3.128  0.00  0.00    +0.060 C 
ATOM      9  C   LIG    1       26.103 -15.578   4.663  0.00  0.00    +0.060 C 
ATOM     10  C   LIG    1       25.666 -14.167   5.089  0.00  0.00    +0.070 C 
BRANCH   2  12
ATOM     11  C   LIG    1       28.405 -12.597   5.207  0.00  0.00    +0.063 C 
ATOM     12  C   LIG    1       27.839 -13.265   3.951  0.00  0.00    +0.060 C 
ATOM     13  C   LIG    1       28.432 -12.631   2.689  0.00  0.00    +0.063 C 
ENDBRANCH   2  12
ENDBRANCH   1   6
BRANCH   1  14
ATOM     14  C   LIG    1       22.368 -16.409   4.855  0.00  0.00    +0.317 C 
ATOM     15  O   LIG    1       22.008 -15.745   5.810  0.00  0.00    -0.250 OA
BRANCH  14  16
ATOM     16  C   LIG    1       21.878 -17.820   4.497  0.00  0.00    +0.153 C 
BRANCH  16  17
ATOM     17  C   LIG    1       23.006 -18.846   4.579  0.00  0.00    -0.032 A 
ATOM     18  C   LIG    1       24.094 -18.797   3.693  0.00  0.00    +0.004 A 
ATOM     19  C   LIG    1       25.156 -19.691   3.816  0.00  0.00    +0.000 A 
ATOM     20  C   LIG    1       25.130 -20.673   4.802  0.00  0.00    +0.000 A 
ATOM     21  C   LIG    1       24.039 -20.761   5.665  0.00  0.00    +0.000 A 
ATOM     22  C   LIG    1       22.982 -19.854   5.557  0.00  0.00    +0.004 A 
ENDBRANCH  16  17
BRANCH  16  23
ATOM     23  C   LIG    1       21.208 -17.828   3.116  0.00  0.00    +0.175 C 
BRANCH  23  24
ATOM     24  O   LIG    1       19.942 -18.484   3.148  0.00  0.00    -0.394 OA
ATOM     25  H   LIG    1       19.987 -19.255   2.550  0.00  0.00    +0.209 HD
ENDBRANCH  23  24
ENDBRANCH  16  23
ENDBRANCH  14  16
ENDBRANCH   1  14
TORSDOF 7
ENDMDL
MODEL 4
REMARK VINA RESULT:      -0.3      2.517      7.291
REMARK  Name = *****
REMARK                            x       y       z     vdW  Elec       q    Type
REMARK                         _______ _______ _______ _____ _____    ______ ____
ROOT
ATOM      1  O   LIG    1       25.081 -16.867   3.776  0.00  0.00    -0.461 OA
ENDROOT
BRANCH   1   6
ATOM      2  N   LIG    1       23.733 -20.603   4.149  0.00  0.00    +0.247 N 
ATOM      3  C   LIG    1       24.419 -21.571   3.182  0.00  0.00    +0.193 C 
ATOM      4  C   LIG    1       23.045 -19.392   3.449  0.00  0.00    +0.070 C 
ATOM      5  C   LIG    1       24.013 -18.688   2.478  0.00  0.00    +0.099 C 
ATOM      6  C   LIG    1       25.297 -18.159   3.143  0.00  0.00    +0.187 C 
ATOM      7  C   LIG    1       25.820 -19.121   4.219  0.00  0.00    +0.099 C 
ATOM      8  C   LIG    1       22.699 -18.471   4.630  0.00  0.00    +0.060 C 
ATOM      9  C   LIG    1       23.782 -18.742   5.684  0.00  0.00    +0.060 C 
ATOM     10  C   LIG    1       24.711 -19.791   5.055  0.00  0.00    +0.070 C 
BRANCH   2  12
ATOM     11  C   LIG    1       21.224 -21.103   4.660  0.00  0.00    +0.063 C 
ATOM     12  C   LIG    1       22.674 -21.428   5.033  0.00  0.00    +0.060 C 
ATOM     13  C   LIG    1       22.898 -21.248   6.537  0.00  0.00    +0.063 C 
ENDBRANCH   2  12
ENDBRANCH   1   6
BRANCH   1  14
ATOM     14  C   LIG    1       26.117 -15.972   3.680  0.00  0.00    +0.317 C 
ATOM     15  O   LIG    1       27.046 -16.136   2.911  0.00  0.00    -0.250 OA
BRANCH  14  16
ATOM     16  C   LIG    1       25.901 -14.755   4.593  0.00  0.00    +0.153 C 
BRANCH  16  17
ATOM     17  C   LIG    1       25.144 -13.640   3.876  0.00  0.00    -0.032 A 
ATOM     18  C   LIG    1       24.357 -12.723   4.592  0.00  0.00    +0.004 A 
ATOM     19  C   LIG    1       23.724 -11.664   3.943  0.00  0.00    +0.000 A 
ATOM     20  C   LIG    1       23.837 -11.527   2.563  0.00  0.00    +0.000 A 
ATOM     21  C   LIG    1       24.581 -12.449   1.831  0.00  0.00    +0.000 A 
ATOM     22  C   LIG    1       25.232 -13.501   2.481  0.00  0.00    +0.004 A 
ENDBRANCH  16  17
BRANCH  16  23
ATOM     23  C   LIG    1       27.238 -14.256   5.157  0.00  0.00    +0.175 C 
BRANCH  23  24
ATOM     24  O   LIG    1       28.170 -13.958   4.118  0.00  0.00    -0.394 OA
ATOM     25  H   LIG    1       27.745 -13.326   3.506  0.00  0.00    +0.209 HD
ENDBRANCH  23  24
ENDBRANCH  16  23
ENDBRANCH  14  16
ENDBRANCH   1  14
TORSDOF 7
ENDMDL
MODEL 5
REMARK VINA RESULT:      -0.3      1.513      2.732
REMARK  Name = *****
REMARK                            x       y       z     vdW  Elec       q    Type
REMARK                         _______ _______ _______ _____ _____    ______ ____
ROOT
ATOM      1  O   LIG    1       24.779 -16.495   4.242  0.00  0.00    -0.461 OA
ENDROOT
BRANCH   1   6
ATOM      2  N   LIG    1       26.806 -13.134   3.531  0.00  0.00    +0.247 N 
ATOM      3  C   LIG    1       26.146 -12.271   2.453  0.00  0.00    +0.193 C 
ATOM      4  C   LIG    1       27.141 -14.583   3.062  0.00  0.00    +0.070 C 
ATOM      5  C   LIG    1       25.913 -15.256   2.420  0.00  0.00    +0.099 C 
ATOM      6  C   LIG    1       24.688 -15.350   3.348  0.00  0.00    +0.187 C 
ATOM      7  C   LIG    1       24.534 -14.095   4.219  0.00  0.00    +0.099 C 
ATOM      8  C   LIG    1       27.516 -15.285   4.377  0.00  0.00    +0.060 C 
ATOM      9  C   LIG    1       26.694 -14.576   5.463  0.00  0.00    +0.060 C 
ATOM     10  C   LIG    1       25.870 -13.512   4.722  0.00  0.00    +0.070 C 
BRANCH   2  12
ATOM     11  C   LIG    1       29.406 -12.950   3.421  0.00  0.00    +0.063 C 
ATOM     12  C   LIG    1       28.129 -12.383   4.049  0.00  0.00    +0.060 C 
ATOM     13  C   LIG    1       28.238 -12.372   5.576  0.00  0.00    +0.063 C 
ENDBRANCH   2  12
ENDBRANCH   1   6
BRANCH   1  14
ATOM     14  C   LIG    1       24.978 -17.712   3.639  0.00  0.00    +0.317 C 
ATOM     15  O   LIG    1       25.945 -17.936   2.934  0.00  0.00    -0.250 OA
BRANCH  14  16
ATOM     16  C   LIG    1       23.887 -18.722   4.026  0.00  0.00    +0.153 C 
BRANCH  16  17
ATOM     17  C   LIG    1       24.386 -19.718   5.070  0.00  0.00    -0.032 A 
ATOM     18  C   LIG    1       25.759 -19.953   5.247  0.00  0.00    +0.004 A 
ATOM     19  C   LIG    1       26.215 -20.810   6.247  0.00  0.00    +0.000 A 
ATOM     20  C   LIG    1       25.303 -21.475   7.062  0.00  0.00    +0.000 A 
ATOM     21  C   LIG    1       23.936 -21.285   6.875  0.00  0.00    +0.000 A 
ATOM     22  C   LIG    1       23.477 -20.412   5.885  0.00  0.00    +0.004 A 
ENDBRANCH  16  17
BRANCH  16  23
ATOM     23  C   LIG    1       23.341 -19.435   2.782  0.00  0.00    +0.175 C 
BRANCH  23  24
ATOM     24  O   LIG    1       24.294 -20.345   2.235  0.00  0.00    -0.394 OA
ATOM     25  H   LIG    1       23.847 -20.869   1.543  0.00  0.00    +0.209 HD
ENDBRANCH  23  24
ENDBRANCH  16  23
ENDBRANCH  14  16
ENDBRANCH   1  14
TORSDOF 7
ENDMDL
MODEL 6
REMARK VINA RESULT:      -0.3      1.623      3.228
REMARK  Name = *****
REMARK                            x       y       z     vdW  Elec       q    Type
REMARK                         _______ _______ _______ _____ _____    ______ ____
ROOT
ATOM      1  O   LIG    1       23.899 -16.313   3.513  0.00  0.00    -0.461 OA
ENDROOT
BRANCH   1   6
ATOM      2  N   LIG    1       25.949 -12.973   4.256  0.00  0.00    +0.247 N 
ATOM      3  C   LIG    1       25.076 -11.876   4.870  0.00  0.00    +0.193 C 
ATOM      4  C   LIG    1       25.428 -13.503   2.886  0.00  0.00    +0.070 C 
ATOM      5  C   LIG    1       23.940 -13.895   2.972  0.00  0.00    +0.099 C 
ATOM      6  C   LIG    1       23.634 -14.977   4.024  0.00  0.00    +0.187 C 
ATOM      7  C   LIG    1       24.476 -14.791   5.295  0.00  0.00    +0.099 C 
ATOM      8  C   LIG    1       26.301 -14.745   2.649  0.00  0.00    +0.060 C 
ATOM      9  C   LIG    1       26.634 -15.277   4.050  0.00  0.00    +0.060 C 
ATOM     10  C   LIG    1       25.922 -14.329   5.027  0.00  0.00    +0.070 C 
BRANCH   2  12
ATOM     11  C   LIG    1       28.195 -13.032   2.930  0.00  0.00    +0.063 C 
ATOM     12  C   LIG    1       27.450 -12.414   4.117  0.00  0.00    +0.060 C 
ATOM     13  C   LIG    1       28.259 -12.578   5.406  0.00  0.00    +0.063 C 
ENDBRANCH   2  12
ENDBRANCH   1   6
BRANCH   1  14
ATOM     14  C   LIG    1       23.248 -17.339   4.151  0.00  0.00    +0.317 C 
ATOM     15  O   LIG    1       22.350 -17.140   4.949  0.00  0.00    -0.250 OA
BRANCH  14  16
ATOM     16  C   LIG    1       23.749 -18.711   3.675  0.00  0.00    +0.153 C 
BRANCH  16  17
ATOM     17  C   LIG    1       23.939 -19.677   4.843  0.00  0.00    -0.032 A 
ATOM     18  C   LIG    1       25.220 -20.108   5.223  0.00  0.00    +0.004 A 
ATOM     19  C   LIG    1       25.397 -20.934   6.332  0.00  0.00    +0.000 A 
ATOM     20  C   LIG    1       24.292 -21.371   7.057  0.00  0.00    +0.000 A 
ATOM     21  C   LIG    1       23.010 -20.985   6.671  0.00  0.00    +0.000 A 
ATOM     22  C   LIG    1       22.832 -20.142   5.570  0.00  0.00    +0.004 A 
ENDBRANCH  16  17
BRANCH  16  23
ATOM     23  C   LIG    1       25.034 -18.564   2.850  0.00  0.00    +0.175 C 
BRANCH  23  24
ATOM     24  O   LIG    1       26.149 -18.215   3.670  0.00  0.00    -0.394 OA
ATOM     25  H   LIG    1       26.909 -18.033   3.083  0.00  0.00    +0.209 HD
ENDBRANCH  23  24
ENDBRANCH  16  23
ENDBRANCH  14  16
ENDBRANCH   1  14
TORSDOF 7
ENDMDL
MODEL 7
REMARK VINA RESULT:       0.8      1.633      3.295
REMARK  Name = *****
REMARK                            x       y       z     vdW  Elec       q    Type
REMARK                         _______ _______ _______ _____ _____    ______ ____
ROOT
ATOM      1  O   LIG    1       25.605 -17.169   4.065  0.00  0.00    -0.461 OA
ENDROOT
BRANCH   1   6
ATOM      2  N   LIG    1       26.682 -13.363   3.545  0.00  0.00    +0.247 N 
ATOM      3  C   LIG    1       25.717 -12.604   2.630  0.00  0.00    +0.193 C 
ATOM      4  C   LIG    1       27.296 -14.640   2.894  0.00  0.00    +0.070 C 
ATOM      5  C   LIG    1       26.199 -15.540   2.294  0.00  0.00    +0.099 C 
ATOM      6  C   LIG    1       25.145 -16.012   3.312  0.00  0.00    +0.187 C 
ATOM      7  C   LIG    1       24.796 -14.911   4.323  0.00  0.00    +0.099 C 
ATOM      8  C   LIG    1       27.973 -15.334   4.086  0.00  0.00    +0.060 C 
ATOM      9  C   LIG    1       27.134 -14.944   5.311  0.00  0.00    +0.060 C 
ATOM     10  C   LIG    1       26.002 -14.059   4.766  0.00  0.00    +0.070 C 
BRANCH   2  12
ATOM     11  C   LIG    1       29.196 -12.683   3.396  0.00  0.00    +0.063 C 
ATOM     12  C   LIG    1       27.837 -12.353   4.022  0.00  0.00    +0.060 C 
ATOM     13  C   LIG    1       27.952 -12.270   5.546  0.00  0.00    +0.063 C 
ENDBRANCH   2  12
ENDBRANCH   1   6
BRANCH   1  14
ATOM     14  C   LIG    1       25.651 -18.354   3.375  0.00  0.00    +0.317 C 
ATOM     15  O   LIG    1       25.382 -18.424   2.189  0.00  0.00    -0.250 OA
BRANCH  14  16
ATOM     16  C   LIG    1       26.138 -19.509   4.262  0.00  0.00    +0.153 C 
BRANCH  16  17
ATOM     17  C   LIG    1       25.015 -20.061   5.136  0.00  0.00    -0.032 A 
ATOM     18  C   LIG    1       23.667 -19.852   4.800  0.00  0.00    +0.004 A 
ATOM     19  C   LIG    1       22.645 -20.416   5.560  0.00  0.00    +0.000 A 
ATOM     20  C   LIG    1       22.951 -21.168   6.690  0.00  0.00    +0.000 A 
ATOM     21  C   LIG    1       24.281 -21.354   7.062  0.00  0.00    +0.000 A 
ATOM     22  C   LIG    1       25.310 -20.805   6.291  0.00  0.00    +0.004 A 
ENDBRANCH  16  17
BRANCH  16  23
ATOM     23  C   LIG    1       27.346 -19.075   5.104  0.00  0.00    +0.175 C 
BRANCH  23  24
ATOM     24  O   LIG    1       28.315 -20.116   5.212  0.00  0.00    -0.394 OA
ATOM     25  H   LIG    1       28.009 -20.743   5.895  0.00  0.00    +0.209 HD
ENDBRANCH  23  24
ENDBRANCH  16  23
ENDBRANCH  14  16
ENDBRANCH   1  14
TORSDOF 7
ENDMDL
MODEL 8
REMARK VINA RESULT:       0.8      2.752      6.823
REMARK  Name = *****
REMARK                            x       y       z     vdW  Elec       q    Type
REMARK                         _______ _______ _______ _____ _____    ______ ____
ROOT
ATOM      1  O   LIG    1       22.978 -16.320   4.037  0.00  0.00    -0.461 OA
ENDROOT
BRANCH   1   6
ATOM      2  N   LIG    1       22.978 -20.282   4.505  0.00  0.00    +0.247 N 
ATOM      3  C   LIG    1       21.634 -20.810   5.014  0.00  0.00    +0.193 C 
ATOM      4  C   LIG    1       23.621 -19.199   5.424  0.00  0.00    +0.070 C 
ATOM      5  C   LIG    1       22.615 -18.077   5.747  0.00  0.00    +0.099 C 
ATOM      6  C   LIG    1       22.064 -17.350   4.507  0.00  0.00    +0.187 C 
ATOM      7  C   LIG    1       21.817 -18.318   3.341  0.00  0.00    +0.099 C 
ATOM      8  C   LIG    1       24.771 -18.662   4.560  0.00  0.00    +0.060 C 
ATOM      9  C   LIG    1       24.295 -18.819   3.109  0.00  0.00    +0.060 C 
ATOM     10  C   LIG    1       22.885 -19.422   3.205  0.00  0.00    +0.070 C 
BRANCH   2  12
ATOM     11  C   LIG    1       25.071 -21.572   5.375  0.00  0.00    +0.063 C 
ATOM     12  C   LIG    1       23.975 -21.527   4.307  0.00  0.00    +0.060 C 
ATOM     13  C   LIG    1       24.586 -21.572   2.904  0.00  0.00    +0.063 C 
ENDBRANCH   2  12
ENDBRANCH   1   6
BRANCH   1  14
ATOM     14  C   LIG    1       22.953 -15.136   4.729  0.00  0.00    +0.317 C 
ATOM     15  O   LIG    1       22.393 -15.025   5.804  0.00  0.00    -0.250 OA
BRANCH  14  16
ATOM     16  C   LIG    1       23.762 -14.043   4.012  0.00  0.00    +0.153 C 
BRANCH  16  17
ATOM     17  C   LIG    1       25.265 -14.287   4.128  0.00  0.00    -0.032 A 
ATOM     18  C   LIG    1       25.890 -15.310   3.396  0.00  0.00    +0.004 A 
ATOM     19  C   LIG    1       27.272 -15.484   3.450  0.00  0.00    +0.000 A 
ATOM     20  C   LIG    1       28.046 -14.663   4.264  0.00  0.00    +0.000 A 
ATOM     21  C   LIG    1       27.438 -13.668   5.027  0.00  0.00    +0.000 A 
ATOM     22  C   LIG    1       26.055 -13.479   4.961  0.00  0.00    +0.004 A 
ENDBRANCH  16  17
BRANCH  16  23
ATOM     23  C   LIG    1       23.374 -12.652   4.533  0.00  0.00    +0.175 C 
BRANCH  23  24
ATOM     24  O   LIG    1       23.745 -11.625   3.615  0.00  0.00    -0.394 OA
ATOM     25  H   LIG    1       23.572 -11.952   2.711  0.00  0.00    +0.209 HD
ENDBRANCH  23  24
ENDBRANCH  16  23
ENDBRANCH  14  16
ENDBRANCH   1  14
TORSDOF 7
ENDMDL
MODEL 9
REMARK VINA RESULT:       1.2      1.611      1.984
REMARK  Name = *****
REMARK                            x       y       z     vdW  Elec       q    Type
REMARK                         _______ _______ _______ _____ _____    ______ ____
ROOT
ATOM      1  O   LIG    1       25.578 -16.679   2.838  0.00  0.00    -0.461 OA
ENDROOT
BRANCH   1   6
ATOM      2  N   LIG    1       25.645 -12.845   3.937  0.00  0.00    +0.247 N 
ATOM      3  C   LIG    1       27.042 -12.383   4.361  0.00  0.00    +0.193 C 
ATOM      4  C   LIG    1       25.115 -14.072   4.740  0.00  0.00    +0.070 C 
ATOM      5  C   LIG    1       26.149 -15.215   4.754  0.00  0.00    +0.099 C 
ATOM      6  C   LIG    1       26.545 -15.723   3.356  0.00  0.00    +0.187 C 
ATOM      7  C   LIG    1       26.652 -14.576   2.341  0.00  0.00    +0.099 C 
ATOM      8  C   LIG    1       23.867 -14.482   3.943  0.00  0.00    +0.060 C 
ATOM      9  C   LIG    1       24.166 -14.085   2.490  0.00  0.00    +0.060 C 
ATOM     10  C   LIG    1       25.579 -13.482   2.514  0.00  0.00    +0.070 C 
BRANCH   2  12
ATOM     11  C   LIG    1       23.926 -11.561   5.421  0.00  0.00    +0.063 C 
ATOM     12  C   LIG    1       24.636 -11.601   4.064  0.00  0.00    +0.060 C 
ATOM     13  C   LIG    1       23.617 -11.553   2.921  0.00  0.00    +0.063 C 
ENDBRANCH   2  12
ENDBRANCH   1   6
BRANCH   1  14
ATOM     14  C   LIG    1       25.506 -17.878   3.501  0.00  0.00    +0.317 C 
ATOM     15  O   LIG    1       26.433 -18.666   3.517  0.00  0.00    -0.250 OA
BRANCH  14  16
ATOM     16  C   LIG    1       24.170 -18.036   4.243  0.00  0.00    +0.153 C 
BRANCH  16  17
ATOM     17  C   LIG    1       24.153 -19.293   5.110  0.00  0.00    -0.032 A 
ATOM     18  C   LIG    1       24.983 -20.387   4.815  0.00  0.00    +0.004 A 
ATOM     19  C   LIG    1       25.016 -21.504   5.648  0.00  0.00    +0.000 A 
ATOM     20  C   LIG    1       24.193 -21.562   6.768  0.00  0.00    +0.000 A 
ATOM     21  C   LIG    1       23.334 -20.503   7.055  0.00  0.00    +0.000 A 
ATOM     22  C   LIG    1       23.312 -19.373   6.232  0.00  0.00    +0.004 A 
ENDBRANCH  16  17
BRANCH  16  23
ATOM     23  C   LIG    1       22.995 -18.016   3.256  0.00  0.00    +0.175 C 
BRANCH  23  24
ATOM     24  O   LIG    1       21.752 -17.798   3.921  0.00  0.00    -0.394 OA
ATOM     25  H   LIG    1       21.036 -17.927   3.269  0.00  0.00    +0.209 HD
ENDBRANCH  23  24
ENDBRANCH  16  23
ENDBRANCH  14  16
ENDBRANCH   1  14
TORSDOF 7
ENDMDL
