MODEL 1
REMARK VINA RESULT:      21.4      0.000      0.000
REMARK  Name = *****
REMARK                            x       y       z     vdW  Elec       q    Type
REMARK                         _______ _______ _______ _____ _____    ______ ____
ROOT
ATOM      1  C   LIG    1       24.159 -21.126   6.222  0.00  0.00    +0.299 A 
ATOM      2  N   LIG    1       24.537 -20.205   5.265  0.00  0.00    -0.289 N 
ATOM      3  C   LIG    1       25.908 -19.997   5.386  0.00  0.00    +0.086 A 
ATOM      4  C   LIG    1       26.221 -20.762   6.524  0.00  0.00    +0.093 A 
ATOM      5  C   LIG    1       27.529 -20.781   7.046  0.00  0.00    +0.030 A 
ATOM      6  C   LIG    1       28.520 -20.031   6.428  0.00  0.00    +0.003 A 
ATOM      7  C   LIG    1       28.227 -19.306   5.275  0.00  0.00    +0.017 A 
ATOM      8  C   LIG    1       26.934 -19.285   4.699  0.00  0.00    +0.085 A 
ATOM      9  N   LIG    1       25.153 -21.460   7.000  0.00  0.00    -0.195 NA
ENDROOT
BRANCH   8  10
ATOM     10  C   LIG    1       26.737 -18.587   3.401  0.00  0.00    +0.344 C 
ATOM     11  O   LIG    1       25.863 -18.874   2.602  0.00  0.00    -0.245 OA
BRANCH  10  12
ATOM     12  O   LIG    1       27.682 -17.641   3.157  0.00  0.00    -0.421 OA
BRANCH  12  13
ATOM     13  C   LIG    1       28.007 -16.865   4.322  0.00  0.00    +0.371 C 
ATOM     14  C   LIG    1       29.474 -17.059   4.707  0.00  0.00    +0.101 C 
BRANCH  13  15
ATOM     15  O   LIG    1       27.854 -15.449   4.138  0.00  0.00    -0.394 OA
BRANCH  15  16
ATOM     16  C   LIG    1       27.575 -14.729   5.244  0.00  0.00    +0.513 C 
ATOM     17  O   LIG    1       28.148 -14.805   6.323  0.00  0.00    -0.203 OA
BRANCH  16  18
ATOM     18  O   LIG    1       26.542 -13.906   4.943  0.00  0.00    -0.430 OA
BRANCH  18  19
ATOM     19  C   LIG    1       26.743 -12.504   5.188  0.00  0.00    +0.180 C 
ATOM     20  C   LIG    1       28.033 -12.299   5.993  0.00  0.00    +0.045 C 
ATOM     21  C   LIG    1       29.304 -12.615   5.205  0.00  0.00    +0.003 C 
ATOM     22  C   LIG    1       29.327 -11.887   3.864  0.00  0.00    +0.000 C 
ATOM     23  C   LIG    1       28.080 -12.207   3.049  0.00  0.00    +0.003 C 
ATOM     24  C   LIG    1       26.811 -11.826   3.815  0.00  0.00    +0.045 C 
ENDBRANCH  18  19
ENDBRANCH  16  18
ENDBRANCH  15  16
ENDBRANCH  13  15
ENDBRANCH  12  13
ENDBRANCH  10  12
ENDBRANCH   8  10
BRANCH   1  25
ATOM     25  O   LIG    1       22.908 -21.568   6.342  0.00  0.00    -0.464 OA
BRANCH  25  27
ATOM     26  C   LIG    1       20.604 -21.480   5.678  0.00  0.00    +0.048 C 
ATOM     27  C   LIG    1       22.041 -21.238   5.255  0.00  0.00    +0.229 C 
ENDBRANCH  25  27
ENDBRANCH   1  25
BRANCH   2  28
ATOM     28  C   LIG    1       23.563 -19.646   4.343  0.00  0.00    +0.162 C 
BRANCH  28  29
ATOM     29  C   LIG    1       23.264 -18.190   4.623  0.00  0.00    -0.028 A 
ATOM     30  C   LIG    1       22.741 -17.820   5.866  0.00  0.00    +0.006 A 
ATOM     31  C   LIG    1       22.428 -16.485   6.142  0.00  0.00    +0.009 A 
ATOM     32  C   LIG    1       22.653 -15.464   5.202  0.00  0.00    -0.017 A 
ATOM     33  C   LIG    1       23.224 -15.836   3.979  0.00  0.00    +0.009 A 
ATOM     34  C   LIG    1       23.499 -17.178   3.683  0.00  0.00    +0.006 A 
BRANCH  32  35
ATOM     35  C   LIG    1       22.328 -14.055   5.534  0.00  0.00    -0.007 A 
ATOM     36  C   LIG    1       22.787 -12.919   4.818  0.00  0.00    +0.028 A 
ATOM     37  C   LIG    1       22.400 -11.631   5.256  0.00  0.00    +0.012 A 
ATOM     38  C   LIG    1       21.566 -11.448   6.357  0.00  0.00    +0.001 A 
ATOM     39  C   LIG    1       21.113 -12.551   7.061  0.00  0.00    +0.001 A 
ATOM     40  C   LIG    1       21.499 -13.830   6.661  0.00  0.00    +0.009 A 
BRANCH  36  41
ATOM     41  C   LIG    1       23.645 -12.954   3.628  0.00  0.00    +0.180 A 
ATOM     42  N   LIG    1       23.922 -11.906   2.792  0.00  0.00    -0.239 N 
ATOM     43  H   LIG    1       23.579 -10.955   2.810  0.00  0.00    +0.192 HD
ATOM     44  N   LIG    1       24.751 -12.292   1.812  0.00  0.00    -0.046 NA
ATOM     45  N   LIG    1       25.008 -13.565   2.063  0.00  0.00    -0.023 NA
ATOM     46  N   LIG    1       24.343 -13.987   3.187  0.00  0.00    -0.108 NA
ENDBRANCH  36  41
ENDBRANCH  32  35
ENDBRANCH  28  29
ENDBRANCH   2  28
TORSDOF 13
ENDMDL
MODEL 2
REMARK VINA RESULT:      23.5      1.791      4.828
REMARK  Name = *****
REMARK                            x       y       z     vdW  Elec       q    Type
REMARK                         _______ _______ _______ _____ _____    ______ ____
ROOT
ATOM      1  C   LIG    1       26.127 -21.058   6.370  0.00  0.00    +0.299 A 
ATOM      2  N   LIG    1       25.903 -20.515   5.121  0.00  0.00    -0.289 N 
ATOM      3  C   LIG    1       24.528 -20.458   4.916  0.00  0.00    +0.086 A 
ATOM      4  C   LIG    1       24.033 -21.100   6.064  0.00  0.00    +0.093 A 
ATOM      5  C   LIG    1       22.653 -21.319   6.233  0.00  0.00    +0.030 A 
ATOM      6  C   LIG    1       21.770 -20.895   5.249  0.00  0.00    +0.003 A 
ATOM      7  C   LIG    1       22.249 -20.219   4.129  0.00  0.00    +0.017 A 
ATOM      8  C   LIG    1       23.625 -19.951   3.936  0.00  0.00    +0.085 A 
ATOM      9  N   LIG    1       25.016 -21.432   6.947  0.00  0.00    -0.195 NA
ENDROOT
BRANCH   8  10
ATOM     10  C   LIG    1       24.038 -19.117   2.776  0.00  0.00    +0.344 C 
ATOM     11  O   LIG    1       25.150 -19.149   2.279  0.00  0.00    -0.245 OA
BRANCH  10  12
ATOM     12  O   LIG    1       23.071 -18.252   2.371  0.00  0.00    -0.421 OA
BRANCH  12  13
ATOM     13  C   LIG    1       22.434 -17.577   3.468  0.00  0.00    +0.371 C 
ATOM     14  C   LIG    1       21.891 -18.586   4.479  0.00  0.00    +0.101 C 
BRANCH  13  15
ATOM     15  O   LIG    1       23.318 -16.732   4.221  0.00  0.00    -0.394 OA
BRANCH  15  16
ATOM     16  C   LIG    1       22.737 -15.900   5.110  0.00  0.00    +0.513 C 
ATOM     17  O   LIG    1       21.801 -16.169   5.851  0.00  0.00    -0.203 OA
BRANCH  16  18
ATOM     18  O   LIG    1       23.378 -14.710   5.032  0.00  0.00    -0.430 OA
BRANCH  18  19
ATOM     19  C   LIG    1       23.471 -13.947   6.246  0.00  0.00    +0.180 C 
ATOM     20  C   LIG    1       24.946 -13.762   6.630  0.00  0.00    +0.045 C 
ATOM     21  C   LIG    1       25.714 -12.842   5.680  0.00  0.00    +0.003 C 
ATOM     22  C   LIG    1       24.988 -11.516   5.477  0.00  0.00    +0.000 C 
ATOM     23  C   LIG    1       23.563 -11.743   4.989  0.00  0.00    +0.003 C 
ATOM     24  C   LIG    1       22.776 -12.609   5.976  0.00  0.00    +0.045 C 
ENDBRANCH  18  19
ENDBRANCH  16  18
ENDBRANCH  15  16
ENDBRANCH  13  15
ENDBRANCH  12  13
ENDBRANCH  10  12
ENDBRANCH   8  10
BRANCH   1  25
ATOM     25  O   LIG    1       27.346 -21.212   6.882  0.00  0.00    -0.464 OA
BRANCH  25  27
ATOM     26  C   LIG    1       29.324 -19.858   7.000  0.00  0.00    +0.048 C 
ATOM     27  C   LIG    1       28.408 -20.663   6.097  0.00  0.00    +0.229 C 
ENDBRANCH  25  27
ENDBRANCH   1  25
BRANCH   2  28
ATOM     28  C   LIG    1       27.014 -20.101   4.280  0.00  0.00    +0.162 C 
BRANCH  28  29
ATOM     29  C   LIG    1       27.181 -18.599   4.233  0.00  0.00    -0.028 A 
ATOM     30  C   LIG    1       28.420 -18.054   3.881  0.00  0.00    +0.006 A 
ATOM     31  C   LIG    1       28.613 -16.668   3.859  0.00  0.00    +0.009 A 
ATOM     32  C   LIG    1       27.570 -15.772   4.154  0.00  0.00    -0.017 A 
ATOM     33  C   LIG    1       26.318 -16.327   4.455  0.00  0.00    +0.009 A 
ATOM     34  C   LIG    1       26.134 -17.714   4.521  0.00  0.00    +0.006 A 
BRANCH  32  35
ATOM     35  C   LIG    1       27.801 -14.309   4.101  0.00  0.00    -0.007 A 
ATOM     36  C   LIG    1       26.903 -13.357   3.550  0.00  0.00    +0.028 A 
ATOM     37  C   LIG    1       27.262 -11.990   3.563  0.00  0.00    +0.012 A 
ATOM     38  C   LIG    1       28.461 -11.548   4.119  0.00  0.00    +0.001 A 
ATOM     39  C   LIG    1       29.343 -12.469   4.659  0.00  0.00    +0.001 A 
ATOM     40  C   LIG    1       29.020 -13.826   4.638  0.00  0.00    +0.009 A 
BRANCH  36  41
ATOM     41  C   LIG    1       25.597 -13.666   2.956  0.00  0.00    +0.180 A 
ATOM     42  N   LIG    1       25.072 -14.914   2.747  0.00  0.00    -0.239 N 
ATOM     43  H   LIG    1       25.477 -15.824   2.920  0.00  0.00    +0.192 HD
ATOM     44  N   LIG    1       23.854 -14.824   2.196  0.00  0.00    -0.046 NA
ATOM     45  N   LIG    1       23.617 -13.527   2.097  0.00  0.00    -0.023 NA
ATOM     46  N   LIG    1       24.678 -12.798   2.573  0.00  0.00    -0.108 NA
ENDBRANCH  36  41
ENDBRANCH  32  35
ENDBRANCH  28  29
ENDBRANCH   2  28
TORSDOF 13
ENDMDL
