MODEL 1
REMARK VINA RESULT:      -8.5      0.000      0.000
REMARK  Name = *****
REMARK                            x       y       z     vdW  Elec       q    Type
REMARK                         _______ _______ _______ _____ _____    ______ ____
ROOT
ATOM      1  O   LIG    1       26.848 -22.127   8.857  0.00  0.00    -0.287 OA
ATOM      2  C   LIG    1       26.725 -21.465   7.832  0.00  0.00    +0.195 C 
ATOM      3  C   LIG    1       25.447 -21.462   7.100  0.00  0.00    +0.037 A 
ATOM      4  C   LIG    1       25.304 -20.712   5.936  0.00  0.00    +0.074 A 
ATOM      5  C   LIG    1       24.073 -20.732   5.264  0.00  0.00    +0.128 A 
ATOM      6  C   LIG    1       23.006 -21.488   5.750  0.00  0.00    +0.046 A 
ATOM      7  C   LIG    1       23.157 -22.235   6.915  0.00  0.00    +0.004 A 
ATOM      8  C   LIG    1       26.436 -19.911   5.424  0.00  0.00    +0.202 C 
ATOM      9  O   LIG    1       26.252 -19.270   4.392  0.00  0.00    -0.286 OA
ATOM     10  C   LIG    1       27.732 -19.907   6.155  0.00  0.00    +0.074 A 
ATOM     11  C   LIG    1       28.841 -19.165   5.718  0.00  0.00    +0.128 A 
ATOM     12  C   LIG    1       30.045 -19.186   6.431  0.00  0.00    +0.046 A 
ATOM     13  C   LIG    1       30.154 -19.948   7.591  0.00  0.00    +0.004 A 
ATOM     14  C   LIG    1       29.063 -20.687   8.038  0.00  0.00    +0.012 A 
ATOM     15  C   LIG    1       24.376 -22.224   7.592  0.00  0.00    +0.012 A 
ATOM     16  C   LIG    1       27.855 -20.666   7.321  0.00  0.00    +0.037 A 
ENDROOT
BRANCH   5  17
ATOM     17  O   LIG    1       23.835 -20.029   4.113  0.00  0.00    -0.506 OA
ATOM     18  H   LIG    1       23.270 -20.587   3.530  0.00  0.00    +0.292 HD
ENDBRANCH   5  17
BRANCH  11  19
ATOM     19  O   LIG    1       28.776 -18.404   4.586  0.00  0.00    -0.506 OA
ATOM     20  H   LIG    1       28.500 -17.498   4.797  0.00  0.00    +0.292 HD
ENDBRANCH  11  19
TORSDOF 2
ENDMDL
MODEL 2
REMARK VINA RESULT:      -8.5      0.076      4.717
REMARK  Name = *****
REMARK                            x       y       z     vdW  Elec       q    Type
REMARK                         _______ _______ _______ _____ _____    ______ ____
ROOT
ATOM      1  O   LIG    1       26.850 -22.118   8.870  0.00  0.00    -0.287 OA
ATOM      2  C   LIG    1       26.710 -21.461   7.844  0.00  0.00    +0.195 C 
ATOM      3  C   LIG    1       27.824 -20.650   7.325  0.00  0.00    +0.037 A 
ATOM      4  C   LIG    1       27.669 -19.904   6.160  0.00  0.00    +0.074 A 
ATOM      5  C   LIG    1       28.750 -19.141   5.695  0.00  0.00    +0.128 A 
ATOM      6  C   LIG    1       29.963 -19.127   6.383  0.00  0.00    +0.046 A 
ATOM      7  C   LIG    1       30.111 -19.876   7.547  0.00  0.00    +0.004 A 
ATOM      8  C   LIG    1       26.381 -19.920   5.432  0.00  0.00    +0.202 C 
ATOM      9  O   LIG    1       26.302 -19.242   4.411  0.00  0.00    -0.286 OA
ATOM     10  C   LIG    1       25.250 -20.737   5.947  0.00  0.00    +0.074 A 
ATOM     11  C   LIG    1       24.005 -20.793   5.299  0.00  0.00    +0.128 A 
ATOM     12  C   LIG    1       22.963 -21.573   5.813  0.00  0.00    +0.046 A 
ATOM     13  C   LIG    1       23.151 -22.306   6.981  0.00  0.00    +0.004 A 
ATOM     14  C   LIG    1       24.380 -22.261   7.634  0.00  0.00    +0.012 A 
ATOM     15  C   LIG    1       29.043 -20.638   8.020  0.00  0.00    +0.012 A 
ATOM     16  C   LIG    1       25.425 -21.479   7.118  0.00  0.00    +0.037 A 
ENDROOT
BRANCH   5  17
ATOM     17  O   LIG    1       28.694 -18.375   4.560  0.00  0.00    -0.506 OA
ATOM     18  H   LIG    1       29.337 -17.635   4.664  0.00  0.00    +0.292 HD
ENDBRANCH   5  17
BRANCH  11  19
ATOM     19  O   LIG    1       23.779 -20.090   4.150  0.00  0.00    -0.506 OA
ATOM     20  H   LIG    1       24.311 -19.279   4.134  0.00  0.00    +0.292 HD
ENDBRANCH  11  19
TORSDOF 2
ENDMDL
MODEL 3
REMARK VINA RESULT:      -7.7      1.332      3.216
REMARK  Name = *****
REMARK                            x       y       z     vdW  Elec       q    Type
REMARK                         _______ _______ _______ _____ _____    ______ ____
ROOT
ATOM      1  O   LIG    1       26.291 -18.885   3.864  0.00  0.00    -0.287 OA
ATOM      2  C   LIG    1       26.121 -19.618   4.832  0.00  0.00    +0.195 C 
ATOM      3  C   LIG    1       24.799 -20.212   5.090  0.00  0.00    +0.037 A 
ATOM      4  C   LIG    1       24.603 -21.045   6.188  0.00  0.00    +0.074 A 
ATOM      5  C   LIG    1       23.330 -21.592   6.404  0.00  0.00    +0.128 A 
ATOM      6  C   LIG    1       22.275 -21.312   5.537  0.00  0.00    +0.046 A 
ATOM      7  C   LIG    1       22.479 -20.478   4.441  0.00  0.00    +0.004 A 
ATOM      8  C   LIG    1       25.724 -21.341   7.106  0.00  0.00    +0.202 C 
ATOM      9  O   LIG    1       25.492 -22.082   8.058  0.00  0.00    -0.286 OA
ATOM     10  C   LIG    1       27.064 -20.747   6.854  0.00  0.00    +0.074 A 
ATOM     11  C   LIG    1       28.166 -20.993   7.690  0.00  0.00    +0.128 A 
ATOM     12  C   LIG    1       29.413 -20.416   7.423  0.00  0.00    +0.046 A 
ATOM     13  C   LIG    1       29.574 -19.586   6.317  0.00  0.00    +0.004 A 
ATOM     14  C   LIG    1       28.492 -19.334   5.479  0.00  0.00    +0.012 A 
ATOM     15  C   LIG    1       23.739 -19.927   4.215  0.00  0.00    +0.012 A 
ATOM     16  C   LIG    1       27.241 -19.913   5.747  0.00  0.00    +0.037 A 
ENDROOT
BRANCH   5  17
ATOM     17  O   LIG    1       23.039 -22.422   7.455  0.00  0.00    -0.506 OA
ATOM     18  H   LIG    1       23.207 -23.348   7.163  0.00  0.00    +0.292 HD
ENDBRANCH   5  17
BRANCH  11  19
ATOM     19  O   LIG    1       28.051 -21.801   8.785  0.00  0.00    -0.506 OA
ATOM     20  H   LIG    1       28.926 -22.070   9.106  0.00  0.00    +0.292 HD
ENDBRANCH  11  19
TORSDOF 2
ENDMDL
MODEL 4
REMARK VINA RESULT:      -7.7      1.328      5.646
REMARK  Name = *****
REMARK                            x       y       z     vdW  Elec       q    Type
REMARK                         _______ _______ _______ _____ _____    ______ ____
ROOT
ATOM      1  O   LIG    1       26.290 -18.879   3.862  0.00  0.00    -0.287 OA
ATOM      2  C   LIG    1       26.122 -19.614   4.828  0.00  0.00    +0.195 C 
ATOM      3  C   LIG    1       27.241 -19.909   5.739  0.00  0.00    +0.037 A 
ATOM      4  C   LIG    1       27.054 -20.743   6.838  0.00  0.00    +0.074 A 
ATOM      5  C   LIG    1       28.142 -21.003   7.684  0.00  0.00    +0.128 A 
ATOM      6  C   LIG    1       29.392 -20.437   7.436  0.00  0.00    +0.046 A 
ATOM      7  C   LIG    1       29.571 -19.604   6.335  0.00  0.00    +0.004 A 
ATOM      8  C   LIG    1       25.727 -21.342   7.100  0.00  0.00    +0.202 C 
ATOM      9  O   LIG    1       25.621 -22.070   8.083  0.00  0.00    -0.286 OA
ATOM     10  C   LIG    1       24.590 -21.050   6.186  0.00  0.00    +0.074 A 
ATOM     11  C   LIG    1       23.308 -21.589   6.384  0.00  0.00    +0.128 A 
ATOM     12  C   LIG    1       22.261 -21.293   5.503  0.00  0.00    +0.046 A 
ATOM     13  C   LIG    1       22.483 -20.455   4.413  0.00  0.00    +0.004 A 
ATOM     14  C   LIG    1       23.748 -19.913   4.205  0.00  0.00    +0.012 A 
ATOM     15  C   LIG    1       28.498 -19.338   5.485  0.00  0.00    +0.012 A 
ATOM     16  C   LIG    1       24.798 -20.211   5.089  0.00  0.00    +0.037 A 
ENDROOT
BRANCH   5  17
ATOM     17  O   LIG    1       28.056 -21.810   8.788  0.00  0.00    -0.506 OA
ATOM     18  H   LIG    1       28.794 -21.568   9.396  0.00  0.00    +0.292 HD
ENDBRANCH   5  17
BRANCH  11  19
ATOM     19  O   LIG    1       23.047 -22.414   7.440  0.00  0.00    -0.506 OA
ATOM     20  H   LIG    1       23.449 -22.067   8.253  0.00  0.00    +0.292 HD
ENDBRANCH  11  19
TORSDOF 2
ENDMDL
MODEL 5
REMARK VINA RESULT:      -7.6      1.070      5.655
REMARK  Name = *****
REMARK                            x       y       z     vdW  Elec       q    Type
REMARK                         _______ _______ _______ _____ _____    ______ ____
ROOT
ATOM      1  O   LIG    1       26.315 -19.115   4.106  0.00  0.00    -0.287 OA
ATOM      2  C   LIG    1       26.543 -19.648   5.186  0.00  0.00    +0.195 C 
ATOM      3  C   LIG    1       27.875 -19.539   5.802  0.00  0.00    +0.037 A 
ATOM      4  C   LIG    1       28.136 -20.143   7.029  0.00  0.00    +0.074 A 
ATOM      5  C   LIG    1       29.418 -20.019   7.586  0.00  0.00    +0.128 A 
ATOM      6  C   LIG    1       30.417 -19.303   6.928  0.00  0.00    +0.046 A 
ATOM      7  C   LIG    1       30.148 -18.702   5.701  0.00  0.00    +0.004 A 
ATOM      8  C   LIG    1       27.075 -20.901   7.726  0.00  0.00    +0.202 C 
ATOM      9  O   LIG    1       27.362 -21.413   8.804  0.00  0.00    -0.286 OA
ATOM     10  C   LIG    1       25.724 -21.017   7.112  0.00  0.00    +0.074 A 
ATOM     11  C   LIG    1       24.676 -21.723   7.726  0.00  0.00    +0.128 A 
ATOM     12  C   LIG    1       23.419 -21.812   7.120  0.00  0.00    +0.046 A 
ATOM     13  C   LIG    1       23.192 -21.197   5.892  0.00  0.00    +0.004 A 
ATOM     14  C   LIG    1       24.220 -20.493   5.272  0.00  0.00    +0.012 A 
ATOM     15  C   LIG    1       28.879 -18.818   5.136  0.00  0.00    +0.012 A 
ATOM     16  C   LIG    1       25.482 -20.404   5.880  0.00  0.00    +0.037 A 
ENDROOT
BRANCH   5  17
ATOM     17  O   LIG    1       29.770 -20.577   8.786  0.00  0.00    -0.506 OA
ATOM     18  H   LIG    1       29.173 -20.206   9.478  0.00  0.00    +0.292 HD
ENDBRANCH   5  17
BRANCH  11  19
ATOM     19  O   LIG    1       24.857 -22.340   8.932  0.00  0.00    -0.506 OA
ATOM     20  H   LIG    1       24.003 -22.513   9.359  0.00  0.00    +0.292 HD
ENDBRANCH  11  19
TORSDOF 2
ENDMDL
MODEL 6
REMARK VINA RESULT:      -6.5      1.829      2.849
REMARK  Name = *****
REMARK                            x       y       z     vdW  Elec       q    Type
REMARK                         _______ _______ _______ _____ _____    ______ ____
ROOT
ATOM      1  O   LIG    1       23.242 -21.480   7.659  0.00  0.00    -0.287 OA
ATOM      2  C   LIG    1       24.127 -21.022   6.945  0.00  0.00    +0.195 C 
ATOM      3  C   LIG    1       23.783 -20.237   5.748  0.00  0.00    +0.037 A 
ATOM      4  C   LIG    1       24.786 -19.715   4.935  0.00  0.00    +0.074 A 
ATOM      5  C   LIG    1       24.423 -18.973   3.802  0.00  0.00    +0.128 A 
ATOM      6  C   LIG    1       23.081 -18.755   3.491  0.00  0.00    +0.046 A 
ATOM      7  C   LIG    1       22.084 -19.280   4.308  0.00  0.00    +0.004 A 
ATOM      8  C   LIG    1       26.208 -19.947   5.268  0.00  0.00    +0.202 C 
ATOM      9  O   LIG    1       27.050 -19.464   4.515  0.00  0.00    -0.286 OA
ATOM     10  C   LIG    1       26.567 -20.739   6.475  0.00  0.00    +0.074 A 
ATOM     11  C   LIG    1       27.899 -20.991   6.842  0.00  0.00    +0.128 A 
ATOM     12  C   LIG    1       28.199 -21.740   7.985  0.00  0.00    +0.046 A 
ATOM     13  C   LIG    1       27.171 -22.248   8.776  0.00  0.00    +0.004 A 
ATOM     14  C   LIG    1       25.846 -22.006   8.425  0.00  0.00    +0.012 A 
ATOM     15  C   LIG    1       22.431 -20.020   5.437  0.00  0.00    +0.012 A 
ATOM     16  C   LIG    1       25.546 -21.254   7.278  0.00  0.00    +0.037 A 
ENDROOT
BRANCH   5  17
ATOM     17  O   LIG    1       25.336 -18.421   2.943  0.00  0.00    -0.506 OA
ATOM     18  H   LIG    1       25.089 -18.689   2.027  0.00  0.00    +0.292 HD
ENDBRANCH   5  17
BRANCH  11  19
ATOM     19  O   LIG    1       28.936 -20.510   6.096  0.00  0.00    -0.506 OA
ATOM     20  H   LIG    1       29.508 -19.937   6.631  0.00  0.00    +0.292 HD
ENDBRANCH  11  19
TORSDOF 2
ENDMDL
MODEL 7
REMARK VINA RESULT:      -6.2      8.113     10.232
REMARK  Name = *****
REMARK                            x       y       z     vdW  Elec       q    Type
REMARK                         _______ _______ _______ _____ _____    ______ ____
ROOT
ATOM      1  O   LIG    1       26.942 -28.245   9.696  0.00  0.00    -0.287 OA
ATOM      2  C   LIG    1       26.137 -28.826   8.977  0.00  0.00    +0.195 C 
ATOM      3  C   LIG    1       25.704 -28.220   7.707  0.00  0.00    +0.037 A 
ATOM      4  C   LIG    1       24.790 -28.878   6.888  0.00  0.00    +0.074 A 
ATOM      5  C   LIG    1       24.399 -28.271   5.685  0.00  0.00    +0.128 A 
ATOM      6  C   LIG    1       24.915 -27.031   5.309  0.00  0.00    +0.046 A 
ATOM      7  C   LIG    1       25.829 -26.380   6.133  0.00  0.00    +0.004 A 
ATOM      8  C   LIG    1       24.245 -30.193   7.288  0.00  0.00    +0.202 C 
ATOM      9  O   LIG    1       23.442 -30.726   6.527  0.00  0.00    -0.286 OA
ATOM     10  C   LIG    1       24.675 -30.814   8.569  0.00  0.00    +0.074 A 
ATOM     11  C   LIG    1       24.193 -32.061   9.001  0.00  0.00    +0.128 A 
ATOM     12  C   LIG    1       24.620 -32.615  10.213  0.00  0.00    +0.046 A 
ATOM     13  C   LIG    1       25.535 -31.930  11.009  0.00  0.00    +0.004 A 
ATOM     14  C   LIG    1       26.022 -30.694  10.593  0.00  0.00    +0.012 A 
ATOM     15  C   LIG    1       26.225 -26.972   7.332  0.00  0.00    +0.012 A 
ATOM     16  C   LIG    1       25.593 -30.139   9.377  0.00  0.00    +0.037 A 
ENDROOT
BRANCH   5  17
ATOM     17  O   LIG    1       23.507 -28.839   4.815  0.00  0.00    -0.506 OA
ATOM     18  H   LIG    1       23.998 -29.077   3.993  0.00  0.00    +0.292 HD
ENDBRANCH   5  17
BRANCH  11  19
ATOM     19  O   LIG    1       23.296 -32.765   8.251  0.00  0.00    -0.506 OA
ATOM     20  H   LIG    1       23.755 -33.353   7.630  0.00  0.00    +0.292 HD
ENDBRANCH  11  19
TORSDOF 2
ENDMDL
MODEL 8
REMARK VINA RESULT:      -6.1      8.359     10.435
REMARK  Name = *****
REMARK                            x       y       z     vdW  Elec       q    Type
REMARK                         _______ _______ _______ _____ _____    ______ ____
ROOT
ATOM      1  O   LIG    1       26.889 -28.182   9.923  0.00  0.00    -0.287 OA
ATOM      2  C   LIG    1       26.058 -28.890   9.366  0.00  0.00    +0.195 C 
ATOM      3  C   LIG    1       25.553 -30.104  10.027  0.00  0.00    +0.037 A 
ATOM      4  C   LIG    1       24.609 -30.909   9.397  0.00  0.00    +0.074 A 
ATOM      5  C   LIG    1       24.150 -32.060  10.056  0.00  0.00    +0.128 A 
ATOM      6  C   LIG    1       24.627 -32.395  11.323  0.00  0.00    +0.046 A 
ATOM      7  C   LIG    1       25.571 -31.584  11.947  0.00  0.00    +0.004 A 
ATOM      8  C   LIG    1       24.104 -30.551   8.053  0.00  0.00    +0.202 C 
ATOM      9  O   LIG    1       23.273 -31.299   7.545  0.00  0.00    -0.286 OA
ATOM     10  C   LIG    1       24.608 -29.326   7.376  0.00  0.00    +0.074 A 
ATOM     11  C   LIG    1       24.165 -28.934   6.102  0.00  0.00    +0.128 A 
ATOM     12  C   LIG    1       24.661 -27.775   5.494  0.00  0.00    +0.046 A 
ATOM     13  C   LIG    1       25.605 -26.993   6.153  0.00  0.00    +0.004 A 
ATOM     14  C   LIG    1       26.053 -27.368   7.416  0.00  0.00    +0.012 A 
ATOM     15  C   LIG    1       26.036 -30.439  11.302  0.00  0.00    +0.012 A 
ATOM     16  C   LIG    1       25.555 -28.531   8.025  0.00  0.00    +0.037 A 
ENDROOT
BRANCH   5  17
ATOM     17  O   LIG    1       23.224 -32.913   9.517  0.00  0.00    -0.506 OA
ATOM     18  H   LIG    1       23.371 -32.941   8.543  0.00  0.00    +0.292 HD
ENDBRANCH   5  17
BRANCH  11  19
ATOM     19  O   LIG    1       23.239 -29.673   5.422  0.00  0.00    -0.506 OA
ATOM     20  H   LIG    1       22.428 -29.159   5.278  0.00  0.00    +0.292 HD
ENDBRANCH  11  19
TORSDOF 2
ENDMDL
