MODEL 1
REMARK VINA RESULT:      -7.2      0.000      0.000
REMARK  Name = *****
REMARK                            x       y       z     vdW  Elec       q    Type
REMARK                         _______ _______ _______ _____ _____    ______ ____
ROOT
ATOM      1  C   LIG    1       30.683 -21.058   8.509  0.00  0.00    +0.195 C 
ATOM      2  N   LIG    1       31.112 -20.081   7.632  0.00  0.00    -0.293 N 
ATOM      3  H   LIG    1       32.063 -19.749   7.671  0.00  0.00    +0.172 HD
ATOM      4  C   LIG    1       30.336 -19.541   6.619  0.00  0.00    +0.280 C 
ATOM      5  O   LIG    1       30.789 -18.705   5.827  0.00  0.00    -0.265 OA
ATOM      6  C   LIG    1       28.989 -20.057   6.628  0.00  0.00    +0.172 A 
ATOM      7  N   LIG    1       27.878 -19.672   5.926  0.00  0.00    -0.229 NA
ATOM      8  C   LIG    1       26.904 -20.418   6.408  0.00  0.00    +0.201 A 
ATOM      9  N   LIG    1       27.350 -21.305   7.358  0.00  0.00    -0.315 N 
ATOM     10  C   LIG    1       28.683 -21.054   7.540  0.00  0.00    +0.169 A 
ATOM     11  N   LIG    1       29.495 -21.600   8.475  0.00  0.00    -0.196 NA
ENDROOT
BRANCH   1  12
ATOM     12  N   LIG    1       31.569 -21.430   9.466  0.00  0.00    -0.329 N 
ATOM     13  H   LIG    1       31.976 -22.349   9.342  0.00  0.00    +0.145 HD
ATOM     14  H   LIG    1       32.286 -20.721   9.590  0.00  0.00    +0.145 HD
ENDBRANCH   1  12
BRANCH   9  15
ATOM     15  C   LIG    1       26.520 -22.212   8.128  0.00  0.00    +0.125 C 
BRANCH  15  16
ATOM     16  C   LIG    1       25.894 -23.377   7.336  0.00  0.00    +0.029 C 
BRANCH  16  17
ATOM     17  C   LIG    1       24.521 -23.065   6.695  0.00  0.00    +0.042 C 
BRANCH  17  18
ATOM     18  C   LIG    1       23.785 -21.931   7.444  0.00  0.00    +0.161 C 
BRANCH  18  19
ATOM     19  O   LIG    1       23.049 -21.068   6.590  0.00  0.00    -0.395 OA
ATOM     20  H   LIG    1       23.362 -21.235   5.677  0.00  0.00    +0.209 HD
ENDBRANCH  18  19
ENDBRANCH  17  18
BRANCH  17  21
ATOM     21  C   LIG    1       23.635 -24.317   6.613  0.00  0.00    +0.161 C 
BRANCH  21  22
ATOM     22  O   LIG    1       22.261 -23.958   6.728  0.00  0.00    -0.395 OA
ATOM     23  H   LIG    1       21.944 -23.741   5.832  0.00  0.00    +0.209 HD
ENDBRANCH  21  22
ENDBRANCH  17  21
ENDBRANCH  16  17
ENDBRANCH  15  16
ENDBRANCH   9  15
TORSDOF 8
ENDMDL
MODEL 2
REMARK VINA RESULT:      -7.2      2.453      6.866
REMARK  Name = *****
REMARK                            x       y       z     vdW  Elec       q    Type
REMARK                         _______ _______ _______ _____ _____    ______ ____
ROOT
ATOM      1  C   LIG    1       25.007 -20.300   4.758  0.00  0.00    +0.195 C 
ATOM      2  N   LIG    1       23.990 -20.556   5.656  0.00  0.00    -0.293 N 
ATOM      3  H   LIG    1       23.037 -20.624   5.335  0.00  0.00    +0.172 HD
ATOM      4  C   LIG    1       24.180 -20.802   7.007  0.00  0.00    +0.280 C 
ATOM      5  O   LIG    1       23.236 -21.079   7.757  0.00  0.00    -0.265 OA
ATOM      6  C   LIG    1       25.564 -20.681   7.395  0.00  0.00    +0.172 A 
ATOM      7  N   LIG    1       26.149 -20.673   8.634  0.00  0.00    -0.229 NA
ATOM      8  C   LIG    1       27.422 -20.429   8.399  0.00  0.00    +0.201 A 
ATOM      9  N   LIG    1       27.694 -20.327   7.055  0.00  0.00    -0.315 N 
ATOM     10  C   LIG    1       26.498 -20.446   6.400  0.00  0.00    +0.169 A 
ATOM     11  N   LIG    1       26.274 -20.274   5.076  0.00  0.00    -0.196 NA
ENDROOT
BRANCH   1  12
ATOM     12  N   LIG    1       24.624 -20.036   3.484  0.00  0.00    -0.329 N 
ATOM     13  H   LIG    1       23.877 -19.359   3.392  0.00  0.00    +0.145 HD
ATOM     14  H   LIG    1       25.424 -19.785   2.910  0.00  0.00    +0.145 HD
ENDBRANCH   1  12
BRANCH   9  15
ATOM     15  C   LIG    1       28.979 -19.994   6.472  0.00  0.00    +0.125 C 
BRANCH  15  16
ATOM     16  C   LIG    1       29.797 -18.928   7.226  0.00  0.00    +0.029 C 
BRANCH  16  17
ATOM     17  C   LIG    1       31.155 -19.419   7.779  0.00  0.00    +0.042 C 
BRANCH  17  18
ATOM     18  C   LIG    1       30.982 -20.623   8.732  0.00  0.00    +0.161 C 
BRANCH  18  19
ATOM     19  O   LIG    1       32.208 -21.126   9.243  0.00  0.00    -0.395 OA
ATOM     20  H   LIG    1       32.700 -20.362   9.610  0.00  0.00    +0.209 HD
ENDBRANCH  18  19
ENDBRANCH  17  18
BRANCH  17  21
ATOM     21  C   LIG    1       31.926 -18.289   8.477  0.00  0.00    +0.161 C 
BRANCH  21  22
ATOM     22  O   LIG    1       31.924 -18.487   9.888  0.00  0.00    -0.395 OA
ATOM     23  H   LIG    1       31.406 -17.761  10.280  0.00  0.00    +0.209 HD
ENDBRANCH  21  22
ENDBRANCH  17  21
ENDBRANCH  16  17
ENDBRANCH  15  16
ENDBRANCH   9  15
TORSDOF 8
ENDMDL
MODEL 3
REMARK VINA RESULT:      -7.2      2.553      6.592
REMARK  Name = *****
REMARK                            x       y       z     vdW  Elec       q    Type
REMARK                         _______ _______ _______ _____ _____    ______ ____
ROOT
ATOM      1  C   LIG    1       25.380 -20.100   4.415  0.00  0.00    +0.195 C 
ATOM      2  N   LIG    1       24.123 -20.613   4.670  0.00  0.00    -0.293 N 
ATOM      3  H   LIG    1       23.438 -20.664   3.932  0.00  0.00    +0.172 HD
ATOM      4  C   LIG    1       23.726 -21.147   5.886  0.00  0.00    +0.280 C 
ATOM      5  O   LIG    1       22.604 -21.643   6.043  0.00  0.00    -0.265 OA
ATOM      6  C   LIG    1       24.752 -21.034   6.893  0.00  0.00    +0.172 A 
ATOM      7  N   LIG    1       24.713 -21.272   8.242  0.00  0.00    -0.229 NA
ATOM      8  C   LIG    1       25.901 -20.905   8.679  0.00  0.00    +0.201 A 
ATOM      9  N   LIG    1       26.724 -20.486   7.662  0.00  0.00    -0.315 N 
ATOM     10  C   LIG    1       25.983 -20.524   6.512  0.00  0.00    +0.169 A 
ATOM     11  N   LIG    1       26.349 -20.070   5.290  0.00  0.00    -0.196 NA
ENDROOT
BRANCH   1  12
ATOM     12  N   LIG    1       25.570 -19.578   3.178  0.00  0.00    -0.329 N 
ATOM     13  H   LIG    1       24.724 -19.310   2.690  0.00  0.00    +0.145 HD
ATOM     14  H   LIG    1       26.239 -18.813   3.206  0.00  0.00    +0.145 HD
ENDBRANCH   1  12
BRANCH   9  15
ATOM     15  C   LIG    1       28.063 -19.952   7.818  0.00  0.00    +0.125 C 
BRANCH  15  16
ATOM     16  C   LIG    1       29.205 -20.864   7.326  0.00  0.00    +0.029 C 
BRANCH  16  17
ATOM     17  C   LIG    1       30.583 -20.589   7.974  0.00  0.00    +0.042 C 
BRANCH  17  18
ATOM     18  C   LIG    1       30.938 -21.656   9.034  0.00  0.00    +0.161 C 
BRANCH  18  19
ATOM     19  O   LIG    1       32.261 -21.539   9.538  0.00  0.00    -0.395 OA
ATOM     20  H   LIG    1       32.843 -21.353   8.772  0.00  0.00    +0.209 HD
ENDBRANCH  18  19
ENDBRANCH  17  18
BRANCH  17  21
ATOM     21  C   LIG    1       30.652 -19.182   8.585  0.00  0.00    +0.161 C 
BRANCH  21  22
ATOM     22  O   LIG    1       30.769 -19.264  10.003  0.00  0.00    -0.395 OA
ATOM     23  H   LIG    1       31.720 -19.302  10.212  0.00  0.00    +0.209 HD
ENDBRANCH  21  22
ENDBRANCH  17  21
ENDBRANCH  16  17
ENDBRANCH  15  16
ENDBRANCH   9  15
TORSDOF 8
ENDMDL
MODEL 4
REMARK VINA RESULT:      -7.1      2.430      6.640
REMARK  Name = *****
REMARK                            x       y       z     vdW  Elec       q    Type
REMARK                         _______ _______ _______ _____ _____    ______ ____
ROOT
ATOM      1  C   LIG    1       25.311 -25.008   6.079  0.00  0.00    +0.195 C 
ATOM      2  N   LIG    1       23.942 -24.842   6.139  0.00  0.00    -0.293 N 
ATOM      3  H   LIG    1       23.329 -25.560   5.784  0.00  0.00    +0.172 HD
ATOM      4  C   LIG    1       23.308 -23.758   6.726  0.00  0.00    +0.280 C 
ATOM      5  O   LIG    1       22.075 -23.686   6.799  0.00  0.00    -0.265 OA
ATOM      6  C   LIG    1       24.245 -22.770   7.203  0.00  0.00    +0.172 A 
ATOM      7  N   LIG    1       24.044 -21.502   7.680  0.00  0.00    -0.229 NA
ATOM      8  C   LIG    1       25.256 -21.021   7.869  0.00  0.00    +0.201 A 
ATOM      9  N   LIG    1       26.233 -21.944   7.582  0.00  0.00    -0.315 N 
ATOM     10  C   LIG    1       25.597 -23.061   7.112  0.00  0.00    +0.169 A 
ATOM     11  N   LIG    1       26.173 -24.167   6.585  0.00  0.00    -0.196 NA
ENDROOT
BRANCH   1  12
ATOM     12  N   LIG    1       25.749 -26.111   5.422  0.00  0.00    -0.329 N 
ATOM     13  H   LIG    1       26.070 -26.866   6.015  0.00  0.00    +0.145 HD
ATOM     14  H   LIG    1       25.054 -26.435   4.755  0.00  0.00    +0.145 HD
ENDBRANCH   1  12
BRANCH   9  15
ATOM     15  C   LIG    1       27.663 -21.706   7.618  0.00  0.00    +0.125 C 
BRANCH  15  16
ATOM     16  C   LIG    1       28.090 -20.226   7.671  0.00  0.00    +0.029 C 
BRANCH  16  17
ATOM     17  C   LIG    1       29.299 -19.865   6.775  0.00  0.00    +0.042 C 
BRANCH  17  18
ATOM     18  C   LIG    1       30.443 -19.223   7.591  0.00  0.00    +0.161 C 
BRANCH  18  19
ATOM     19  O   LIG    1       31.738 -19.637   7.179  0.00  0.00    -0.395 OA
ATOM     20  H   LIG    1       31.729 -20.616   7.148  0.00  0.00    +0.209 HD
ENDBRANCH  18  19
ENDBRANCH  17  18
BRANCH  17  21
ATOM     21  C   LIG    1       28.889 -18.949   5.612  0.00  0.00    +0.161 C 
BRANCH  21  22
ATOM     22  O   LIG    1       29.961 -18.074   5.272  0.00  0.00    -0.395 OA
ATOM     23  H   LIG    1       29.908 -17.307   5.870  0.00  0.00    +0.209 HD
ENDBRANCH  21  22
ENDBRANCH  17  21
ENDBRANCH  16  17
ENDBRANCH  15  16
ENDBRANCH   9  15
TORSDOF 8
ENDMDL
MODEL 5
REMARK VINA RESULT:      -6.9      2.529      6.939
REMARK  Name = *****
REMARK                            x       y       z     vdW  Elec       q    Type
REMARK                         _______ _______ _______ _____ _____    ______ ____
ROOT
ATOM      1  C   LIG    1       23.114 -20.850   5.476  0.00  0.00    +0.195 C 
ATOM      2  N   LIG    1       22.561 -22.047   5.888  0.00  0.00    -0.293 N 
ATOM      3  H   LIG    1       21.588 -22.241   5.715  0.00  0.00    +0.172 HD
ATOM      4  C   LIG    1       23.274 -23.074   6.487  0.00  0.00    +0.280 C 
ATOM      5  O   LIG    1       22.739 -24.148   6.788  0.00  0.00    -0.265 OA
ATOM      6  C   LIG    1       24.655 -22.723   6.710  0.00  0.00    +0.172 A 
ATOM      7  N   LIG    1       25.640 -23.365   7.414  0.00  0.00    -0.229 NA
ATOM      8  C   LIG    1       26.670 -22.544   7.370  0.00  0.00    +0.201 A 
ATOM      9  N   LIG    1       26.408 -21.420   6.625  0.00  0.00    -0.315 N 
ATOM     10  C   LIG    1       25.100 -21.502   6.230  0.00  0.00    +0.169 A 
ATOM     11  N   LIG    1       24.380 -20.551   5.590  0.00  0.00    -0.196 NA
ENDROOT
BRANCH   1  12
ATOM     12  N   LIG    1       22.250 -19.945   4.953  0.00  0.00    -0.329 N 
ATOM     13  H   LIG    1       21.889 -20.176   4.036  0.00  0.00    +0.145 HD
ATOM     14  H   LIG    1       21.498 -19.741   5.606  0.00  0.00    +0.145 HD
ENDBRANCH   1  12
BRANCH   9  15
ATOM     15  C   LIG    1       27.304 -20.294   6.442  0.00  0.00    +0.125 C 
BRANCH  15  16
ATOM     16  C   LIG    1       28.808 -20.633   6.451  0.00  0.00    +0.029 C 
BRANCH  16  17
ATOM     17  C   LIG    1       29.590 -20.091   7.672  0.00  0.00    +0.042 C 
BRANCH  17  18
ATOM     18  C   LIG    1       30.605 -19.001   7.262  0.00  0.00    +0.161 C 
BRANCH  18  19
ATOM     19  O   LIG    1       31.937 -19.479   7.142  0.00  0.00    -0.395 OA
ATOM     20  H   LIG    1       31.983 -19.993   6.310  0.00  0.00    +0.209 HD
ENDBRANCH  18  19
ENDBRANCH  17  18
BRANCH  17  21
ATOM     21  C   LIG    1       30.295 -21.219   8.440  0.00  0.00    +0.161 C 
BRANCH  21  22
ATOM     22  O   LIG    1       31.012 -20.687   9.550  0.00  0.00    -0.395 OA
ATOM     23  H   LIG    1       31.638 -20.027   9.200  0.00  0.00    +0.209 HD
ENDBRANCH  21  22
ENDBRANCH  17  21
ENDBRANCH  16  17
ENDBRANCH  15  16
ENDBRANCH   9  15
TORSDOF 8
ENDMDL
MODEL 6
REMARK VINA RESULT:      -6.8      2.656      6.425
REMARK  Name = *****
REMARK                            x       y       z     vdW  Elec       q    Type
REMARK                         _______ _______ _______ _____ _____    ______ ____
ROOT
ATOM      1  C   LIG    1       23.752 -22.420   6.217  0.00  0.00    +0.195 C 
ATOM      2  N   LIG    1       23.321 -21.696   5.123  0.00  0.00    -0.293 N 
ATOM      3  H   LIG    1       22.410 -21.871   4.728  0.00  0.00    +0.172 HD
ATOM      4  C   LIG    1       24.035 -20.664   4.534  0.00  0.00    +0.280 C 
ATOM      5  O   LIG    1       23.576 -20.013   3.588  0.00  0.00    -0.265 OA
ATOM      6  C   LIG    1       25.328 -20.477   5.145  0.00  0.00    +0.172 A 
ATOM      7  N   LIG    1       26.392 -19.701   4.768  0.00  0.00    -0.229 NA
ATOM      8  C   LIG    1       27.343 -19.998   5.630  0.00  0.00    +0.201 A 
ATOM      9  N   LIG    1       26.922 -20.898   6.580  0.00  0.00    -0.315 N 
ATOM     10  C   LIG    1       25.639 -21.246   6.254  0.00  0.00    +0.169 A 
ATOM     11  N   LIG    1       24.882 -22.205   6.837  0.00  0.00    -0.196 NA
ENDROOT
BRANCH   1  12
ATOM     12  N   LIG    1       22.938 -23.425   6.624  0.00  0.00    -0.329 N 
ATOM     13  H   LIG    1       23.200 -23.863   7.499  0.00  0.00    +0.145 HD
ATOM     14  H   LIG    1       21.968 -23.123   6.637  0.00  0.00    +0.145 HD
ENDBRANCH   1  12
BRANCH   9  15
ATOM     15  C   LIG    1       27.745 -21.479   7.623  0.00  0.00    +0.125 C 
BRANCH  15  16
ATOM     16  C   LIG    1       29.265 -21.440   7.371  0.00  0.00    +0.029 C 
BRANCH  16  17
ATOM     17  C   LIG    1       30.108 -20.912   8.556  0.00  0.00    +0.042 C 
BRANCH  17  18
ATOM     18  C   LIG    1       30.915 -19.653   8.167  0.00  0.00    +0.161 C 
BRANCH  18  19
ATOM     19  O   LIG    1       31.708 -19.822   7.001  0.00  0.00    -0.395 OA
ATOM     20  H   LIG    1       31.646 -20.766   6.748  0.00  0.00    +0.209 HD
ENDBRANCH  18  19
ENDBRANCH  17  18
BRANCH  17  21
ATOM     21  C   LIG    1       31.042 -21.996   9.116  0.00  0.00    +0.161 C 
BRANCH  21  22
ATOM     22  O   LIG    1       32.300 -21.429   9.470  0.00  0.00    -0.395 OA
ATOM     23  H   LIG    1       32.135 -20.508   9.743  0.00  0.00    +0.209 HD
ENDBRANCH  21  22
ENDBRANCH  17  21
ENDBRANCH  16  17
ENDBRANCH  15  16
ENDBRANCH   9  15
TORSDOF 8
ENDMDL
MODEL 7
REMARK VINA RESULT:      -6.6      2.843      6.622
REMARK  Name = *****
REMARK                            x       y       z     vdW  Elec       q    Type
REMARK                         _______ _______ _______ _____ _____    ______ ____
ROOT
ATOM      1  C   LIG    1       26.731 -21.804   7.365  0.00  0.00    +0.195 C 
ATOM      2  N   LIG    1       26.137 -21.387   6.191  0.00  0.00    -0.293 N 
ATOM      3  H   LIG    1       25.282 -21.819   5.875  0.00  0.00    +0.172 HD
ATOM      4  C   LIG    1       26.597 -20.340   5.408  0.00  0.00    +0.280 C 
ATOM      5  O   LIG    1       25.994 -19.973   4.391  0.00  0.00    -0.265 OA
ATOM      6  C   LIG    1       27.824 -19.777   5.915  0.00  0.00    +0.172 A 
ATOM      7  N   LIG    1       28.685 -18.864   5.365  0.00  0.00    -0.229 NA
ATOM      8  C   LIG    1       29.689 -18.799   6.216  0.00  0.00    +0.201 A 
ATOM      9  N   LIG    1       29.489 -19.594   7.318  0.00  0.00    -0.315 N 
ATOM     10  C   LIG    1       28.312 -20.262   7.118  0.00  0.00    +0.169 A 
ATOM     11  N   LIG    1       27.792 -21.248   7.885  0.00  0.00    -0.196 NA
ENDROOT
BRANCH   1  12
ATOM     12  N   LIG    1       26.165 -22.878   7.970  0.00  0.00    -0.329 N 
ATOM     13  H   LIG    1       25.811 -23.589   7.341  0.00  0.00    +0.145 HD
ATOM     14  H   LIG    1       26.792 -23.276   8.663  0.00  0.00    +0.145 HD
ENDBRANCH   1  12
BRANCH   9  15
ATOM     15  C   LIG    1       30.434 -19.799   8.400  0.00  0.00    +0.125 C 
BRANCH  15  16
ATOM     16  C   LIG    1       31.602 -18.795   8.463  0.00  0.00    +0.029 C 
BRANCH  16  17
ATOM     17  C   LIG    1       31.271 -17.455   9.163  0.00  0.00    +0.042 C 
BRANCH  17  18
ATOM     18  C   LIG    1       32.547 -16.742   9.664  0.00  0.00    +0.161 C 
BRANCH  18  19
ATOM     19  O   LIG    1       32.850 -15.550   8.954  0.00  0.00    -0.395 OA
ATOM     20  H   LIG    1       32.471 -14.807   9.467  0.00  0.00    +0.209 HD
ENDBRANCH  18  19
ENDBRANCH  17  18
BRANCH  17  21
ATOM     21  C   LIG    1       30.276 -17.648  10.317  0.00  0.00    +0.161 C 
BRANCH  21  22
ATOM     22  O   LIG    1       30.238 -16.482  11.136  0.00  0.00    -0.395 OA
ATOM     23  H   LIG    1       30.825 -16.645  11.896  0.00  0.00    +0.209 HD
ENDBRANCH  21  22
ENDBRANCH  17  21
ENDBRANCH  16  17
ENDBRANCH  15  16
ENDBRANCH   9  15
TORSDOF 8
ENDMDL
MODEL 8
REMARK VINA RESULT:      -6.6      1.568      2.889
REMARK  Name = *****
REMARK                            x       y       z     vdW  Elec       q    Type
REMARK                         _______ _______ _______ _____ _____    ______ ____
ROOT
ATOM      1  C   LIG    1       29.352 -18.789   5.714  0.00  0.00    +0.195 C 
ATOM      2  N   LIG    1       30.418 -19.189   6.496  0.00  0.00    -0.293 N 
ATOM      3  H   LIG    1       31.331 -18.789   6.349  0.00  0.00    +0.172 HD
ATOM      4  C   LIG    1       30.324 -20.082   7.551  0.00  0.00    +0.280 C 
ATOM      5  O   LIG    1       31.303 -20.365   8.253  0.00  0.00    -0.265 OA
ATOM      6  C   LIG    1       28.993 -20.618   7.697  0.00  0.00    +0.172 A 
ATOM      7  N   LIG    1       28.518 -21.635   8.483  0.00  0.00    -0.229 NA
ATOM      8  C   LIG    1       27.254 -21.762   8.135  0.00  0.00    +0.201 A 
ATOM      9  N   LIG    1       26.878 -20.836   7.192  0.00  0.00    -0.315 N 
ATOM     10  C   LIG    1       27.999 -20.121   6.870  0.00  0.00    +0.169 A 
ATOM     11  N   LIG    1       28.123 -19.197   5.889  0.00  0.00    -0.196 NA
ENDROOT
BRANCH   1  12
ATOM     12  N   LIG    1       29.645 -17.943   4.696  0.00  0.00    -0.329 N 
ATOM     13  H   LIG    1       28.939 -17.880   3.972  0.00  0.00    +0.145 HD
ATOM     14  H   LIG    1       29.896 -17.024   5.049  0.00  0.00    +0.145 HD
ENDBRANCH   1  12
BRANCH   9  15
ATOM     15  C   LIG    1       25.579 -20.756   6.551  0.00  0.00    +0.125 C 
BRANCH  15  16
ATOM     16  C   LIG    1       24.364 -20.902   7.488  0.00  0.00    +0.029 C 
BRANCH  16  17
ATOM     17  C   LIG    1       23.137 -21.604   6.859  0.00  0.00    +0.042 C 
BRANCH  17  18
ATOM     18  C   LIG    1       23.331 -23.135   6.782  0.00  0.00    +0.161 C 
BRANCH  18  19
ATOM     19  O   LIG    1       22.117 -23.857   6.640  0.00  0.00    -0.395 OA
ATOM     20  H   LIG    1       21.639 -23.466   5.879  0.00  0.00    +0.209 HD
ENDBRANCH  18  19
ENDBRANCH  17  18
BRANCH  17  21
ATOM     21  C   LIG    1       22.808 -21.035   5.471  0.00  0.00    +0.161 C 
BRANCH  21  22
ATOM     22  O   LIG    1       21.627 -21.644   4.954  0.00  0.00    -0.395 OA
ATOM     23  H   LIG    1       21.823 -21.921   4.041  0.00  0.00    +0.209 HD
ENDBRANCH  21  22
ENDBRANCH  17  21
ENDBRANCH  16  17
ENDBRANCH  15  16
ENDBRANCH   9  15
TORSDOF 8
ENDMDL
MODEL 9
REMARK VINA RESULT:      -6.4      3.270      5.099
REMARK  Name = *****
REMARK                            x       y       z     vdW  Elec       q    Type
REMARK                         _______ _______ _______ _____ _____    ______ ____
ROOT
ATOM      1  C   LIG    1       24.932 -20.730   4.263  0.00  0.00    +0.195 C 
ATOM      2  N   LIG    1       26.068 -20.060   4.672  0.00  0.00    -0.293 N 
ATOM      3  H   LIG    1       26.385 -19.247   4.169  0.00  0.00    +0.172 HD
ATOM      4  C   LIG    1       26.806 -20.385   5.800  0.00  0.00    +0.280 C 
ATOM      5  O   LIG    1       27.786 -19.718   6.151  0.00  0.00    -0.265 OA
ATOM      6  C   LIG    1       26.299 -21.562   6.464  0.00  0.00    +0.172 A 
ATOM      7  N   LIG    1       26.821 -22.306   7.489  0.00  0.00    -0.229 NA
ATOM      8  C   LIG    1       25.992 -23.322   7.618  0.00  0.00    +0.201 A 
ATOM      9  N   LIG    1       24.928 -23.239   6.752  0.00  0.00    -0.315 N 
ATOM     10  C   LIG    1       25.136 -22.133   5.974  0.00  0.00    +0.169 A 
ATOM     11  N   LIG    1       24.409 -21.742   4.901  0.00  0.00    -0.196 NA
ENDROOT
BRANCH   1  12
ATOM     12  N   LIG    1       24.371 -20.296   3.106  0.00  0.00    -0.329 N 
ATOM     13  H   LIG    1       25.026 -19.973   2.405  0.00  0.00    +0.145 HD
ATOM     14  H   LIG    1       23.738 -20.995   2.727  0.00  0.00    +0.145 HD
ENDBRANCH   1  12
BRANCH   9  15
ATOM     15  C   LIG    1       23.882 -24.232   6.594  0.00  0.00    +0.125 C 
BRANCH  15  16
ATOM     16  C   LIG    1       24.244 -25.448   5.720  0.00  0.00    +0.029 C 
BRANCH  16  17
ATOM     17  C   LIG    1       25.059 -26.548   6.440  0.00  0.00    +0.042 C 
BRANCH  17  18
ATOM     18  C   LIG    1       26.560 -26.474   6.083  0.00  0.00    +0.161 C 
BRANCH  18  19
ATOM     19  O   LIG    1       26.890 -27.131   4.867  0.00  0.00    -0.395 OA
ATOM     20  H   LIG    1       27.822 -26.907   4.665  0.00  0.00    +0.209 HD
ENDBRANCH  18  19
ENDBRANCH  17  18
BRANCH  17  21
ATOM     21  C   LIG    1       24.506 -27.950   6.143  0.00  0.00    +0.161 C 
BRANCH  21  22
ATOM     22  O   LIG    1       25.454 -28.945   6.519  0.00  0.00    -0.395 OA
ATOM     23  H   LIG    1       26.307 -28.696   6.119  0.00  0.00    +0.209 HD
ENDBRANCH  21  22
ENDBRANCH  17  21
ENDBRANCH  16  17
ENDBRANCH  15  16
ENDBRANCH   9  15
TORSDOF 8
ENDMDL
