MODEL 1
REMARK VINA RESULT:      -8.0      0.000      0.000
REMARK  Name = *****
REMARK                            x       y       z     vdW  Elec       q    Type
REMARK                         _______ _______ _______ _____ _____    ______ ____
ROOT
ATOM      1  N   LIG    1       24.885 -30.715   6.772  0.00  0.00    +0.251 N 
ATOM      2  C   LIG    1       23.889 -31.749   6.146  0.00  0.00    +0.162 C 
ATOM      3  C   LIG    1       24.550 -32.658   5.099  0.00  0.00    +0.210 C 
ATOM      4  O   LIG    1       25.659 -33.353   5.667  0.00  0.00    -0.369 OA
ATOM      5  C   LIG    1       26.676 -32.441   6.085  0.00  0.00    +0.210 C 
ATOM      6  C   LIG    1       26.170 -31.474   7.169  0.00  0.00    +0.162 C 
ENDROOT
BRANCH   1   7
ATOM      7  C   LIG    1       24.242 -30.055   8.066  0.00  0.00    +0.171 C 
BRANCH   7  11
ATOM      8  C   LIG    1       26.416 -30.158  11.880  0.00  0.00    +0.163 A 
ATOM      9  C   LIG    1       26.526 -29.031  11.027  0.00  0.00    +0.162 A 
ATOM     10  C   LIG    1       25.784 -29.029   9.831  0.00  0.00    +0.059 A 
ATOM     11  C   LIG    1       24.981 -30.117   9.401  0.00  0.00    +0.015 A 
ATOM     12  C   LIG    1       24.859 -31.196  10.307  0.00  0.00    +0.030 A 
ATOM     13 BR   LIG    1       23.682 -32.661  10.030  0.00  0.00    -0.050 Br
ATOM     14  C   LIG    1       25.577 -31.208  11.501  0.00  0.00    +0.065 A 
BRANCH   8  16
ATOM     15  C   LIG    1       26.352 -30.536  14.227  0.00  0.00    +0.277 C 
ATOM     16  O   LIG    1       27.094 -30.424  13.027  0.00  0.00    -0.491 OA
ENDBRANCH   8  16
BRANCH   9  17
ATOM     17  O   LIG    1       27.333 -27.992  11.398  0.00  0.00    -0.491 OA
ATOM     18  C   LIG    1       26.825 -27.031  12.336  0.00  0.00    +0.277 C 
ENDBRANCH   9  17
ENDBRANCH   7  11
ENDBRANCH   1   7
BRANCH   1  19
ATOM     19  C   LIG    1       25.105 -29.616   5.672  0.00  0.00    +0.162 C 
BRANCH  19  20
ATOM     20  C   LIG    1       24.230 -28.346   5.695  0.00  0.00    +0.210 C 
BRANCH  20  21
ATOM     21  O   LIG    1       24.949 -27.160   6.049  0.00  0.00    -0.374 OA
BRANCH  21  22
ATOM     22  C   LIG    1       24.370 -26.000   5.404  0.00  0.00    +0.160 C 
BRANCH  22  23
ATOM     23  C   LIG    1       23.985 -24.950   6.454  0.00  0.00    +0.032 C 
BRANCH  23  24
ATOM     24  C   LIG    1       24.546 -23.516   6.265  0.00  0.00    -0.005 C 
ATOM     25  C   LIG    1       23.444 -22.438   6.256  0.00  0.00    -0.002 C 
ATOM     26  C   LIG    1       23.951 -20.979   5.835  0.00  0.00    -0.029 C 
ATOM     27  C   LIG    1       24.421 -20.914   7.342  0.00  0.00    -0.005 C 
ATOM     28  C   LIG    1       25.741 -21.644   7.630  0.00  0.00    +0.004 C 
ATOM     29  C   LIG    1       22.816 -20.022   5.418  0.00  0.00    +0.011 C 
ATOM     30  C   LIG    1       25.080 -20.807   4.810  0.00  0.00    +0.011 C 
ATOM     31  C   LIG    1       23.202 -21.821   7.673  0.00  0.00    +0.008 C 
ATOM     32  C   LIG    1       25.642 -23.145   7.293  0.00  0.00    +0.004 C 
ENDBRANCH  23  24
ENDBRANCH  22  23
ENDBRANCH  21  22
ENDBRANCH  20  21
ENDBRANCH  19  20
ENDBRANCH   1  19
TORSDOF 10
ENDMDL
MODEL 2
REMARK VINA RESULT:      -7.9      2.261      2.784
REMARK  Name = *****
REMARK                            x       y       z     vdW  Elec       q    Type
REMARK                         _______ _______ _______ _____ _____    ______ ____
ROOT
ATOM      1  N   LIG    1       24.897 -30.803   6.650  0.00  0.00    +0.251 N 
ATOM      2  C   LIG    1       23.943 -32.010   6.948  0.00  0.00    +0.162 C 
ATOM      3  C   LIG    1       23.515 -32.760   5.677  0.00  0.00    +0.210 C 
ATOM      4  O   LIG    1       24.658 -33.225   4.960  0.00  0.00    -0.369 OA
ATOM      5  C   LIG    1       25.461 -32.133   4.513  0.00  0.00    +0.210 C 
ATOM      6  C   LIG    1       25.998 -31.295   5.685  0.00  0.00    +0.162 C 
ENDROOT
BRANCH   1   7
ATOM      7  C   LIG    1       25.567 -30.295   7.999  0.00  0.00    +0.171 C 
BRANCH   7  11
ATOM      8  C   LIG    1       23.037 -29.798  11.554  0.00  0.00    +0.163 A 
ATOM      9  C   LIG    1       22.491 -30.328  10.359  0.00  0.00    +0.162 A 
ATOM     10  C   LIG    1       23.348 -30.502   9.256  0.00  0.00    +0.059 A 
ATOM     11  C   LIG    1       24.714 -30.117   9.253  0.00  0.00    +0.015 A 
ATOM     12  C   LIG    1       25.228 -29.642  10.482  0.00  0.00    +0.030 A 
ATOM     13 BR   LIG    1       27.068 -29.262  10.763  0.00  0.00    -0.050 Br
ATOM     14  C   LIG    1       24.397 -29.477  11.587  0.00  0.00    +0.065 A 
BRANCH   8  16
ATOM     15  C   LIG    1       21.664 -28.253  12.730  0.00  0.00    +0.277 C 
ATOM     16  O   LIG    1       22.398 -29.463  12.705  0.00  0.00    -0.491 OA
ENDBRANCH   8  16
BRANCH   9  17
ATOM     17  O   LIG    1       21.164 -30.660  10.324  0.00  0.00    -0.491 OA
ATOM     18  C   LIG    1       20.808 -32.049  10.252  0.00  0.00    +0.277 C 
ENDBRANCH   9  17
ENDBRANCH   7  11
ENDBRANCH   1   7
BRANCH   1  19
ATOM     19  C   LIG    1       23.983 -29.674   6.056  0.00  0.00    +0.162 C 
BRANCH  19  20
ATOM     20  C   LIG    1       24.632 -28.358   5.579  0.00  0.00    +0.210 C 
BRANCH  20  21
ATOM     21  O   LIG    1       24.309 -27.229   6.398  0.00  0.00    -0.374 OA
BRANCH  21  22
ATOM     22  C   LIG    1       24.338 -26.008   5.619  0.00  0.00    +0.160 C 
BRANCH  22  23
ATOM     23  C   LIG    1       23.789 -24.841   6.448  0.00  0.00    +0.032 C 
BRANCH  23  24
ATOM     24  C   LIG    1       24.397 -23.436   6.190  0.00  0.00    -0.005 C 
ATOM     25  C   LIG    1       23.353 -22.306   6.276  0.00  0.00    -0.002 C 
ATOM     26  C   LIG    1       23.887 -20.876   5.794  0.00  0.00    -0.029 C 
ATOM     27  C   LIG    1       24.504 -20.826   7.247  0.00  0.00    -0.005 C 
ATOM     28  C   LIG    1       25.809 -21.618   7.414  0.00  0.00    +0.004 C 
ATOM     29  C   LIG    1       22.765 -19.866   5.479  0.00  0.00    +0.011 C 
ATOM     30  C   LIG    1       24.918 -20.766   4.662  0.00  0.00    +0.011 C 
ATOM     31  C   LIG    1       23.280 -21.670   7.703  0.00  0.00    +0.008 C 
ATOM     32  C   LIG    1       25.604 -23.115   7.104  0.00  0.00    +0.004 C 
ENDBRANCH  23  24
ENDBRANCH  22  23
ENDBRANCH  21  22
ENDBRANCH  20  21
ENDBRANCH  19  20
ENDBRANCH   1  19
TORSDOF 10
ENDMDL
MODEL 3
REMARK VINA RESULT:      -7.6      1.723      2.382
REMARK  Name = *****
REMARK                            x       y       z     vdW  Elec       q    Type
REMARK                         _______ _______ _______ _____ _____    ______ ____
ROOT
ATOM      1  N   LIG    1       24.830 -30.466   6.707  0.00  0.00    +0.251 N 
ATOM      2  C   LIG    1       23.839 -31.564   6.191  0.00  0.00    +0.162 C 
ATOM      3  C   LIG    1       24.511 -32.587   5.263  0.00  0.00    +0.210 C 
ATOM      4  O   LIG    1       25.611 -33.213   5.920  0.00  0.00    -0.369 OA
ATOM      5  C   LIG    1       26.624 -32.260   6.244  0.00  0.00    +0.210 C 
ATOM      6  C   LIG    1       26.108 -31.176   7.205  0.00  0.00    +0.162 C 
ENDROOT
BRANCH   1   7
ATOM      7  C   LIG    1       24.172 -29.662   7.909  0.00  0.00    +0.171 C 
BRANCH   7  11
ATOM      8  C   LIG    1       24.376 -31.265  11.993  0.00  0.00    +0.163 A 
ATOM      9  C   LIG    1       23.421 -31.770  11.076  0.00  0.00    +0.162 A 
ATOM     10  C   LIG    1       23.415 -31.250   9.768  0.00  0.00    +0.059 A 
ATOM     11  C   LIG    1       24.271 -30.204   9.334  0.00  0.00    +0.015 A 
ATOM     12  C   LIG    1       25.242 -29.768  10.265  0.00  0.00    +0.030 A 
ATOM     13 BR   LIG    1       26.615 -28.528   9.836  0.00  0.00    -0.050 Br
ATOM     14  C   LIG    1       25.269 -30.282  11.560  0.00  0.00    +0.065 A 
BRANCH   8  16
ATOM     15  C   LIG    1       25.825 -31.652  13.839  0.00  0.00    +0.277 C 
ATOM     16  O   LIG    1       24.514 -31.545  13.315  0.00  0.00    -0.491 OA
ENDBRANCH   8  16
BRANCH   9  17
ATOM     17  O   LIG    1       22.553 -32.744  11.488  0.00  0.00    -0.491 OA
ATOM     18  C   LIG    1       21.266 -32.347  11.986  0.00  0.00    +0.277 C 
ENDBRANCH   9  17
ENDBRANCH   7  11
ENDBRANCH   1   7
BRANCH   1  19
ATOM     19  C   LIG    1       25.066 -29.500   5.492  0.00  0.00    +0.162 C 
BRANCH  19  20
ATOM     20  C   LIG    1       25.420 -28.023   5.766  0.00  0.00    +0.210 C 
BRANCH  20  21
ATOM     21  O   LIG    1       24.389 -27.106   5.386  0.00  0.00    -0.374 OA
BRANCH  21  22
ATOM     22  C   LIG    1       24.935 -25.779   5.185  0.00  0.00    +0.160 C 
BRANCH  22  23
ATOM     23  C   LIG    1       24.718 -24.924   6.439  0.00  0.00    +0.032 C 
BRANCH  23  24
ATOM     24  C   LIG    1       25.020 -23.406   6.326  0.00  0.00    -0.005 C 
ATOM     25  C   LIG    1       23.746 -22.551   6.175  0.00  0.00    -0.002 C 
ATOM     26  C   LIG    1       24.021 -21.013   5.826  0.00  0.00    -0.029 C 
ATOM     27  C   LIG    1       24.274 -20.902   7.382  0.00  0.00    -0.005 C 
ATOM     28  C   LIG    1       25.660 -21.381   7.838  0.00  0.00    +0.004 C 
ATOM     29  C   LIG    1       22.789 -20.273   5.267  0.00  0.00    +0.011 C 
ATOM     30  C   LIG    1       25.218 -20.609   4.956  0.00  0.00    +0.011 C 
ATOM     31  C   LIG    1       23.215 -22.027   7.550  0.00  0.00    +0.008 C 
ATOM     32  C   LIG    1       25.887 -22.865   7.488  0.00  0.00    +0.004 C 
ENDBRANCH  23  24
ENDBRANCH  22  23
ENDBRANCH  21  22
ENDBRANCH  20  21
ENDBRANCH  19  20
ENDBRANCH   1  19
TORSDOF 10
ENDMDL
MODEL 4
REMARK VINA RESULT:      -7.6      2.357      3.146
REMARK  Name = *****
REMARK                            x       y       z     vdW  Elec       q    Type
REMARK                         _______ _______ _______ _____ _____    ______ ____
ROOT
ATOM      1  N   LIG    1       24.972 -31.065   7.651  0.00  0.00    +0.251 N 
ATOM      2  C   LIG    1       23.812 -32.083   7.381  0.00  0.00    +0.162 C 
ATOM      3  C   LIG    1       23.510 -32.260   5.885  0.00  0.00    +0.210 C 
ATOM      4  O   LIG    1       24.680 -32.678   5.183  0.00  0.00    -0.369 OA
ATOM      5  C   LIG    1       25.703 -31.684   5.256  0.00  0.00    +0.210 C 
ATOM      6  C   LIG    1       26.141 -31.416   6.705  0.00  0.00    +0.162 C 
ENDROOT
BRANCH   1   7
ATOM      7  C   LIG    1       25.460 -31.186   9.159  0.00  0.00    +0.171 C 
BRANCH   7  11
ATOM      8  C   LIG    1       23.154 -29.201  12.325  0.00  0.00    +0.163 A 
ATOM      9  C   LIG    1       22.593 -30.287  11.609  0.00  0.00    +0.162 A 
ATOM     10  C   LIG    1       23.382 -30.914  10.627  0.00  0.00    +0.059 A 
ATOM     11  C   LIG    1       24.686 -30.480  10.270  0.00  0.00    +0.015 A 
ATOM     12  C   LIG    1       25.224 -29.428  11.046  0.00  0.00    +0.030 A 
ATOM     13 BR   LIG    1       27.017 -28.823  10.879  0.00  0.00    -0.050 Br
ATOM     14  C   LIG    1       24.461 -28.805  12.030  0.00  0.00    +0.065 A 
BRANCH   8  16
ATOM     15  C   LIG    1       22.807 -27.002  13.162  0.00  0.00    +0.277 C 
ATOM     16  O   LIG    1       22.563 -28.394  13.245  0.00  0.00    -0.491 OA
ENDBRANCH   8  16
BRANCH   9  17
ATOM     17  O   LIG    1       21.319 -30.691  11.903  0.00  0.00    -0.491 OA
ATOM     18  C   LIG    1       20.343 -30.696  10.851  0.00  0.00    +0.277 C 
ENDBRANCH   9  17
ENDBRANCH   7  11
ENDBRANCH   1   7
BRANCH   1  19
ATOM     19  C   LIG    1       24.356 -29.642   7.408  0.00  0.00    +0.162 C 
BRANCH  19  20
ATOM     20  C   LIG    1       25.302 -28.448   7.160  0.00  0.00    +0.210 C 
BRANCH  20  21
ATOM     21  O   LIG    1       25.053 -27.766   5.926  0.00  0.00    -0.374 OA
BRANCH  21  22
ATOM     22  C   LIG    1       24.260 -26.575   6.152  0.00  0.00    +0.160 C 
BRANCH  22  23
ATOM     23  C   LIG    1       25.068 -25.326   5.780  0.00  0.00    +0.032 C 
BRANCH  23  24
ATOM     24  C   LIG    1       24.833 -24.047   6.629  0.00  0.00    -0.005 C 
ATOM     25  C   LIG    1       25.565 -22.813   6.067  0.00  0.00    -0.002 C 
ATOM     26  C   LIG    1       25.538 -21.535   7.031  0.00  0.00    -0.029 C 
ATOM     27  C   LIG    1       24.097 -21.335   6.414  0.00  0.00    -0.005 C 
ATOM     28  C   LIG    1       23.011 -22.227   7.031  0.00  0.00    +0.004 C 
ATOM     29  C   LIG    1       26.598 -20.470   6.682  0.00  0.00    +0.011 C 
ATOM     30  C   LIG    1       25.559 -21.703   8.556  0.00  0.00    +0.011 C 
ATOM     31  C   LIG    1       24.660 -21.968   5.111  0.00  0.00    +0.008 C 
ATOM     32  C   LIG    1       23.335 -23.723   6.846  0.00  0.00    +0.004 C 
ENDBRANCH  23  24
ENDBRANCH  22  23
ENDBRANCH  21  22
ENDBRANCH  20  21
ENDBRANCH  19  20
ENDBRANCH   1  19
TORSDOF 10
ENDMDL
MODEL 5
REMARK VINA RESULT:      -7.3      2.304      2.696
REMARK  Name = *****
REMARK                            x       y       z     vdW  Elec       q    Type
REMARK                         _______ _______ _______ _____ _____    ______ ____
ROOT
ATOM      1  N   LIG    1       25.008 -30.848   7.809  0.00  0.00    +0.251 N 
ATOM      2  C   LIG    1       23.857 -31.880   7.553  0.00  0.00    +0.162 C 
ATOM      3  C   LIG    1       23.551 -32.076   6.061  0.00  0.00    +0.210 C 
ATOM      4  O   LIG    1       24.722 -32.488   5.358  0.00  0.00    -0.369 OA
ATOM      5  C   LIG    1       25.735 -31.484   5.417  0.00  0.00    +0.210 C 
ATOM      6  C   LIG    1       26.177 -31.196   6.862  0.00  0.00    +0.162 C 
ENDROOT
BRANCH   1   7
ATOM      7  C   LIG    1       25.502 -30.949   9.316  0.00  0.00    +0.171 C 
BRANCH   7  11
ATOM      8  C   LIG    1       23.336 -28.737  12.431  0.00  0.00    +0.163 A 
ATOM      9  C   LIG    1       22.677 -29.743  11.682  0.00  0.00    +0.162 A 
ATOM     10  C   LIG    1       23.421 -30.449  10.718  0.00  0.00    +0.059 A 
ATOM     11  C   LIG    1       24.778 -30.167  10.410  0.00  0.00    +0.015 A 
ATOM     12  C   LIG    1       25.408 -29.193  11.217  0.00  0.00    +0.030 A 
ATOM     13 BR   LIG    1       27.264 -28.801  11.118  0.00  0.00    -0.050 Br
ATOM     14  C   LIG    1       24.690 -28.495  12.185  0.00  0.00    +0.065 A 
BRANCH   8  16
ATOM     15  C   LIG    1       22.938 -28.198  14.713  0.00  0.00    +0.277 C 
ATOM     16  O   LIG    1       22.812 -27.875  13.341  0.00  0.00    -0.491 OA
ENDBRANCH   8  16
BRANCH   9  17
ATOM     17  O   LIG    1       21.356 -29.998  11.928  0.00  0.00    -0.491 OA
ATOM     18  C   LIG    1       21.021 -30.966  12.933  0.00  0.00    +0.277 C 
ENDBRANCH   9  17
ENDBRANCH   7  11
ENDBRANCH   1   7
BRANCH   1  19
ATOM     19  C   LIG    1       24.376 -29.434   7.554  0.00  0.00    +0.162 C 
BRANCH  19  20
ATOM     20  C   LIG    1       25.044 -28.488   6.534  0.00  0.00    +0.210 C 
BRANCH  20  21
ATOM     21  O   LIG    1       25.245 -27.160   7.030  0.00  0.00    -0.374 OA
BRANCH  21  22
ATOM     22  C   LIG    1       25.095 -26.189   5.966  0.00  0.00    +0.160 C 
BRANCH  22  23
ATOM     23  C   LIG    1       24.152 -25.063   6.408  0.00  0.00    +0.032 C 
BRANCH  23  24
ATOM     24  C   LIG    1       24.660 -23.605   6.244  0.00  0.00    -0.005 C 
ATOM     25  C   LIG    1       23.516 -22.572   6.227  0.00  0.00    -0.002 C 
ATOM     26  C   LIG    1       23.973 -21.089   5.832  0.00  0.00    -0.029 C 
ATOM     27  C   LIG    1       24.412 -21.024   7.348  0.00  0.00    -0.005 C 
ATOM     28  C   LIG    1       25.755 -21.704   7.652  0.00  0.00    +0.004 C 
ATOM     29  C   LIG    1       22.809 -20.172   5.405  0.00  0.00    +0.011 C 
ATOM     30  C   LIG    1       25.112 -20.861   4.829  0.00  0.00    +0.011 C 
ATOM     31  C   LIG    1       23.225 -21.982   7.646  0.00  0.00    +0.008 C 
ATOM     32  C   LIG    1       25.721 -23.204   7.297  0.00  0.00    +0.004 C 
ENDBRANCH  23  24
ENDBRANCH  22  23
ENDBRANCH  21  22
ENDBRANCH  20  21
ENDBRANCH  19  20
ENDBRANCH   1  19
TORSDOF 10
ENDMDL
MODEL 6
REMARK VINA RESULT:      -7.3      5.428      9.829
REMARK  Name = *****
REMARK                            x       y       z     vdW  Elec       q    Type
REMARK                         _______ _______ _______ _____ _____    ______ ____
ROOT
ATOM      1  N   LIG    1       26.707 -21.148   6.690  0.00  0.00    +0.251 N 
ATOM      2  C   LIG    1       26.497 -20.151   7.880  0.00  0.00    +0.162 C 
ATOM      3  C   LIG    1       25.458 -20.646   8.897  0.00  0.00    +0.210 C 
ATOM      4  O   LIG    1       25.827 -21.924   9.410  0.00  0.00    -0.369 OA
ATOM      5  C   LIG    1       25.850 -22.905   8.373  0.00  0.00    +0.210 C 
ATOM      6  C   LIG    1       26.879 -22.564   7.281  0.00  0.00    +0.162 C 
ENDROOT
BRANCH   1   7
ATOM      7  C   LIG    1       28.014 -20.755   5.876  0.00  0.00    +0.171 C 
BRANCH   7  11
ATOM      8  C   LIG    1       31.430 -19.014   8.016  0.00  0.00    +0.163 A 
ATOM      9  C   LIG    1       31.031 -20.348   8.276  0.00  0.00    +0.162 A 
ATOM     10  C   LIG    1       29.952 -20.874   7.541  0.00  0.00    +0.059 A 
ATOM     11  C   LIG    1       29.202 -20.124   6.599  0.00  0.00    +0.015 A 
ATOM     12  C   LIG    1       29.668 -18.816   6.333  0.00  0.00    +0.030 A 
ATOM     13 BR   LIG    1       28.945 -17.709   4.970  0.00  0.00    -0.050 Br
ATOM     14  C   LIG    1       30.743 -18.284   7.042  0.00  0.00    +0.065 A 
BRANCH   8  16
ATOM     15  C   LIG    1       31.973 -17.042   9.230  0.00  0.00    +0.277 C 
ATOM     16  O   LIG    1       32.373 -18.270   8.651  0.00  0.00    -0.491 OA
ENDBRANCH   8  16
BRANCH   9  17
ATOM     17  O   LIG    1       31.709 -21.074   9.216  0.00  0.00    -0.491 OA
ATOM     18  C   LIG    1       31.152 -22.325   9.647  0.00  0.00    +0.277 C 
ENDBRANCH   9  17
ENDBRANCH   7  11
ENDBRANCH   1   7
BRANCH   1  19
ATOM     19  C   LIG    1       25.444 -20.987   5.771  0.00  0.00    +0.162 C 
BRANCH  19  20
ATOM     20  C   LIG    1       24.645 -22.244   5.367  0.00  0.00    +0.210 C 
BRANCH  20  21
ATOM     21  O   LIG    1       23.395 -22.373   6.051  0.00  0.00    -0.374 OA
BRANCH  21  22
ATOM     22  C   LIG    1       23.345 -23.616   6.793  0.00  0.00    +0.160 C 
BRANCH  22  23
ATOM     23  C   LIG    1       23.597 -24.801   5.853  0.00  0.00    +0.032 C 
BRANCH  23  24
ATOM     24  C   LIG    1       24.693 -25.819   6.269  0.00  0.00    -0.005 C 
ATOM     25  C   LIG    1       24.163 -27.263   6.369  0.00  0.00    -0.002 C 
ATOM     26  C   LIG    1       25.197 -28.302   7.013  0.00  0.00    -0.029 C 
ATOM     27  C   LIG    1       25.808 -28.307   5.556  0.00  0.00    -0.005 C 
ATOM     28  C   LIG    1       26.712 -27.107   5.240  0.00  0.00    +0.004 C 
ATOM     29  C   LIG    1       24.542 -29.611   7.498  0.00  0.00    +0.011 C 
ATOM     30  C   LIG    1       26.173 -27.857   8.110  0.00  0.00    +0.011 C 
ATOM     31  C   LIG    1       24.362 -28.063   5.040  0.00  0.00    +0.008 C 
ATOM     32  C   LIG    1       25.946 -25.775   5.361  0.00  0.00    +0.004 C 
ENDBRANCH  23  24
ENDBRANCH  22  23
ENDBRANCH  21  22
ENDBRANCH  20  21
ENDBRANCH  19  20
ENDBRANCH   1  19
TORSDOF 10
ENDMDL
MODEL 7
REMARK VINA RESULT:      -6.9      1.749      2.300
REMARK  Name = *****
REMARK                            x       y       z     vdW  Elec       q    Type
REMARK                         _______ _______ _______ _____ _____    ______ ____
ROOT
ATOM      1  N   LIG    1       24.289 -31.230   7.620  0.00  0.00    +0.251 N 
ATOM      2  C   LIG    1       23.773 -32.146   6.458  0.00  0.00    +0.162 C 
ATOM      3  C   LIG    1       24.743 -32.207   5.269  0.00  0.00    +0.210 C 
ATOM      4  O   LIG    1       26.029 -32.658   5.693  0.00  0.00    -0.369 OA
ATOM      5  C   LIG    1       26.612 -31.744   6.622  0.00  0.00    +0.210 C 
ATOM      6  C   LIG    1       25.762 -31.599   7.896  0.00  0.00    +0.162 C 
ENDROOT
BRANCH   1   7
ATOM      7  C   LIG    1       23.428 -31.479   8.932  0.00  0.00    +0.171 C 
BRANCH   7  11
ATOM      8  C   LIG    1       24.118 -28.946  12.451  0.00  0.00    +0.163 A 
ATOM      9  C   LIG    1       25.198 -29.300  11.606  0.00  0.00    +0.162 A 
ATOM     10  C   LIG    1       24.923 -30.086  10.471  0.00  0.00    +0.059 A 
ATOM     11  C   LIG    1       23.635 -30.595  10.159  0.00  0.00    +0.015 A 
ATOM     12  C   LIG    1       22.580 -30.172  11.000  0.00  0.00    +0.030 A 
ATOM     13 BR   LIG    1       20.754 -30.563  10.656  0.00  0.00    -0.050 Br
ATOM     14  C   LIG    1       22.833 -29.384  12.120  0.00  0.00    +0.065 A 
BRANCH   8  16
ATOM     15  C   LIG    1       23.711 -26.934  13.653  0.00  0.00    +0.277 C 
ATOM     16  O   LIG    1       24.149 -28.279  13.635  0.00  0.00    -0.491 OA
ENDBRANCH   8  16
BRANCH   9  17
ATOM     17  O   LIG    1       26.457 -28.862  11.914  0.00  0.00    -0.491 OA
ATOM     18  C   LIG    1       26.934 -27.659  11.293  0.00  0.00    +0.277 C 
ENDBRANCH   9  17
ENDBRANCH   7  11
ENDBRANCH   1   7
BRANCH   1  19
ATOM     19  C   LIG    1       24.080 -29.755   7.123  0.00  0.00    +0.162 C 
BRANCH  19  20
ATOM     20  C   LIG    1       25.252 -28.757   7.226  0.00  0.00    +0.210 C 
BRANCH  20  21
ATOM     21  O   LIG    1       25.275 -27.788   6.172  0.00  0.00    -0.374 OA
BRANCH  21  22
ATOM     22  C   LIG    1       25.538 -26.465   6.700  0.00  0.00    +0.160 C 
BRANCH  22  23
ATOM     23  C   LIG    1       24.494 -25.472   6.176  0.00  0.00    +0.032 C 
BRANCH  23  24
ATOM     24  C   LIG    1       24.458 -24.066   6.831  0.00  0.00    -0.005 C 
ATOM     25  C   LIG    1       25.427 -23.069   6.164  0.00  0.00    -0.002 C 
ATOM     26  C   LIG    1       25.590 -21.683   6.948  0.00  0.00    -0.029 C 
ATOM     27  C   LIG    1       24.239 -21.325   6.213  0.00  0.00    -0.005 C 
ATOM     28  C   LIG    1       22.982 -21.917   6.866  0.00  0.00    +0.004 C 
ATOM     29  C   LIG    1       26.840 -20.879   6.537  0.00  0.00    +0.011 C 
ATOM     30  C   LIG    1       25.513 -21.635   8.480  0.00  0.00    +0.011 C 
ATOM     31  C   LIG    1       24.734 -22.224   5.046  0.00  0.00    +0.008 C 
ATOM     32  C   LIG    1       23.037 -23.458   6.901  0.00  0.00    +0.004 C 
ENDBRANCH  23  24
ENDBRANCH  22  23
ENDBRANCH  21  22
ENDBRANCH  20  21
ENDBRANCH  19  20
ENDBRANCH   1  19
TORSDOF 10
ENDMDL
MODEL 8
REMARK VINA RESULT:      -6.8      4.994     10.049
REMARK  Name = *****
REMARK                            x       y       z     vdW  Elec       q    Type
REMARK                         _______ _______ _______ _____ _____    ______ ____
ROOT
ATOM      1  N   LIG    1       25.863 -21.386   6.410  0.00  0.00    +0.251 N 
ATOM      2  C   LIG    1       24.613 -21.159   5.493  0.00  0.00    +0.162 C 
ATOM      3  C   LIG    1       23.283 -21.370   6.232  0.00  0.00    +0.210 C 
ATOM      4  O   LIG    1       23.199 -20.512   7.368  0.00  0.00    -0.369 OA
ATOM      5  C   LIG    1       24.222 -20.817   8.317  0.00  0.00    +0.210 C 
ATOM      6  C   LIG    1       25.629 -20.618   7.729  0.00  0.00    +0.162 C 
ENDROOT
BRANCH   1   7
ATOM      7  C   LIG    1       27.168 -20.825   5.698  0.00  0.00    +0.171 C 
BRANCH   7  11
ATOM      8  C   LIG    1       30.613 -19.682   8.169  0.00  0.00    +0.163 A 
ATOM      9  C   LIG    1       29.983 -20.937   8.362  0.00  0.00    +0.162 A 
ATOM     10  C   LIG    1       28.904 -21.274   7.523  0.00  0.00    +0.059 A 
ATOM     11  C   LIG    1       28.372 -20.402   6.537  0.00  0.00    +0.015 A 
ATOM     12  C   LIG    1       29.065 -19.185   6.345  0.00  0.00    +0.030 A 
ATOM     13 BR   LIG    1       28.654 -17.962   4.950  0.00  0.00    -0.050 Br
ATOM     14  C   LIG    1       30.143 -18.842   7.157  0.00  0.00    +0.065 A 
BRANCH   8  16
ATOM     15  C   LIG    1       31.882 -17.737   8.684  0.00  0.00    +0.277 C 
ATOM     16  O   LIG    1       31.603 -19.107   8.902  0.00  0.00    -0.491 OA
ENDBRANCH   8  16
BRANCH   9  17
ATOM     17  O   LIG    1       30.449 -21.772   9.340  0.00  0.00    -0.491 OA
ATOM     18  C   LIG    1       31.634 -22.539   9.078  0.00  0.00    +0.277 C 
ENDBRANCH   9  17
ENDBRANCH   7  11
ENDBRANCH   1   7
BRANCH   1  19
ATOM     19  C   LIG    1       25.984 -22.941   6.587  0.00  0.00    +0.162 C 
BRANCH  19  20
ATOM     20  C   LIG    1       25.138 -23.867   5.688  0.00  0.00    +0.210 C 
BRANCH  20  21
ATOM     21  O   LIG    1       25.540 -25.240   5.738  0.00  0.00    -0.374 OA
BRANCH  21  22
ATOM     22  C   LIG    1       24.436 -26.081   6.150  0.00  0.00    +0.160 C 
BRANCH  22  23
ATOM     23  C   LIG    1       24.818 -27.559   6.009  0.00  0.00    +0.032 C 
BRANCH  23  24
ATOM     24  C   LIG    1       24.743 -28.438   7.287  0.00  0.00    -0.005 C 
ATOM     25  C   LIG    1       24.466 -29.922   6.977  0.00  0.00    -0.002 C 
ATOM     26  C   LIG    1       24.153 -30.818   8.267  0.00  0.00    -0.029 C 
ATOM     27  C   LIG    1       25.727 -30.830   8.406  0.00  0.00    -0.005 C 
ATOM     28  C   LIG    1       26.321 -29.560   9.032  0.00  0.00    +0.004 C 
ATOM     29  C   LIG    1       23.473 -32.163   7.940  0.00  0.00    +0.011 C 
ATOM     30  C   LIG    1       23.413 -30.224   9.473  0.00  0.00    +0.011 C 
ATOM     31  C   LIG    1       25.780 -30.761   6.854  0.00  0.00    +0.008 C 
ATOM     32  C   LIG    1       25.991 -28.309   8.193  0.00  0.00    +0.004 C 
ENDBRANCH  23  24
ENDBRANCH  22  23
ENDBRANCH  21  22
ENDBRANCH  20  21
ENDBRANCH  19  20
ENDBRANCH   1  19
TORSDOF 10
ENDMDL
MODEL 9
REMARK VINA RESULT:      -6.7      5.024     10.086
REMARK  Name = *****
REMARK                            x       y       z     vdW  Elec       q    Type
REMARK                         _______ _______ _______ _____ _____    ______ ____
ROOT
ATOM      1  N   LIG    1       26.014 -21.416   6.590  0.00  0.00    +0.251 N 
ATOM      2  C   LIG    1       24.773 -21.518   5.639  0.00  0.00    +0.162 C 
ATOM      3  C   LIG    1       23.476 -21.869   6.383  0.00  0.00    +0.210 C 
ATOM      4  O   LIG    1       23.210 -20.912   7.407  0.00  0.00    -0.369 OA
ATOM      5  C   LIG    1       24.239 -20.922   8.397  0.00  0.00    +0.210 C 
ATOM      6  C   LIG    1       25.610 -20.552   7.805  0.00  0.00    +0.162 C 
ENDROOT
BRANCH   1   7
ATOM      7  C   LIG    1       27.226 -20.724   5.831  0.00  0.00    +0.171 C 
BRANCH   7  11
ATOM      8  C   LIG    1       30.823 -19.657   8.112  0.00  0.00    +0.163 A 
ATOM      9  C   LIG    1       30.149 -20.876   8.374  0.00  0.00    +0.162 A 
ATOM     10  C   LIG    1       29.020 -21.191   7.594  0.00  0.00    +0.059 A 
ATOM     11  C   LIG    1       28.483 -20.328   6.603  0.00  0.00    +0.015 A 
ATOM     12  C   LIG    1       29.218 -19.150   6.341  0.00  0.00    +0.030 A 
ATOM     13 BR   LIG    1       28.799 -17.955   4.925  0.00  0.00    -0.050 Br
ATOM     14  C   LIG    1       30.345 -18.829   7.094  0.00  0.00    +0.065 A 
BRANCH   8  16
ATOM     15  C   LIG    1       31.583 -18.148   9.787  0.00  0.00    +0.277 C 
ATOM     16  O   LIG    1       31.868 -19.104   8.782  0.00  0.00    -0.491 OA
ENDBRANCH   8  16
BRANCH   9  17
ATOM     17  O   LIG    1       30.621 -21.700   9.358  0.00  0.00    -0.491 OA
ATOM     18  C   LIG    1       31.700 -22.592   9.045  0.00  0.00    +0.277 C 
ENDBRANCH   9  17
ENDBRANCH   7  11
ENDBRANCH   1   7
BRANCH   1  19
ATOM     19  C   LIG    1       26.394 -22.895   6.955  0.00  0.00    +0.162 C 
BRANCH  19  20
ATOM     20  C   LIG    1       25.598 -24.053   6.315  0.00  0.00    +0.210 C 
BRANCH  20  21
ATOM     21  O   LIG    1       26.405 -25.186   5.978  0.00  0.00    -0.374 OA
BRANCH  21  22
ATOM     22  C   LIG    1       25.574 -26.333   5.678  0.00  0.00    +0.160 C 
BRANCH  22  23
ATOM     23  C   LIG    1       25.420 -27.213   6.924  0.00  0.00    +0.032 C 
BRANCH  23  24
ATOM     24  C   LIG    1       25.392 -28.750   6.711  0.00  0.00    -0.005 C 
ATOM     25  C   LIG    1       25.508 -29.540   8.030  0.00  0.00    -0.002 C 
ATOM     26  C   LIG    1       25.713 -31.116   7.839  0.00  0.00    -0.029 C 
ATOM     27  C   LIG    1       24.146 -31.104   7.634  0.00  0.00    -0.005 C 
ATOM     28  C   LIG    1       23.690 -30.667   6.234  0.00  0.00    +0.004 C 
ATOM     29  C   LIG    1       26.244 -31.832   9.097  0.00  0.00    +0.011 C 
ATOM     30  C   LIG    1       26.506 -31.664   6.645  0.00  0.00    +0.011 C 
ATOM     31  C   LIG    1       24.111 -29.909   8.627  0.00  0.00    +0.008 C 
ATOM     32  C   LIG    1       24.160 -29.235   5.909  0.00  0.00    +0.004 C 
ENDBRANCH  23  24
ENDBRANCH  22  23
ENDBRANCH  21  22
ENDBRANCH  20  21
ENDBRANCH  19  20
ENDBRANCH   1  19
TORSDOF 10
ENDMDL
