MODEL 1
REMARK VINA RESULT:      -5.4      0.000      0.000
REMARK  Name = *****
REMARK                            x       y       z     vdW  Elec       q    Type
REMARK                         _______ _______ _______ _____ _____    ______ ____
ROOT
ATOM      1  C   LIG    1       25.441 -20.271   4.902  0.00  0.00    -0.014 A 
ATOM      2  C   LIG    1       26.504 -19.456   4.472  0.00  0.00    +0.055 A 
ATOM      3  C   LIG    1       27.675 -19.400   5.212  0.00  0.00    +0.159 A 
ATOM      4  C   LIG    1       27.823 -20.155   6.370  0.00  0.00    +0.158 A 
ATOM      5  C   LIG    1       26.794 -20.979   6.808  0.00  0.00    +0.049 A 
ATOM      6  C   LIG    1       25.602 -21.029   6.076  0.00  0.00    +0.010 A 
ENDROOT
BRANCH   3   7
ATOM      7  O   LIG    1       28.683 -18.580   4.794  0.00  0.00    -0.503 OA
ATOM      8  H   LIG    1       28.333 -17.677   4.932  0.00  0.00    +0.292 HD
ENDBRANCH   3   7
BRANCH   4   9
ATOM      9  O   LIG    1       29.006 -20.053   7.045  0.00  0.00    -0.503 OA
ATOM     10  H   LIG    1       28.870 -19.453   7.799  0.00  0.00    +0.292 HD
ENDBRANCH   4   9
BRANCH   1  11
ATOM     11  C   LIG    1       24.150 -20.278   4.114  0.00  0.00    +0.161 C 
BRANCH  11  13
ATOM     12  C   LIG    1       22.133 -18.703   4.469  0.00  0.00    +0.027 C 
ATOM     13  C   LIG    1       22.888 -19.935   4.962  0.00  0.00    +0.081 C 
BRANCH  13  14
ATOM     14  N   LIG    1       21.982 -21.109   4.963  0.00  0.00    -0.325 NA
ATOM     15  H   LIG    1       21.463 -21.122   5.844  0.00  0.00    +0.118 HD
ATOM     16  H   LIG    1       21.270 -20.981   4.240  0.00  0.00    +0.118 HD
ENDBRANCH  13  14
ENDBRANCH  11  13
BRANCH  11  17
ATOM     17  O   LIG    1       23.947 -21.572   3.525  0.00  0.00    -0.386 OA
ATOM     18  H   LIG    1       24.350 -21.490   2.636  0.00  0.00    +0.210 HD
ENDBRANCH  11  17
ENDBRANCH   1  11
TORSDOF 6
ENDMDL
MODEL 2
REMARK VINA RESULT:      -5.0      2.646      5.201
REMARK  Name = *****
REMARK                            x       y       z     vdW  Elec       q    Type
REMARK                         _______ _______ _______ _____ _____    ______ ____
ROOT
ATOM      1  C   LIG    1       26.203 -20.015   5.074  0.00  0.00    -0.014 A 
ATOM      2  C   LIG    1       25.495 -20.653   6.108  0.00  0.00    +0.055 A 
ATOM      3  C   LIG    1       24.115 -20.763   6.034  0.00  0.00    +0.159 A 
ATOM      4  C   LIG    1       23.418 -20.266   4.939  0.00  0.00    +0.158 A 
ATOM      5  C   LIG    1       24.096 -19.643   3.898  0.00  0.00    +0.049 A 
ATOM      6  C   LIG    1       25.488 -19.514   3.972  0.00  0.00    +0.010 A 
ENDROOT
BRANCH   3   7
ATOM      7  O   LIG    1       23.442 -21.359   7.062  0.00  0.00    -0.503 OA
ATOM      8  H   LIG    1       23.557 -22.318   6.901  0.00  0.00    +0.292 HD
ENDBRANCH   3   7
BRANCH   4   9
ATOM      9  O   LIG    1       22.060 -20.414   4.932  0.00  0.00    -0.503 OA
ATOM     10  H   LIG    1       21.862 -21.358   4.800  0.00  0.00    +0.292 HD
ENDBRANCH   4   9
BRANCH   1  11
ATOM     11  C   LIG    1       27.703 -19.854   5.197  0.00  0.00    +0.161 C 
BRANCH  11  13
ATOM     12  C   LIG    1       28.642 -21.377   7.060  0.00  0.00    +0.027 C 
ATOM     13  C   LIG    1       28.234 -19.962   6.657  0.00  0.00    +0.081 C 
BRANCH  13  14
ATOM     14  N   LIG    1       29.390 -19.045   6.813  0.00  0.00    -0.325 NA
ATOM     15  H   LIG    1       29.954 -19.080   5.960  0.00  0.00    +0.118 HD
ATOM     16  H   LIG    1       29.047 -18.083   6.862  0.00  0.00    +0.118 HD
ENDBRANCH  13  14
ENDBRANCH  11  13
BRANCH  11  17
ATOM     17  O   LIG    1       28.099 -18.575   4.677  0.00  0.00    -0.386 OA
ATOM     18  H   LIG    1       28.859 -18.320   5.239  0.00  0.00    +0.210 HD
ENDBRANCH  11  17
ENDBRANCH   1  11
TORSDOF 6
ENDMDL
MODEL 3
REMARK VINA RESULT:      -4.5      1.380      1.492
REMARK  Name = *****
REMARK                            x       y       z     vdW  Elec       q    Type
REMARK                         _______ _______ _______ _____ _____    ______ ____
ROOT
ATOM      1  C   LIG    1       25.512 -20.624   5.642  0.00  0.00    -0.014 A 
ATOM      2  C   LIG    1       26.455 -19.727   5.109  0.00  0.00    +0.055 A 
ATOM      3  C   LIG    1       27.765 -19.751   5.563  0.00  0.00    +0.159 A 
ATOM      4  C   LIG    1       28.168 -20.666   6.528  0.00  0.00    +0.158 A 
ATOM      5  C   LIG    1       27.259 -21.572   7.061  0.00  0.00    +0.049 A 
ATOM      6  C   LIG    1       25.930 -21.544   6.620  0.00  0.00    +0.010 A 
ENDROOT
BRANCH   3   7
ATOM      7  O   LIG    1       28.658 -18.852   5.054  0.00  0.00    -0.503 OA
ATOM      8  H   LIG    1       28.905 -18.297   5.822  0.00  0.00    +0.292 HD
ENDBRANCH   3   7
BRANCH   4   9
ATOM      9  O   LIG    1       29.475 -20.635   6.924  0.00  0.00    -0.503 OA
ATOM     10  H   LIG    1       29.948 -20.010   6.346  0.00  0.00    +0.292 HD
ENDBRANCH   4   9
BRANCH   1  11
ATOM     11  C   LIG    1       24.074 -20.548   5.176  0.00  0.00    +0.161 C 
BRANCH  11  13
ATOM     12  C   LIG    1       23.831 -19.715   2.743  0.00  0.00    +0.027 C 
ATOM     13  C   LIG    1       23.779 -19.350   4.225  0.00  0.00    +0.081 C 
BRANCH  13  14
ATOM     14  N   LIG    1       22.444 -18.795   4.556  0.00  0.00    -0.325 NA
ATOM     15  H   LIG    1       22.008 -19.391   5.264  0.00  0.00    +0.118 HD
ATOM     16  H   LIG    1       22.565 -17.888   5.013  0.00  0.00    +0.118 HD
ENDBRANCH  13  14
ENDBRANCH  11  13
BRANCH  11  17
ATOM     17  O   LIG    1       23.201 -20.435   6.311  0.00  0.00    -0.386 OA
ATOM     18  H   LIG    1       22.431 -20.990   6.069  0.00  0.00    +0.210 HD
ENDBRANCH  11  17
ENDBRANCH   1  11
TORSDOF 6
ENDMDL
MODEL 4
REMARK VINA RESULT:      -4.1      0.829      1.814
REMARK  Name = *****
REMARK                            x       y       z     vdW  Elec       q    Type
REMARK                         _______ _______ _______ _____ _____    ______ ____
ROOT
ATOM      1  C   LIG    1       25.325 -19.927   4.467  0.00  0.00    -0.014 A 
ATOM      2  C   LIG    1       25.776 -20.741   5.522  0.00  0.00    +0.055 A 
ATOM      3  C   LIG    1       27.042 -20.545   6.053  0.00  0.00    +0.159 A 
ATOM      4  C   LIG    1       27.870 -19.538   5.569  0.00  0.00    +0.158 A 
ATOM      5  C   LIG    1       27.443 -18.712   4.537  0.00  0.00    +0.049 A 
ATOM      6  C   LIG    1       26.172 -18.913   3.985  0.00  0.00    +0.010 A 
ENDROOT
BRANCH   3   7
ATOM      7  O   LIG    1       27.473 -21.364   7.056  0.00  0.00    -0.503 OA
ATOM      8  H   LIG    1       26.795 -22.070   7.099  0.00  0.00    +0.292 HD
ENDBRANCH   3   7
BRANCH   4   9
ATOM      9  O   LIG    1       29.102 -19.401   6.144  0.00  0.00    -0.503 OA
ATOM     10  H   LIG    1       29.562 -20.255   6.074  0.00  0.00    +0.292 HD
ENDBRANCH   4   9
BRANCH   1  11
ATOM     11  C   LIG    1       23.964 -20.189   3.861  0.00  0.00    +0.161 C 
BRANCH  11  13
ATOM     12  C   LIG    1       22.027 -18.578   4.431  0.00  0.00    +0.027 C 
ATOM     13  C   LIG    1       22.774 -19.855   4.809  0.00  0.00    +0.081 C 
BRANCH  13  14
ATOM     14  N   LIG    1       21.832 -21.002   4.815  0.00  0.00    -0.325 NA
ATOM     15  H   LIG    1       22.310 -21.817   5.205  0.00  0.00    +0.118 HD
ATOM     16  H   LIG    1       21.071 -20.804   5.469  0.00  0.00    +0.118 HD
ENDBRANCH  13  14
ENDBRANCH  11  13
BRANCH  11  17
ATOM     17  O   LIG    1       23.856 -21.572   3.489  0.00  0.00    -0.386 OA
ATOM     18  H   LIG    1       22.942 -21.651   3.145  0.00  0.00    +0.210 HD
ENDBRANCH  11  17
ENDBRANCH   1  11
TORSDOF 6
ENDMDL
MODEL 5
REMARK VINA RESULT:      -4.1      1.465      1.707
REMARK  Name = *****
REMARK                            x       y       z     vdW  Elec       q    Type
REMARK                         _______ _______ _______ _____ _____    ______ ____
ROOT
ATOM      1  C   LIG    1       24.068 -20.557   5.106  0.00  0.00    -0.014 A 
ATOM      2  C   LIG    1       25.258 -20.071   4.534  0.00  0.00    +0.055 A 
ATOM      3  C   LIG    1       26.458 -20.209   5.215  0.00  0.00    +0.159 A 
ATOM      4  C   LIG    1       26.508 -20.839   6.452  0.00  0.00    +0.158 A 
ATOM      5  C   LIG    1       25.349 -21.340   7.033  0.00  0.00    +0.049 A 
ATOM      6  C   LIG    1       24.130 -21.192   6.360  0.00  0.00    +0.010 A 
ENDROOT
BRANCH   3   7
ATOM      7  O   LIG    1       27.597 -19.704   4.656  0.00  0.00    -0.503 OA
ATOM      8  H   LIG    1       28.304 -20.307   4.962  0.00  0.00    +0.292 HD
ENDBRANCH   3   7
BRANCH   4   9
ATOM      9  O   LIG    1       27.726 -20.943   7.062  0.00  0.00    -0.503 OA
ATOM     10  H   LIG    1       27.614 -21.482   7.864  0.00  0.00    +0.292 HD
ENDBRANCH   4   9
BRANCH   1  11
ATOM     11  C   LIG    1       22.759 -20.350   4.377  0.00  0.00    +0.161 C 
BRANCH  11  13
ATOM     12  C   LIG    1       23.141 -17.808   4.116  0.00  0.00    +0.027 C 
ATOM     13  C   LIG    1       22.172 -18.915   4.526  0.00  0.00    +0.081 C 
BRANCH  13  14
ATOM     14  N   LIG    1       20.933 -18.820   3.715  0.00  0.00    -0.325 NA
ATOM     15  H   LIG    1       20.599 -17.855   3.738  0.00  0.00    +0.118 HD
ATOM     16  H   LIG    1       21.164 -18.996   2.734  0.00  0.00    +0.118 HD
ENDBRANCH  13  14
ENDBRANCH  11  13
BRANCH  11  17
ATOM     17  O   LIG    1       21.779 -21.280   4.861  0.00  0.00    -0.386 OA
ATOM     18  H   LIG    1       22.094 -21.503   5.762  0.00  0.00    +0.210 HD
ENDBRANCH  11  17
ENDBRANCH   1  11
TORSDOF 6
ENDMDL
MODEL 6
REMARK VINA RESULT:      -3.6      1.641      2.063
REMARK  Name = *****
REMARK                            x       y       z     vdW  Elec       q    Type
REMARK                         _______ _______ _______ _____ _____    ______ ____
ROOT
ATOM      1  C   LIG    1       25.221 -20.469   5.434  0.00  0.00    -0.014 A 
ATOM      2  C   LIG    1       25.307 -19.504   4.413  0.00  0.00    +0.055 A 
ATOM      3  C   LIG    1       26.500 -18.832   4.198  0.00  0.00    +0.159 A 
ATOM      4  C   LIG    1       27.624 -19.110   4.967  0.00  0.00    +0.158 A 
ATOM      5  C   LIG    1       27.569 -20.068   5.972  0.00  0.00    +0.049 A 
ATOM      6  C   LIG    1       26.364 -20.740   6.207  0.00  0.00    +0.010 A 
ENDROOT
BRANCH   3   7
ATOM      7  O   LIG    1       26.555 -17.878   3.222  0.00  0.00    -0.503 OA
ATOM      8  H   LIG    1       26.196 -17.074   3.650  0.00  0.00    +0.292 HD
ENDBRANCH   3   7
BRANCH   4   9
ATOM      9  O   LIG    1       28.766 -18.411   4.695  0.00  0.00    -0.503 OA
ATOM     10  H   LIG    1       29.380 -18.539   5.439  0.00  0.00    +0.292 HD
ENDBRANCH   4   9
BRANCH   1  11
ATOM     11  C   LIG    1       23.897 -21.154   5.693  0.00  0.00    +0.161 C 
BRANCH  11  13
ATOM     12  C   LIG    1       21.496 -21.541   4.820  0.00  0.00    +0.027 C 
ATOM     13  C   LIG    1       22.734 -20.647   4.788  0.00  0.00    +0.081 C 
BRANCH  13  14
ATOM     14  N   LIG    1       22.369 -19.271   5.207  0.00  0.00    -0.325 NA
ATOM     15  H   LIG    1       22.475 -18.645   4.406  0.00  0.00    +0.118 HD
ATOM     16  H   LIG    1       21.371 -19.246   5.431  0.00  0.00    +0.118 HD
ENDBRANCH  13  14
ENDBRANCH  11  13
BRANCH  11  17
ATOM     17  O   LIG    1       23.507 -20.959   7.061  0.00  0.00    -0.386 OA
ATOM     18  H   LIG    1       24.359 -20.918   7.543  0.00  0.00    +0.210 HD
ENDBRANCH  11  17
ENDBRANCH   1  11
TORSDOF 6
ENDMDL
MODEL 7
REMARK VINA RESULT:      -3.6      4.650      5.923
REMARK  Name = *****
REMARK                            x       y       z     vdW  Elec       q    Type
REMARK                         _______ _______ _______ _____ _____    ______ ____
ROOT
ATOM      1  C   LIG    1       25.677 -16.071   3.418  0.00  0.00    -0.014 A 
ATOM      2  C   LIG    1       26.434 -14.978   2.958  0.00  0.00    +0.055 A 
ATOM      3  C   LIG    1       25.912 -13.696   3.031  0.00  0.00    +0.159 A 
ATOM      4  C   LIG    1       24.651 -13.470   3.571  0.00  0.00    +0.158 A 
ATOM      5  C   LIG    1       23.888 -14.531   4.044  0.00  0.00    +0.049 A 
ATOM      6  C   LIG    1       24.402 -15.830   3.960  0.00  0.00    +0.010 A 
ENDROOT
BRANCH   3   7
ATOM      7  O   LIG    1       26.650 -12.653   2.553  0.00  0.00    -0.503 OA
ATOM      8  H   LIG    1       27.177 -12.357   3.322  0.00  0.00    +0.292 HD
ENDBRANCH   3   7
BRANCH   4   9
ATOM      9  O   LIG    1       24.203 -12.180   3.615  0.00  0.00    -0.503 OA
ATOM     10  H   LIG    1       24.806 -11.635   3.080  0.00  0.00    +0.292 HD
ENDBRANCH   4   9
BRANCH   1  11
ATOM     11  C   LIG    1       26.239 -17.469   3.280  0.00  0.00    +0.161 C 
BRANCH  11  13
ATOM     12  C   LIG    1       24.227 -19.089   3.207  0.00  0.00    +0.027 C 
ATOM     13  C   LIG    1       25.408 -18.561   4.019  0.00  0.00    +0.081 C 
BRANCH  13  14
ATOM     14  N   LIG    1       26.309 -19.683   4.378  0.00  0.00    -0.325 NA
ATOM     15  H   LIG    1       26.775 -20.015   3.531  0.00  0.00    +0.118 HD
ATOM     16  H   LIG    1       27.063 -19.327   4.971  0.00  0.00    +0.118 HD
ENDBRANCH  13  14
ENDBRANCH  11  13
BRANCH  11  17
ATOM     17  O   LIG    1       27.578 -17.509   3.798  0.00  0.00    -0.386 OA
ATOM     18  H   LIG    1       27.628 -18.376   4.249  0.00  0.00    +0.210 HD
ENDBRANCH  11  17
ENDBRANCH   1  11
TORSDOF 6
ENDMDL
MODEL 8
REMARK VINA RESULT:      -3.5      2.009      5.164
REMARK  Name = *****
REMARK                            x       y       z     vdW  Elec       q    Type
REMARK                         _______ _______ _______ _____ _____    ______ ____
ROOT
ATOM      1  C   LIG    1       24.705 -20.151   4.516  0.00  0.00    -0.014 A 
ATOM      2  C   LIG    1       23.585 -20.976   4.726  0.00  0.00    +0.055 A 
ATOM      3  C   LIG    1       22.311 -20.489   4.477  0.00  0.00    +0.159 A 
ATOM      4  C   LIG    1       22.123 -19.196   4.003  0.00  0.00    +0.158 A 
ATOM      5  C   LIG    1       23.213 -18.365   3.774  0.00  0.00    +0.049 A 
ATOM      6  C   LIG    1       24.501 -18.844   4.037  0.00  0.00    +0.010 A 
ENDROOT
BRANCH   3   7
ATOM      7  O   LIG    1       21.236 -21.295   4.716  0.00  0.00    -0.503 OA
ATOM      8  H   LIG    1       21.200 -21.367   5.691  0.00  0.00    +0.292 HD
ENDBRANCH   3   7
BRANCH   4   9
ATOM      9  O   LIG    1       20.839 -18.786   3.776  0.00  0.00    -0.503 OA
ATOM     10  H   LIG    1       20.314 -19.567   3.529  0.00  0.00    +0.292 HD
ENDBRANCH   4   9
BRANCH   1  11
ATOM     11  C   LIG    1       26.084 -20.678   4.844  0.00  0.00    +0.161 C 
BRANCH  11  13
ATOM     12  C   LIG    1       27.430 -20.444   7.037  0.00  0.00    +0.027 C 
ATOM     13  C   LIG    1       26.256 -21.118   6.329  0.00  0.00    +0.081 C 
BRANCH  13  14
ATOM     14  N   LIG    1       24.998 -20.829   7.061  0.00  0.00    -0.325 NA
ATOM     15  H   LIG    1       24.339 -21.592   6.894  0.00  0.00    +0.118 HD
ATOM     16  H   LIG    1       25.185 -20.857   8.066  0.00  0.00    +0.118 HD
ENDBRANCH  13  14
ENDBRANCH  11  13
BRANCH  11  17
ATOM     17  O   LIG    1       27.069 -19.672   4.565  0.00  0.00    -0.386 OA
ATOM     18  H   LIG    1       27.109 -19.148   5.391  0.00  0.00    +0.210 HD
ENDBRANCH  11  17
ENDBRANCH   1  11
TORSDOF 6
ENDMDL
MODEL 9
REMARK VINA RESULT:      -3.4      5.226      6.855
REMARK  Name = *****
REMARK                            x       y       z     vdW  Elec       q    Type
REMARK                         _______ _______ _______ _____ _____    ______ ____
ROOT
ATOM      1  C   LIG    1       25.656 -15.249   3.527  0.00  0.00    -0.014 A 
ATOM      2  C   LIG    1       25.552 -16.645   3.397  0.00  0.00    +0.055 A 
ATOM      3  C   LIG    1       24.379 -17.288   3.762  0.00  0.00    +0.159 A 
ATOM      4  C   LIG    1       23.291 -16.567   4.240  0.00  0.00    +0.158 A 
ATOM      5  C   LIG    1       23.363 -15.186   4.365  0.00  0.00    +0.049 A 
ATOM      6  C   LIG    1       24.549 -14.530   4.014  0.00  0.00    +0.010 A 
ENDROOT
BRANCH   3   7
ATOM      7  O   LIG    1       24.309 -18.647   3.656  0.00  0.00    -0.503 OA
ATOM      8  H   LIG    1       25.041 -18.880   3.050  0.00  0.00    +0.292 HD
ENDBRANCH   3   7
BRANCH   4   9
ATOM      9  O   LIG    1       22.166 -17.267   4.575  0.00  0.00    -0.503 OA
ATOM     10  H   LIG    1       21.742 -17.564   3.752  0.00  0.00    +0.292 HD
ENDBRANCH   4   9
BRANCH   1  11
ATOM     11  C   LIG    1       26.961 -14.569   3.178  0.00  0.00    +0.161 C 
BRANCH  11  13
ATOM     12  C   LIG    1       27.153 -13.614   5.571  0.00  0.00    +0.027 C 
ATOM     13  C   LIG    1       27.296 -13.340   4.075  0.00  0.00    +0.081 C 
BRANCH  13  14
ATOM     14  N   LIG    1       28.681 -12.896   3.778  0.00  0.00    -0.325 NA
ATOM     15  H   LIG    1       28.863 -13.035   2.782  0.00  0.00    +0.118 HD
ATOM     16  H   LIG    1       28.743 -11.885   3.920  0.00  0.00    +0.118 HD
ENDBRANCH  13  14
ENDBRANCH  11  13
BRANCH  11  17
ATOM     17  O   LIG    1       26.928 -14.122   1.813  0.00  0.00    -0.386 OA
ATOM     18  H   LIG    1       27.831 -14.310   1.484  0.00  0.00    +0.210 HD
ENDBRANCH  11  17
ENDBRANCH   1  11
TORSDOF 6
ENDMDL
