MODEL 1
REMARK VINA RESULT:      -9.4      0.000      0.000
REMARK  Name = *****
REMARK                            x       y       z     vdW  Elec       q    Type
REMARK                         _______ _______ _______ _____ _____    ______ ____
ROOT
ATOM      1  C   LIG    1       29.882 -20.393   8.058  0.00  0.00    +0.084 C 
ATOM      2  C   LIG    1       30.796 -21.423   8.746  0.00  0.00    +0.027 C 
ENDROOT
BRANCH   1   3
ATOM      3  N   LIG    1       29.279 -21.137   6.903  0.00  0.00    -0.308 NA
ATOM      4  H   LIG    1       29.724 -20.769   6.057  0.00  0.00    +0.122 HD
BRANCH   3   6
ATOM      5  C   LIG    1       27.434 -19.896   5.776  0.00  0.00    +0.024 C 
ATOM      6  C   LIG    1       27.823 -21.031   6.724  0.00  0.00    +0.051 C 
BRANCH   6   7
ATOM      7  C   LIG    1       27.079 -20.879   8.086  0.00  0.00    +0.023 C 
BRANCH   7   8
ATOM      8  C   LIG    1       25.548 -20.753   8.022  0.00  0.00    +0.036 C 
BRANCH   8   9
ATOM      9  C   LIG    1       24.874 -22.026   7.537  0.00  0.00    -0.047 A 
ATOM     10  C   LIG    1       23.494 -22.062   7.287  0.00  0.00    +0.003 A 
ATOM     11  C   LIG    1       22.885 -23.230   6.816  0.00  0.00    +0.000 A 
ATOM     12  C   LIG    1       23.644 -24.378   6.595  0.00  0.00    +0.000 A 
ATOM     13  C   LIG    1       25.013 -24.360   6.854  0.00  0.00    +0.000 A 
ATOM     14  C   LIG    1       25.623 -23.193   7.323  0.00  0.00    +0.003 A 
ENDBRANCH   8   9
ENDBRANCH   7   8
ENDBRANCH   6   7
ENDBRANCH   3   6
ENDBRANCH   1   3
BRANCH   1  15
ATOM     15  C   LIG    1       30.676 -19.088   7.692  0.00  0.00    +0.161 C 
BRANCH  15  16
ATOM     16  C   LIG    1       30.998 -18.137   8.849  0.00  0.00    -0.018 A 
ATOM     17  C   LIG    1       32.236 -17.483   8.912  0.00  0.00    +0.010 A 
ATOM     18  C   LIG    1       32.574 -16.669   9.998  0.00  0.00    +0.046 A 
ATOM     19  C   LIG    1       31.664 -16.489  11.044  0.00  0.00    +0.117 A 
ATOM     20  C   LIG    1       30.424 -17.103  10.998  0.00  0.00    +0.046 A 
ATOM     21  C   LIG    1       30.087 -17.916   9.910  0.00  0.00    +0.010 A 
BRANCH  19  22
ATOM     22  O   LIG    1       32.038 -15.705  12.086  0.00  0.00    -0.507 OA
ATOM     23  H   LIG    1       31.929 -14.770  11.843  0.00  0.00    +0.292 HD
ENDBRANCH  19  22
ENDBRANCH  15  16
BRANCH  15  24
ATOM     24  O   LIG    1       31.866 -19.440   6.976  0.00  0.00    -0.386 OA
ATOM     25  H   LIG    1       32.350 -20.081   7.525  0.00  0.00    +0.210 HD
ENDBRANCH  15  24
ENDBRANCH   1  15
TORSDOF 9
ENDMDL
MODEL 2
REMARK VINA RESULT:      -9.2      2.471      4.347
REMARK  Name = *****
REMARK                            x       y       z     vdW  Elec       q    Type
REMARK                         _______ _______ _______ _____ _____    ______ ____
ROOT
ATOM      1  C   LIG    1       26.224 -20.726   7.012  0.00  0.00    +0.084 C 
ATOM      2  C   LIG    1       26.244 -20.625   8.548  0.00  0.00    +0.027 C 
ENDROOT
BRANCH   1   3
ATOM      3  N   LIG    1       26.185 -22.199   6.732  0.00  0.00    -0.308 NA
ATOM      4  H   LIG    1       26.121 -22.300   5.714  0.00  0.00    +0.122 HD
BRANCH   3   6
ATOM      5  C   LIG    1       24.838 -24.294   6.608  0.00  0.00    +0.024 C 
ATOM      6  C   LIG    1       25.078 -22.966   7.326  0.00  0.00    +0.051 C 
BRANCH   6   7
ATOM      7  C   LIG    1       23.760 -22.134   7.382  0.00  0.00    +0.023 C 
BRANCH   7   8
ATOM      8  C   LIG    1       22.880 -22.156   6.121  0.00  0.00    +0.036 C 
BRANCH   8   9
ATOM      9  C   LIG    1       23.151 -20.982   5.196  0.00  0.00    -0.047 A 
ATOM     10  C   LIG    1       22.451 -19.774   5.339  0.00  0.00    +0.003 A 
ATOM     11  C   LIG    1       22.724 -18.688   4.500  0.00  0.00    +0.000 A 
ATOM     12  C   LIG    1       23.692 -18.796   3.504  0.00  0.00    +0.000 A 
ATOM     13  C   LIG    1       24.384 -19.994   3.341  0.00  0.00    +0.000 A 
ATOM     14  C   LIG    1       24.114 -21.080   4.180  0.00  0.00    +0.003 A 
ENDBRANCH   8   9
ENDBRANCH   7   8
ENDBRANCH   6   7
ENDBRANCH   3   6
ENDBRANCH   1   3
BRANCH   1  15
ATOM     15  C   LIG    1       27.429 -19.942   6.378  0.00  0.00    +0.161 C 
BRANCH  15  16
ATOM     16  C   LIG    1       28.767 -20.029   7.120  0.00  0.00    -0.018 A 
ATOM     17  C   LIG    1       29.236 -21.258   7.601  0.00  0.00    +0.010 A 
ATOM     18  C   LIG    1       30.419 -21.344   8.343  0.00  0.00    +0.046 A 
ATOM     19  C   LIG    1       31.160 -20.190   8.610  0.00  0.00    +0.117 A 
ATOM     20  C   LIG    1       30.734 -18.964   8.127  0.00  0.00    +0.046 A 
ATOM     21  C   LIG    1       29.550 -18.880   7.383  0.00  0.00    +0.010 A 
BRANCH  19  22
ATOM     22  O   LIG    1       32.291 -20.315   9.347  0.00  0.00    -0.507 OA
ATOM     23  H   LIG    1       33.031 -19.889   8.882  0.00  0.00    +0.292 HD
ENDBRANCH  19  22
ENDBRANCH  15  16
BRANCH  15  24
ATOM     24  O   LIG    1       27.581 -20.331   5.007  0.00  0.00    -0.386 OA
ATOM     25  H   LIG    1       26.685 -20.424   4.636  0.00  0.00    +0.210 HD
ENDBRANCH  15  24
ENDBRANCH   1  15
TORSDOF 9
ENDMDL
MODEL 3
REMARK VINA RESULT:      -9.1      2.701      8.535
REMARK  Name = *****
REMARK                            x       y       z     vdW  Elec       q    Type
REMARK                         _______ _______ _______ _____ _____    ______ ____
ROOT
ATOM      1  C   LIG    1       27.214 -20.277   7.528  0.00  0.00    +0.084 C 
ATOM      2  C   LIG    1       27.138 -20.294   5.991  0.00  0.00    +0.027 C 
ENDROOT
BRANCH   1   3
ATOM      3  N   LIG    1       28.348 -21.202   7.859  0.00  0.00    -0.308 NA
ATOM      4  H   LIG    1       28.182 -21.535   8.814  0.00  0.00    +0.122 HD
BRANCH   3   6
ATOM      5  C   LIG    1       30.672 -21.373   8.746  0.00  0.00    +0.024 C 
ATOM      6  C   LIG    1       29.708 -20.641   7.812  0.00  0.00    +0.051 C 
BRANCH   6   7
ATOM      7  C   LIG    1       29.715 -19.111   8.113  0.00  0.00    +0.023 C 
BRANCH   7   8
ATOM      8  C   LIG    1       31.076 -18.401   8.024  0.00  0.00    +0.036 C 
BRANCH   8   9
ATOM      9  C   LIG    1       31.415 -17.621   9.283  0.00  0.00    -0.047 A 
ATOM     10  C   LIG    1       30.790 -17.914  10.504  0.00  0.00    +0.003 A 
ATOM     11  C   LIG    1       31.126 -17.208  11.665  0.00  0.00    +0.000 A 
ATOM     12  C   LIG    1       32.084 -16.198  11.620  0.00  0.00    +0.000 A 
ATOM     13  C   LIG    1       32.702 -15.887  10.410  0.00  0.00    +0.000 A 
ATOM     14  C   LIG    1       32.368 -16.592   9.250  0.00  0.00    +0.003 A 
ENDBRANCH   8   9
ENDBRANCH   7   8
ENDBRANCH   6   7
ENDBRANCH   3   6
ENDBRANCH   1   3
BRANCH   1  15
ATOM     15  C   LIG    1       25.826 -20.641   8.168  0.00  0.00    +0.161 C 
BRANCH  15  16
ATOM     16  C   LIG    1       25.149 -21.914   7.650  0.00  0.00    -0.018 A 
ATOM     17  C   LIG    1       25.897 -23.076   7.419  0.00  0.00    +0.010 A 
ATOM     18  C   LIG    1       25.308 -24.225   6.878  0.00  0.00    +0.046 A 
ATOM     19  C   LIG    1       23.946 -24.227   6.566  0.00  0.00    +0.117 A 
ATOM     20  C   LIG    1       23.176 -23.102   6.806  0.00  0.00    +0.046 A 
ATOM     21  C   LIG    1       23.766 -21.954   7.348  0.00  0.00    +0.010 A 
BRANCH  19  22
ATOM     22  O   LIG    1       23.418 -25.355   6.028  0.00  0.00    -0.507 OA
ATOM     23  H   LIG    1       23.294 -25.231   5.072  0.00  0.00    +0.292 HD
ENDBRANCH  19  22
ENDBRANCH  15  16
BRANCH  15  24
ATOM     24  O   LIG    1       25.955 -20.676   9.595  0.00  0.00    -0.386 OA
ATOM     25  H   LIG    1       25.737 -21.582   9.878  0.00  0.00    +0.210 HD
ENDBRANCH  15  24
ENDBRANCH   1  15
TORSDOF 9
ENDMDL
MODEL 4
REMARK VINA RESULT:      -9.0      1.939      2.645
REMARK  Name = *****
REMARK                            x       y       z     vdW  Elec       q    Type
REMARK                         _______ _______ _______ _____ _____    ______ ____
ROOT
ATOM      1  C   LIG    1       29.943 -20.387   8.513  0.00  0.00    +0.084 C 
ATOM      2  C   LIG    1       30.927 -21.533   8.808  0.00  0.00    +0.027 C 
ENDROOT
BRANCH   1   3
ATOM      3  N   LIG    1       28.945 -20.982   7.563  0.00  0.00    -0.308 NA
ATOM      4  H   LIG    1       29.394 -20.995   6.641  0.00  0.00    +0.122 HD
BRANCH   3   6
ATOM      5  C   LIG    1       26.626 -20.759   8.448  0.00  0.00    +0.024 C 
ATOM      6  C   LIG    1       27.656 -20.288   7.422  0.00  0.00    +0.051 C 
BRANCH   6   7
ATOM      7  C   LIG    1       27.082 -20.418   5.977  0.00  0.00    +0.023 C 
BRANCH   7   8
ATOM      8  C   LIG    1       25.781 -21.223   5.826  0.00  0.00    +0.036 C 
BRANCH   8   9
ATOM      9  C   LIG    1       24.644 -20.398   5.245  0.00  0.00    -0.047 A 
ATOM     10  C   LIG    1       23.407 -20.310   5.902  0.00  0.00    +0.003 A 
ATOM     11  C   LIG    1       22.374 -19.528   5.375  0.00  0.00    +0.000 A 
ATOM     12  C   LIG    1       22.559 -18.829   4.183  0.00  0.00    +0.000 A 
ATOM     13  C   LIG    1       23.778 -18.920   3.513  0.00  0.00    +0.000 A 
ATOM     14  C   LIG    1       24.811 -19.700   4.040  0.00  0.00    +0.003 A 
ENDBRANCH   8   9
ENDBRANCH   7   8
ENDBRANCH   6   7
ENDBRANCH   3   6
ENDBRANCH   1   3
BRANCH   1  15
ATOM     15  C   LIG    1       30.699 -19.110   7.998  0.00  0.00    +0.161 C 
BRANCH  15  16
ATOM     16  C   LIG    1       31.121 -18.091   9.063  0.00  0.00    -0.018 A 
ATOM     17  C   LIG    1       32.331 -17.395   8.943  0.00  0.00    +0.010 A 
ATOM     18  C   LIG    1       32.765 -16.515   9.941  0.00  0.00    +0.046 A 
ATOM     19  C   LIG    1       31.982 -16.314  11.081  0.00  0.00    +0.117 A 
ATOM     20  C   LIG    1       30.770 -16.970  11.216  0.00  0.00    +0.046 A 
ATOM     21  C   LIG    1       30.336 -17.848  10.216  0.00  0.00    +0.010 A 
BRANCH  19  22
ATOM     22  O   LIG    1       32.448 -15.466  12.032  0.00  0.00    -0.507 OA
ATOM     23  H   LIG    1       31.859 -14.695  12.096  0.00  0.00    +0.292 HD
ENDBRANCH  19  22
ENDBRANCH  15  16
BRANCH  15  24
ATOM     24  O   LIG    1       31.822 -19.509   7.203  0.00  0.00    -0.386 OA
ATOM     25  H   LIG    1       32.394 -18.728   7.105  0.00  0.00    +0.210 HD
ENDBRANCH  15  24
ENDBRANCH   1  15
TORSDOF 9
ENDMDL
MODEL 5
REMARK VINA RESULT:      -8.9      2.158      3.031
REMARK  Name = *****
REMARK                            x       y       z     vdW  Elec       q    Type
REMARK                         _______ _______ _______ _____ _____    ______ ____
ROOT
ATOM      1  C   LIG    1       28.582 -20.688   7.269  0.00  0.00    +0.084 C 
ATOM      2  C   LIG    1       28.518 -19.638   6.146  0.00  0.00    +0.027 C 
ENDROOT
BRANCH   1   3
ATOM      3  N   LIG    1       27.410 -20.368   8.150  0.00  0.00    -0.308 NA
ATOM      4  H   LIG    1       27.793 -20.163   9.079  0.00  0.00    +0.122 HD
BRANCH   3   6
ATOM      5  C   LIG    1       26.602 -22.591   7.363  0.00  0.00    +0.024 C 
ATOM      6  C   LIG    1       26.386 -21.412   8.311  0.00  0.00    +0.051 C 
BRANCH   6   7
ATOM      7  C   LIG    1       24.944 -20.841   8.147  0.00  0.00    +0.023 C 
BRANCH   7   8
ATOM      8  C   LIG    1       24.072 -21.482   7.054  0.00  0.00    +0.036 C 
BRANCH   8   9
ATOM      9  C   LIG    1       23.880 -20.576   5.850  0.00  0.00    -0.047 A 
ATOM     10  C   LIG    1       22.676 -19.884   5.651  0.00  0.00    +0.003 A 
ATOM     11  C   LIG    1       22.516 -19.032   4.554  0.00  0.00    +0.000 A 
ATOM     12  C   LIG    1       23.552 -18.864   3.637  0.00  0.00    +0.000 A 
ATOM     13  C   LIG    1       24.747 -19.558   3.814  0.00  0.00    +0.000 A 
ATOM     14  C   LIG    1       24.909 -20.409   4.911  0.00  0.00    +0.003 A 
ENDBRANCH   8   9
ENDBRANCH   7   8
ENDBRANCH   6   7
ENDBRANCH   3   6
ENDBRANCH   1   3
BRANCH   1  15
ATOM     15  C   LIG    1       29.987 -20.682   7.971  0.00  0.00    +0.161 C 
BRANCH  15  16
ATOM     16  C   LIG    1       30.498 -19.324   8.463  0.00  0.00    -0.018 A 
ATOM     17  C   LIG    1       31.724 -18.818   8.011  0.00  0.00    +0.010 A 
ATOM     18  C   LIG    1       32.239 -17.614   8.504  0.00  0.00    +0.046 A 
ATOM     19  C   LIG    1       31.523 -16.890   9.461  0.00  0.00    +0.117 A 
ATOM     20  C   LIG    1       30.298 -17.353   9.908  0.00  0.00    +0.046 A 
ATOM     21  C   LIG    1       29.783 -18.556   9.413  0.00  0.00    +0.010 A 
BRANCH  19  22
ATOM     22  O   LIG    1       32.067 -15.736   9.925  0.00  0.00    -0.507 OA
ATOM     23  H   LIG    1       31.371 -15.187  10.323  0.00  0.00    +0.292 HD
ENDBRANCH  19  22
ENDBRANCH  15  16
BRANCH  15  24
ATOM     24  O   LIG    1       29.992 -21.644   9.034  0.00  0.00    -0.386 OA
ATOM     25  H   LIG    1       30.482 -21.246   9.775  0.00  0.00    +0.210 HD
ENDBRANCH  15  24
ENDBRANCH   1  15
TORSDOF 9
ENDMDL
MODEL 6
REMARK VINA RESULT:      -8.8      3.211      8.144
REMARK  Name = *****
REMARK                            x       y       z     vdW  Elec       q    Type
REMARK                         _______ _______ _______ _____ _____    ______ ____
ROOT
ATOM      1  C   LIG    1       26.469 -21.971   7.634  0.00  0.00    +0.084 C 
ATOM      2  C   LIG    1       26.157 -20.676   8.404  0.00  0.00    +0.027 C 
ENDROOT
BRANCH   1   3
ATOM      3  N   LIG    1       27.745 -21.676   6.903  0.00  0.00    -0.308 NA
ATOM      4  H   LIG    1       28.444 -22.335   7.260  0.00  0.00    +0.122 HD
BRANCH   3   6
ATOM      5  C   LIG    1       28.343 -19.571   5.709  0.00  0.00    +0.024 C 
ATOM      6  C   LIG    1       28.300 -20.320   7.040  0.00  0.00    +0.051 C 
BRANCH   6   7
ATOM      7  C   LIG    1       29.712 -20.334   7.701  0.00  0.00    +0.023 C 
BRANCH   7   8
ATOM      8  C   LIG    1       30.654 -19.176   7.333  0.00  0.00    +0.036 C 
BRANCH   8   9
ATOM      9  C   LIG    1       30.942 -18.257   8.508  0.00  0.00    -0.047 A 
ATOM     10  C   LIG    1       29.983 -18.045   9.511  0.00  0.00    +0.003 A 
ATOM     11  C   LIG    1       30.265 -17.218  10.604  0.00  0.00    +0.000 A 
ATOM     12  C   LIG    1       31.503 -16.587  10.706  0.00  0.00    +0.000 A 
ATOM     13  C   LIG    1       32.458 -16.776   9.710  0.00  0.00    +0.000 A 
ATOM     14  C   LIG    1       32.178 -17.603   8.618  0.00  0.00    +0.003 A 
ENDBRANCH   8   9
ENDBRANCH   7   8
ENDBRANCH   6   7
ENDBRANCH   3   6
ENDBRANCH   1   3
BRANCH   1  15
ATOM     15  C   LIG    1       25.253 -22.405   6.739  0.00  0.00    +0.161 C 
BRANCH  15  16
ATOM     16  C   LIG    1       24.533 -21.286   5.977  0.00  0.00    -0.018 A 
ATOM     17  C   LIG    1       23.300 -20.796   6.428  0.00  0.00    +0.010 A 
ATOM     18  C   LIG    1       22.596 -19.826   5.705  0.00  0.00    +0.046 A 
ATOM     19  C   LIG    1       23.126 -19.324   4.514  0.00  0.00    +0.117 A 
ATOM     20  C   LIG    1       24.353 -19.771   4.057  0.00  0.00    +0.046 A 
ATOM     21  C   LIG    1       25.058 -20.740   4.781  0.00  0.00    +0.010 A 
BRANCH  19  22
ATOM     22  O   LIG    1       22.402 -18.398   3.837  0.00  0.00    -0.507 OA
ATOM     23  H   LIG    1       22.608 -18.456   2.888  0.00  0.00    +0.292 HD
ENDBRANCH  19  22
ENDBRANCH  15  16
BRANCH  15  24
ATOM     24  O   LIG    1       25.667 -23.445   5.845  0.00  0.00    -0.386 OA
ATOM     25  H   LIG    1       24.917 -24.060   5.756  0.00  0.00    +0.210 HD
ENDBRANCH  15  24
ENDBRANCH   1  15
TORSDOF 9
ENDMDL
MODEL 7
REMARK VINA RESULT:      -8.8      2.274      4.102
REMARK  Name = *****
REMARK                            x       y       z     vdW  Elec       q    Type
REMARK                         _______ _______ _______ _____ _____    ______ ____
ROOT
ATOM      1  C   LIG    1       26.191 -20.505   6.761  0.00  0.00    +0.084 C 
ATOM      2  C   LIG    1       26.159 -20.555   8.299  0.00  0.00    +0.027 C 
ENDROOT
BRANCH   1   3
ATOM      3  N   LIG    1       25.969 -21.926   6.334  0.00  0.00    -0.308 NA
ATOM      4  H   LIG    1       26.655 -22.119   5.597  0.00  0.00    +0.122 HD
BRANCH   3   6
ATOM      5  C   LIG    1       23.933 -21.065   5.181  0.00  0.00    +0.024 C 
ATOM      6  C   LIG    1       24.639 -22.269   5.805  0.00  0.00    +0.051 C 
BRANCH   6   7
ATOM      7  C   LIG    1       23.733 -22.925   6.892  0.00  0.00    +0.023 C 
BRANCH   7   8
ATOM      8  C   LIG    1       23.295 -24.376   6.634  0.00  0.00    +0.036 C 
BRANCH   8   9
ATOM      9  C   LIG    1       24.438 -25.261   6.167  0.00  0.00    -0.047 A 
ATOM     10  C   LIG    1       25.550 -25.498   6.989  0.00  0.00    +0.003 A 
ATOM     11  C   LIG    1       26.587 -26.335   6.563  0.00  0.00    +0.000 A 
ATOM     12  C   LIG    1       26.531 -26.940   5.308  0.00  0.00    +0.000 A 
ATOM     13  C   LIG    1       25.440 -26.701   4.476  0.00  0.00    +0.000 A 
ATOM     14  C   LIG    1       24.402 -25.866   4.902  0.00  0.00    +0.003 A 
ENDBRANCH   8   9
ENDBRANCH   7   8
ENDBRANCH   6   7
ENDBRANCH   3   6
ENDBRANCH   1   3
BRANCH   1  15
ATOM     15  C   LIG    1       27.514 -19.834   6.243  0.00  0.00    +0.161 C 
BRANCH  15  16
ATOM     16  C   LIG    1       28.754 -20.000   7.128  0.00  0.00    -0.018 A 
ATOM     17  C   LIG    1       29.542 -18.891   7.465  0.00  0.00    +0.010 A 
ATOM     18  C   LIG    1       30.717 -19.034   8.211  0.00  0.00    +0.046 A 
ATOM     19  C   LIG    1       31.118 -20.301   8.642  0.00  0.00    +0.117 A 
ATOM     20  C   LIG    1       30.347 -21.412   8.345  0.00  0.00    +0.046 A 
ATOM     21  C   LIG    1       29.171 -21.267   7.599  0.00  0.00    +0.010 A 
BRANCH  19  22
ATOM     22  O   LIG    1       32.272 -20.398   9.348  0.00  0.00    -0.507 OA
ATOM     23  H   LIG    1       33.024 -20.462   8.735  0.00  0.00    +0.292 HD
ENDBRANCH  19  22
ENDBRANCH  15  16
BRANCH  15  24
ATOM     24  O   LIG    1       27.779 -20.276   4.906  0.00  0.00    -0.386 OA
ATOM     25  H   LIG    1       27.507 -19.557   4.309  0.00  0.00    +0.210 HD
ENDBRANCH  15  24
ENDBRANCH   1  15
TORSDOF 9
ENDMDL
MODEL 8
REMARK VINA RESULT:      -8.7      3.696      7.878
REMARK  Name = *****
REMARK                            x       y       z     vdW  Elec       q    Type
REMARK                         _______ _______ _______ _____ _____    ______ ____
ROOT
ATOM      1  C   LIG    1       25.726 -23.577   6.566  0.00  0.00    +0.084 C 
ATOM      2  C   LIG    1       25.936 -25.062   6.912  0.00  0.00    +0.027 C 
ENDROOT
BRANCH   1   3
ATOM      3  N   LIG    1       25.601 -22.896   7.897  0.00  0.00    -0.308 NA
ATOM      4  H   LIG    1       24.651 -22.513   7.939  0.00  0.00    +0.122 HD
BRANCH   3   6
ATOM      5  C   LIG    1       25.816 -20.487   8.502  0.00  0.00    +0.024 C 
ATOM      6  C   LIG    1       26.537 -21.795   8.179  0.00  0.00    +0.051 C 
BRANCH   6   7
ATOM      7  C   LIG    1       27.550 -21.583   7.013  0.00  0.00    +0.023 C 
BRANCH   7   8
ATOM      8  C   LIG    1       28.011 -20.138   6.759  0.00  0.00    +0.036 C 
BRANCH   8   9
ATOM      9  C   LIG    1       29.258 -19.772   7.547  0.00  0.00    -0.047 A 
ATOM     10  C   LIG    1       30.081 -20.766   8.097  0.00  0.00    +0.003 A 
ATOM     11  C   LIG    1       31.242 -20.422   8.799  0.00  0.00    +0.000 A 
ATOM     12  C   LIG    1       31.591 -19.084   8.967  0.00  0.00    +0.000 A 
ATOM     13  C   LIG    1       30.774 -18.087   8.438  0.00  0.00    +0.000 A 
ATOM     14  C   LIG    1       29.615 -18.429   7.735  0.00  0.00    +0.003 A 
ENDBRANCH   8   9
ENDBRANCH   7   8
ENDBRANCH   6   7
ENDBRANCH   3   6
ENDBRANCH   1   3
BRANCH   1  15
ATOM     15  C   LIG    1       24.514 -23.390   5.585  0.00  0.00    +0.161 C 
BRANCH  15  16
ATOM     16  C   LIG    1       24.105 -21.946   5.273  0.00  0.00    -0.018 A 
ATOM     17  C   LIG    1       22.971 -21.381   5.872  0.00  0.00    +0.010 A 
ATOM     18  C   LIG    1       22.543 -20.090   5.544  0.00  0.00    +0.046 A 
ATOM     19  C   LIG    1       23.256 -19.337   4.609  0.00  0.00    +0.117 A 
ATOM     20  C   LIG    1       24.394 -19.859   4.018  0.00  0.00    +0.046 A 
ATOM     21  C   LIG    1       24.822 -21.150   4.348  0.00  0.00    +0.010 A 
BRANCH  19  22
ATOM     22  O   LIG    1       22.797 -18.096   4.307  0.00  0.00    -0.507 OA
ATOM     23  H   LIG    1       22.071 -17.864   4.910  0.00  0.00    +0.292 HD
ENDBRANCH  19  22
ENDBRANCH  15  16
BRANCH  15  24
ATOM     24  O   LIG    1       24.761 -24.121   4.378  0.00  0.00    -0.386 OA
ATOM     25  H   LIG    1       25.271 -23.536   3.790  0.00  0.00    +0.210 HD
ENDBRANCH  15  24
ENDBRANCH   1  15
TORSDOF 9
ENDMDL
MODEL 9
REMARK VINA RESULT:      -8.6      6.522      9.325
REMARK  Name = *****
REMARK                            x       y       z     vdW  Elec       q    Type
REMARK                         _______ _______ _______ _____ _____    ______ ____
ROOT
ATOM      1  C   LIG    1       24.624 -26.065   5.754  0.00  0.00    +0.084 C 
ATOM      2  C   LIG    1       25.054 -25.260   4.515  0.00  0.00    +0.027 C 
ENDROOT
BRANCH   1   3
ATOM      3  N   LIG    1       23.808 -25.102   6.565  0.00  0.00    -0.308 NA
ATOM      4  H   LIG    1       22.849 -25.162   6.209  0.00  0.00    +0.122 HD
BRANCH   3   6
ATOM      5  C   LIG    1       25.403 -23.396   7.436  0.00  0.00    +0.024 C 
ATOM      6  C   LIG    1       24.209 -23.686   6.528  0.00  0.00    +0.051 C 
BRANCH   6   7
ATOM      7  C   LIG    1       23.020 -22.737   6.875  0.00  0.00    +0.023 C 
BRANCH   7   8
ATOM      8  C   LIG    1       23.375 -21.269   7.160  0.00  0.00    +0.036 C 
BRANCH   8   9
ATOM      9  C   LIG    1       23.572 -20.456   5.891  0.00  0.00    -0.047 A 
ATOM     10  C   LIG    1       22.538 -19.661   5.375  0.00  0.00    +0.003 A 
ATOM     11  C   LIG    1       22.735 -18.894   4.222  0.00  0.00    +0.000 A 
ATOM     12  C   LIG    1       23.964 -18.916   3.565  0.00  0.00    +0.000 A 
ATOM     13  C   LIG    1       24.995 -19.713   4.058  0.00  0.00    +0.000 A 
ATOM     14  C   LIG    1       24.800 -20.478   5.212  0.00  0.00    +0.003 A 
ENDBRANCH   8   9
ENDBRANCH   7   8
ENDBRANCH   6   7
ENDBRANCH   3   6
ENDBRANCH   1   3
BRANCH   1  15
ATOM     15  C   LIG    1       25.867 -26.691   6.483  0.00  0.00    +0.161 C 
BRANCH  15  16
ATOM     16  C   LIG    1       25.596 -27.912   7.368  0.00  0.00    -0.018 A 
ATOM     17  C   LIG    1       26.349 -28.132   8.529  0.00  0.00    +0.010 A 
ATOM     18  C   LIG    1       26.163 -29.279   9.310  0.00  0.00    +0.046 A 
ATOM     19  C   LIG    1       25.206 -30.226   8.938  0.00  0.00    +0.117 A 
ATOM     20  C   LIG    1       24.430 -30.024   7.810  0.00  0.00    +0.046 A 
ATOM     21  C   LIG    1       24.616 -28.876   7.031  0.00  0.00    +0.010 A 
BRANCH  19  22
ATOM     22  O   LIG    1       25.070 -31.331   9.713  0.00  0.00    -0.507 OA
ATOM     23  H   LIG    1       25.715 -32.003   9.436  0.00  0.00    +0.292 HD
ENDBRANCH  19  22
ENDBRANCH  15  16
BRANCH  15  24
ATOM     24  O   LIG    1       26.889 -26.976   5.520  0.00  0.00    -0.386 OA
ATOM     25  H   LIG    1       26.456 -27.417   4.767  0.00  0.00    +0.210 HD
ENDBRANCH  15  24
ENDBRANCH   1  15
TORSDOF 9
ENDMDL
