MODEL 1
REMARK VINA RESULT:      16.5      0.000      0.000
REMARK  Name = *****
REMARK                            x       y       z     vdW  Elec       q    Type
REMARK                         _______ _______ _______ _____ _____    ______ ____
ROOT
ATOM      1  C   LIG    1       20.754 -18.565   3.561  0.00  0.00    +0.008 C 
ATOM      2  C   LIG    1       21.906 -18.735   4.548  0.00  0.00    -0.003 C 
ATOM      3  C   LIG    1       23.174 -19.317   3.871  0.00  0.00    +0.067 C 
ATOM      4  C   LIG    1       24.354 -18.564   4.545  0.00  0.00    -0.017 C 
ATOM      5  C   LIG    1       24.683 -19.169   5.933  0.00  0.00    +0.012 C 
ATOM      6  C   LIG    1       23.773 -17.129   4.718  0.00  0.00    -0.000 C 
ATOM      7  C   LIG    1       23.814 -16.275   3.421  0.00  0.00    +0.002 C 
ATOM      8  C   LIG    1       25.230 -16.181   2.808  0.00  0.00    +0.035 C 
ATOM      9  C   LIG    1       25.703 -17.628   2.522  0.00  0.00    +0.119 C 
ATOM     10  C   LIG    1       26.229 -15.143   3.496  0.00  0.00    +0.016 C 
ATOM     11  C   LIG    1       27.251 -14.675   2.417  0.00  0.00    +0.020 C 
ATOM     12  C   LIG    1       25.507 -13.874   4.034  0.00  0.00    -0.023 C 
ATOM     13  C   LIG    1       26.236 -12.964   4.726  0.00  0.00    +0.053 C 
ATOM     14  C   LIG    1       26.806 -13.621   5.961  0.00  0.00    +0.179 C 
ATOM     15  O   LIG    1       26.961 -13.006   7.008  0.00  0.00    -0.288 OA
ATOM     16  C   LIG    1       27.276 -15.025   5.801  0.00  0.00    +0.047 C 
ATOM     17  C   LIG    1       24.070 -13.998   4.479  0.00  0.00    +0.193 C 
ATOM     18  F   LIG    1       23.483 -12.764   4.493  0.00  0.00    -0.241 F 
ATOM     19  C   LIG    1       27.048 -15.699   4.659  0.00  0.00    -0.012 C 
ATOM     20  C   LIG    1       23.240 -14.864   3.560  0.00  0.00    +0.045 C 
ATOM     21  C   LIG    1       25.652 -18.577   3.720  0.00  0.00    +0.039 C 
ATOM     22  C   LIG    1       22.331 -17.400   5.184  0.00  0.00    +0.008 C 
ENDROOT
BRANCH   3  23
ATOM     23  C   LIG    1       23.230 -20.847   3.975  0.00  0.00    +0.162 C 
ATOM     24  O   LIG    1       24.003 -21.535   3.306  0.00  0.00    -0.295 OA
BRANCH  23  25
ATOM     25  C   LIG    1       22.243 -21.521   4.925  0.00  0.00    +0.230 C 
BRANCH  25  26
ATOM     26  O   LIG    1       22.731 -21.572   6.255  0.00  0.00    -0.388 OA
ATOM     27  H   LIG    1       22.669 -22.508   6.534  0.00  0.00    +0.210 HD
ENDBRANCH  25  26
ENDBRANCH  23  25
ENDBRANCH   3  23
BRANCH   9  28
ATOM     28  O   LIG    1       27.010 -17.655   1.972  0.00  0.00    -0.391 OA
ATOM     29  H   LIG    1       27.049 -17.019   1.236  0.00  0.00    +0.210 HD
ENDBRANCH   9  28
TORSDOF 4
ENDMDL
MODEL 2
REMARK VINA RESULT:      18.8      2.365      6.475
REMARK  Name = *****
REMARK                            x       y       z     vdW  Elec       q    Type
REMARK                         _______ _______ _______ _____ _____    ______ ____
ROOT
ATOM      1  C   LIG    1       25.148 -12.216   6.067  0.00  0.00    +0.008 C 
ATOM      2  C   LIG    1       24.853 -12.609   4.622  0.00  0.00    -0.003 C 
ATOM      3  C   LIG    1       25.854 -13.666   4.087  0.00  0.00    +0.067 C 
ATOM      4  C   LIG    1       24.988 -14.611   3.209  0.00  0.00    -0.017 C 
ATOM      5  C   LIG    1       24.726 -13.992   1.813  0.00  0.00    +0.012 C 
ATOM      6  C   LIG    1       23.657 -14.681   4.015  0.00  0.00    -0.000 C 
ATOM      7  C   LIG    1       23.706 -15.656   5.224  0.00  0.00    +0.002 C 
ATOM      8  C   LIG    1       24.137 -17.086   4.825  0.00  0.00    +0.035 C 
ATOM      9  C   LIG    1       25.530 -16.976   4.158  0.00  0.00    +0.119 C 
ATOM     10  C   LIG    1       23.011 -18.003   4.161  0.00  0.00    +0.016 C 
ATOM     11  C   LIG    1       23.360 -19.490   4.471  0.00  0.00    +0.020 C 
ATOM     12  C   LIG    1       21.591 -17.729   4.734  0.00  0.00    -0.023 C 
ATOM     13  C   LIG    1       20.537 -18.377   4.179  0.00  0.00    +0.053 C 
ATOM     14  C   LIG    1       20.432 -17.994   2.723  0.00  0.00    +0.179 C 
ATOM     15  O   LIG    1       19.351 -17.907   2.154  0.00  0.00    -0.288 OA
ATOM     16  C   LIG    1       21.718 -17.844   1.987  0.00  0.00    +0.047 C 
ATOM     17  C   LIG    1       21.278 -16.344   5.249  0.00  0.00    +0.193 C 
ATOM     18  F   LIG    1       20.200 -16.397   6.089  0.00  0.00    -0.241 F 
ATOM     19  C   LIG    1       22.892 -17.892   2.643  0.00  0.00    -0.012 C 
ATOM     20  C   LIG    1       22.414 -15.737   6.039  0.00  0.00    +0.045 C 
ATOM     21  C   LIG    1       25.614 -15.998   2.985  0.00  0.00    +0.039 C 
ATOM     22  C   LIG    1       23.451 -13.222   4.460  0.00  0.00    +0.008 C 
ENDROOT
BRANCH   3  23
ATOM     23  C   LIG    1       27.046 -13.017   3.371  0.00  0.00    +0.162 C 
ATOM     24  O   LIG    1       26.914 -12.149   2.505  0.00  0.00    -0.295 OA
BRANCH  23  25
ATOM     25  C   LIG    1       28.441 -13.518   3.736  0.00  0.00    +0.230 C 
BRANCH  25  26
ATOM     26  O   LIG    1       29.436 -12.531   3.522  0.00  0.00    -0.388 OA
ATOM     27  H   LIG    1       30.290 -12.950   3.752  0.00  0.00    +0.210 HD
ENDBRANCH  25  26
ENDBRANCH  23  25
ENDBRANCH   3  23
BRANCH   9  28
ATOM     28  O   LIG    1       26.012 -18.241   3.734  0.00  0.00    -0.391 OA
ATOM     29  H   LIG    1       26.457 -18.670   4.485  0.00  0.00    +0.210 HD
ENDBRANCH   9  28
TORSDOF 4
ENDMDL
