MODEL 1
REMARK VINA RESULT:      -6.7      0.000      0.000
REMARK  Name = *****
REMARK                            x       y       z     vdW  Elec       q    Type
REMARK                         _______ _______ _______ _____ _____    ______ ____
ROOT
ATOM      1  C   LIG    1       24.395 -20.641   5.802  0.00  0.00    +0.100 A 
ATOM      2  C   LIG    1       25.148 -20.153   4.726  0.00  0.00    +0.131 A 
ATOM      3  C   LIG    1       24.556 -19.311   3.778  0.00  0.00    +0.046 A 
ATOM      4  C   LIG    1       23.214 -18.945   3.905  0.00  0.00    +0.004 A 
ATOM      5  C   LIG    1       22.462 -19.415   4.978  0.00  0.00    +0.001 A 
ATOM      6  C   LIG    1       23.050 -20.257   5.925  0.00  0.00    +0.019 A 
ENDROOT
BRANCH   1   8
ATOM      7  O   LIG    1       24.720 -21.309   8.062  0.00  0.00    -0.245 OA
ATOM      8  C   LIG    1       24.940 -21.512   6.874  0.00  0.00    +0.343 C 
BRANCH   8   9
ATOM      9  O   LIG    1       25.605 -22.580   6.374  0.00  0.00    -0.459 OA
BRANCH   9  10
ATOM     10  C   LIG    1       24.795 -23.526   5.648  0.00  0.00    +0.260 C 
BRANCH  10  11
ATOM     11  C   LIG    1       23.991 -24.405   6.603  0.00  0.00    +0.197 C 
BRANCH  11  12
ATOM     12  O   LIG    1       22.612 -24.041   6.585  0.00  0.00    -0.392 OA
ATOM     13  H   LIG    1       22.318 -24.034   7.514  0.00  0.00    +0.209 HD
ENDBRANCH  11  12
ENDBRANCH  10  11
ENDBRANCH   9  10
ENDBRANCH   8   9
ENDBRANCH   1   8
BRANCH   2  14
ATOM     14  O   LIG    1       26.475 -20.452   4.602  0.00  0.00    -0.506 OA
ATOM     15  H   LIG    1       26.712 -20.489   3.660  0.00  0.00    +0.292 HD
ENDBRANCH   2  14
TORSDOF 6
ENDMDL
MODEL 2
REMARK VINA RESULT:      -6.7      4.172      5.598
REMARK  Name = *****
REMARK                            x       y       z     vdW  Elec       q    Type
REMARK                         _______ _______ _______ _____ _____    ______ ____
ROOT
ATOM      1  C   LIG    1       27.443 -20.478   7.344  0.00  0.00    +0.100 A 
ATOM      2  C   LIG    1       27.040 -20.350   6.008  0.00  0.00    +0.131 A 
ATOM      3  C   LIG    1       25.689 -20.478   5.665  0.00  0.00    +0.046 A 
ATOM      4  C   LIG    1       24.735 -20.724   6.654  0.00  0.00    +0.004 A 
ATOM      5  C   LIG    1       25.124 -20.839   7.986  0.00  0.00    +0.001 A 
ATOM      6  C   LIG    1       26.472 -20.714   8.331  0.00  0.00    +0.019 A 
ENDROOT
BRANCH   1   8
ATOM      7  O   LIG    1       29.420 -21.195   8.457  0.00  0.00    -0.245 OA
ATOM      8  C   LIG    1       28.844 -20.328   7.811  0.00  0.00    +0.343 C 
BRANCH   8   9
ATOM      9  O   LIG    1       29.413 -19.187   7.354  0.00  0.00    -0.459 OA
BRANCH   9  10
ATOM     10  C   LIG    1       30.828 -19.266   7.090  0.00  0.00    +0.260 C 
BRANCH  10  11
ATOM     11  C   LIG    1       31.632 -18.637   8.225  0.00  0.00    +0.197 C 
BRANCH  11  12
ATOM     12  O   LIG    1       32.049 -19.631   9.160  0.00  0.00    -0.392 OA
ATOM     13  H   LIG    1       32.737 -19.217   9.712  0.00  0.00    +0.209 HD
ENDBRANCH  11  12
ENDBRANCH  10  11
ENDBRANCH   9  10
ENDBRANCH   8   9
ENDBRANCH   1   8
BRANCH   2  14
ATOM     14  O   LIG    1       27.943 -20.060   5.025  0.00  0.00    -0.506 OA
ATOM     15  H   LIG    1       27.508 -19.544   4.327  0.00  0.00    +0.292 HD
ENDBRANCH   2  14
TORSDOF 6
ENDMDL
MODEL 3
REMARK VINA RESULT:      -6.7      6.249      7.765
REMARK  Name = *****
REMARK                            x       y       z     vdW  Elec       q    Type
REMARK                         _______ _______ _______ _____ _____    ______ ____
ROOT
ATOM      1  C   LIG    1       30.336 -19.494   7.607  0.00  0.00    +0.100 A 
ATOM      2  C   LIG    1       29.591 -20.666   7.794  0.00  0.00    +0.131 A 
ATOM      3  C   LIG    1       28.522 -20.964   6.942  0.00  0.00    +0.046 A 
ATOM      4  C   LIG    1       28.198 -20.099   5.894  0.00  0.00    +0.004 A 
ATOM      5  C   LIG    1       28.941 -18.939   5.692  0.00  0.00    +0.001 A 
ATOM      6  C   LIG    1       30.007 -18.639   6.543  0.00  0.00    +0.019 A 
ENDROOT
BRANCH   1   8
ATOM      7  O   LIG    1       32.125 -19.916   9.117  0.00  0.00    -0.245 OA
ATOM      8  C   LIG    1       31.505 -19.107   8.437  0.00  0.00    +0.343 C 
BRANCH   8   9
ATOM      9  O   LIG    1       31.843 -17.808   8.266  0.00  0.00    -0.459 OA
BRANCH   9  10
ATOM     10  C   LIG    1       31.798 -16.997   9.457  0.00  0.00    +0.260 C 
BRANCH  10  11
ATOM     11  C   LIG    1       30.398 -16.994  10.065  0.00  0.00    +0.197 C 
BRANCH  11  12
ATOM     12  O   LIG    1       30.387 -16.290  11.306  0.00  0.00    -0.392 OA
ATOM     13  H   LIG    1       30.206 -16.954  11.996  0.00  0.00    +0.209 HD
ENDBRANCH  11  12
ENDBRANCH  10  11
ENDBRANCH   9  10
ENDBRANCH   8   9
ENDBRANCH   1   8
BRANCH   2  14
ATOM     14  O   LIG    1       29.914 -21.556   8.778  0.00  0.00    -0.506 OA
ATOM     15  H   LIG    1       30.298 -21.080   9.533  0.00  0.00    +0.292 HD
ENDBRANCH   2  14
TORSDOF 6
ENDMDL
MODEL 4
REMARK VINA RESULT:      -6.5      3.560      5.257
REMARK  Name = *****
REMARK                            x       y       z     vdW  Elec       q    Type
REMARK                         _______ _______ _______ _____ _____    ______ ____
ROOT
ATOM      1  C   LIG    1       26.693 -20.515   7.183  0.00  0.00    +0.100 A 
ATOM      2  C   LIG    1       25.620 -20.712   8.062  0.00  0.00    +0.131 A 
ATOM      3  C   LIG    1       24.311 -20.785   7.571  0.00  0.00    +0.046 A 
ATOM      4  C   LIG    1       24.070 -20.675   6.200  0.00  0.00    +0.004 A 
ATOM      5  C   LIG    1       25.131 -20.493   5.317  0.00  0.00    +0.001 A 
ATOM      6  C   LIG    1       26.437 -20.417   5.805  0.00  0.00    +0.019 A 
ENDROOT
BRANCH   1   8
ATOM      7  O   LIG    1       28.591 -21.228   8.427  0.00  0.00    -0.245 OA
ATOM      8  C   LIG    1       28.115 -20.455   7.603  0.00  0.00    +0.343 C 
BRANCH   8   9
ATOM      9  O   LIG    1       28.814 -19.531   6.902  0.00  0.00    -0.459 OA
BRANCH   9  10
ATOM     10  C   LIG    1       29.840 -18.842   7.643  0.00  0.00    +0.260 C 
BRANCH  10  11
ATOM     11  C   LIG    1       31.231 -19.274   7.185  0.00  0.00    +0.197 C 
BRANCH  11  12
ATOM     12  O   LIG    1       31.577 -20.540   7.746  0.00  0.00    -0.392 OA
ATOM     13  H   LIG    1       32.119 -20.352   8.533  0.00  0.00    +0.209 HD
ENDBRANCH  11  12
ENDBRANCH  10  11
ENDBRANCH   9  10
ENDBRANCH   8   9
ENDBRANCH   1   8
BRANCH   2  14
ATOM     14  O   LIG    1       25.829 -20.873   9.403  0.00  0.00    -0.506 OA
ATOM     15  H   LIG    1       26.000 -20.009   9.811  0.00  0.00    +0.292 HD
ENDBRANCH   2  14
TORSDOF 6
ENDMDL
MODEL 5
REMARK VINA RESULT:      -6.5      2.977      4.362
REMARK  Name = *****
REMARK                            x       y       z     vdW  Elec       q    Type
REMARK                         _______ _______ _______ _____ _____    ______ ____
ROOT
ATOM      1  C   LIG    1       25.825 -20.668   6.927  0.00  0.00    +0.100 A 
ATOM      2  C   LIG    1       25.854 -20.431   5.546  0.00  0.00    +0.131 A 
ATOM      3  C   LIG    1       24.660 -20.330   4.823  0.00  0.00    +0.046 A 
ATOM      4  C   LIG    1       23.432 -20.454   5.477  0.00  0.00    +0.004 A 
ATOM      5  C   LIG    1       23.392 -20.676   6.851  0.00  0.00    +0.001 A 
ATOM      6  C   LIG    1       24.583 -20.780   7.574  0.00  0.00    +0.019 A 
ENDROOT
BRANCH   1   8
ATOM      7  O   LIG    1       27.134 -21.573   8.695  0.00  0.00    -0.245 OA
ATOM      8  C   LIG    1       27.034 -20.760   7.784  0.00  0.00    +0.343 C 
BRANCH   8   9
ATOM      9  O   LIG    1       28.014 -19.922   7.372  0.00  0.00    -0.459 OA
BRANCH   9  10
ATOM     10  C   LIG    1       29.352 -20.452   7.449  0.00  0.00    +0.260 C 
BRANCH  10  11
ATOM     11  C   LIG    1       30.352 -19.513   6.781  0.00  0.00    +0.197 C 
BRANCH  11  12
ATOM     12  O   LIG    1       31.688 -19.852   7.150  0.00  0.00    -0.392 OA
ATOM     13  H   LIG    1       32.129 -19.016   7.385  0.00  0.00    +0.209 HD
ENDBRANCH  11  12
ENDBRANCH  10  11
ENDBRANCH   9  10
ENDBRANCH   8   9
ENDBRANCH   1   8
BRANCH   2  14
ATOM     14  O   LIG    1       27.038 -20.256   4.887  0.00  0.00    -0.506 OA
ATOM     15  H   LIG    1       27.767 -20.592   5.434  0.00  0.00    +0.292 HD
ENDBRANCH   2  14
TORSDOF 6
ENDMDL
MODEL 6
REMARK VINA RESULT:      -6.3      3.095      4.909
REMARK  Name = *****
REMARK                            x       y       z     vdW  Elec       q    Type
REMARK                         _______ _______ _______ _____ _____    ______ ____
ROOT
ATOM      1  C   LIG    1       25.331 -22.443   7.684  0.00  0.00    +0.100 A 
ATOM      2  C   LIG    1       23.975 -22.174   7.452  0.00  0.00    +0.131 A 
ATOM      3  C   LIG    1       23.164 -23.132   6.833  0.00  0.00    +0.046 A 
ATOM      4  C   LIG    1       23.699 -24.365   6.454  0.00  0.00    +0.004 A 
ATOM      5  C   LIG    1       25.042 -24.646   6.693  0.00  0.00    +0.001 A 
ATOM      6  C   LIG    1       25.854 -23.691   7.308  0.00  0.00    +0.019 A 
ENDROOT
BRANCH   1   8
ATOM      7  O   LIG    1       25.913 -20.784   9.287  0.00  0.00    -0.245 OA
ATOM      8  C   LIG    1       26.263 -21.506   8.361  0.00  0.00    +0.343 C 
BRANCH   8   9
ATOM      9  O   LIG    1       27.530 -21.627   7.899  0.00  0.00    -0.459 OA
BRANCH   9  10
ATOM     10  C   LIG    1       28.038 -20.482   7.186  0.00  0.00    +0.260 C 
BRANCH  10  11
ATOM     11  C   LIG    1       29.461 -20.149   7.629  0.00  0.00    +0.197 C 
BRANCH  11  12
ATOM     12  O   LIG    1       30.199 -21.340   7.895  0.00  0.00    -0.392 OA
ATOM     13  H   LIG    1       29.663 -22.078   7.551  0.00  0.00    +0.209 HD
ENDBRANCH  11  12
ENDBRANCH  10  11
ENDBRANCH   9  10
ENDBRANCH   8   9
ENDBRANCH   1   8
BRANCH   2  14
ATOM     14  O   LIG    1       23.411 -20.998   7.857  0.00  0.00    -0.506 OA
ATOM     15  H   LIG    1       23.131 -20.488   7.079  0.00  0.00    +0.292 HD
ENDBRANCH   2  14
TORSDOF 6
ENDMDL
MODEL 7
REMARK VINA RESULT:      -6.3      3.330      4.726
REMARK  Name = *****
REMARK                            x       y       z     vdW  Elec       q    Type
REMARK                         _______ _______ _______ _____ _____    ______ ____
ROOT
ATOM      1  C   LIG    1       25.000 -24.180   6.647  0.00  0.00    +0.100 A 
ATOM      2  C   LIG    1       23.744 -23.569   6.766  0.00  0.00    +0.131 A 
ATOM      3  C   LIG    1       23.628 -22.308   7.360  0.00  0.00    +0.046 A 
ATOM      4  C   LIG    1       24.765 -21.646   7.829  0.00  0.00    +0.004 A 
ATOM      5  C   LIG    1       26.019 -22.238   7.703  0.00  0.00    +0.001 A 
ATOM      6  C   LIG    1       26.137 -23.498   7.112  0.00  0.00    +0.019 A 
ENDROOT
BRANCH   1   8
ATOM      7  O   LIG    1       26.271 -25.774   5.422  0.00  0.00    -0.245 OA
ATOM      8  C   LIG    1       25.229 -25.498   6.005  0.00  0.00    +0.343 C 
BRANCH   8   9
ATOM      9  O   LIG    1       24.208 -26.358   6.231  0.00  0.00    -0.459 OA
BRANCH   9  10
ATOM     10  C   LIG    1       24.596 -27.722   6.492  0.00  0.00    +0.260 C 
BRANCH  10  11
ATOM     11  C   LIG    1       24.384 -28.597   5.260  0.00  0.00    +0.197 C 
BRANCH  11  12
ATOM     12  O   LIG    1       23.186 -29.363   5.384  0.00  0.00    -0.392 OA
ATOM     13  H   LIG    1       22.935 -29.329   6.325  0.00  0.00    +0.209 HD
ENDBRANCH  11  12
ENDBRANCH  10  11
ENDBRANCH   9  10
ENDBRANCH   8   9
ENDBRANCH   1   8
BRANCH   2  14
ATOM     14  O   LIG    1       22.620 -24.169   6.273  0.00  0.00    -0.506 OA
ATOM     15  H   LIG    1       22.494 -23.910   5.346  0.00  0.00    +0.292 HD
ENDBRANCH   2  14
TORSDOF 6
ENDMDL
MODEL 8
REMARK VINA RESULT:      -6.2      1.663      4.616
REMARK  Name = *****
REMARK                            x       y       z     vdW  Elec       q    Type
REMARK                         _______ _______ _______ _____ _____    ______ ____
ROOT
ATOM      1  C   LIG    1       24.039 -22.688   6.864  0.00  0.00    +0.100 A 
ATOM      2  C   LIG    1       23.322 -23.870   6.630  0.00  0.00    +0.131 A 
ATOM      3  C   LIG    1       23.996 -25.091   6.517  0.00  0.00    +0.046 A 
ATOM      4  C   LIG    1       25.385 -25.141   6.648  0.00  0.00    +0.004 A 
ATOM      5  C   LIG    1       26.105 -23.975   6.895  0.00  0.00    +0.001 A 
ATOM      6  C   LIG    1       25.435 -22.754   7.006  0.00  0.00    +0.019 A 
ENDROOT
BRANCH   1   8
ATOM      7  O   LIG    1       23.683 -20.612   7.969  0.00  0.00    -0.245 OA
ATOM      8  C   LIG    1       23.414 -21.353   7.030  0.00  0.00    +0.343 C 
BRANCH   8   9
ATOM      9  O   LIG    1       22.612 -21.033   5.987  0.00  0.00    -0.459 OA
BRANCH   9  10
ATOM     10  C   LIG    1       22.999 -19.858   5.248  0.00  0.00    +0.260 C 
BRANCH  10  11
ATOM     11  C   LIG    1       23.992 -20.209   4.143  0.00  0.00    +0.197 C 
BRANCH  11  12
ATOM     12  O   LIG    1       23.743 -21.520   3.637  0.00  0.00    -0.392 OA
ATOM     13  H   LIG    1       23.820 -22.126   4.396  0.00  0.00    +0.209 HD
ENDBRANCH  11  12
ENDBRANCH  10  11
ENDBRANCH   9  10
ENDBRANCH   8   9
ENDBRANCH   1   8
BRANCH   2  14
ATOM     14  O   LIG    1       21.959 -23.861   6.546  0.00  0.00    -0.506 OA
ATOM     15  H   LIG    1       21.582 -24.255   7.350  0.00  0.00    +0.292 HD
ENDBRANCH   2  14
TORSDOF 6
ENDMDL
MODEL 9
REMARK VINA RESULT:      -6.2      2.122      3.462
REMARK  Name = *****
REMARK                            x       y       z     vdW  Elec       q    Type
REMARK                         _______ _______ _______ _____ _____    ______ ____
ROOT
ATOM      1  C   LIG    1       25.726 -20.652   6.919  0.00  0.00    +0.100 A 
ATOM      2  C   LIG    1       26.473 -20.514   8.097  0.00  0.00    +0.131 A 
ATOM      3  C   LIG    1       27.817 -20.128   8.037  0.00  0.00    +0.046 A 
ATOM      4  C   LIG    1       28.418 -19.868   6.804  0.00  0.00    +0.004 A 
ATOM      5  C   LIG    1       27.680 -19.989   5.629  0.00  0.00    +0.001 A 
ATOM      6  C   LIG    1       26.339 -20.376   5.686  0.00  0.00    +0.019 A 
ENDROOT
BRANCH   1   8
ATOM      7  O   LIG    1       23.456 -20.369   6.269  0.00  0.00    -0.245 OA
ATOM      8  C   LIG    1       24.290 -21.025   6.881  0.00  0.00    +0.343 C 
BRANCH   8   9
ATOM      9  O   LIG    1       24.053 -22.201   7.508  0.00  0.00    -0.459 OA
BRANCH   9  10
ATOM     10  C   LIG    1       24.599 -23.367   6.860  0.00  0.00    +0.260 C 
BRANCH  10  11
ATOM     11  C   LIG    1       23.512 -24.405   6.594  0.00  0.00    +0.197 C 
BRANCH  11  12
ATOM     12  O   LIG    1       22.217 -23.812   6.670  0.00  0.00    -0.392 OA
ATOM     13  H   LIG    1       21.964 -23.587   5.757  0.00  0.00    +0.209 HD
ENDBRANCH  11  12
ENDBRANCH  10  11
ENDBRANCH   9  10
ENDBRANCH   8   9
ENDBRANCH   1   8
BRANCH   2  14
ATOM     14  O   LIG    1       25.900 -20.713   9.321  0.00  0.00    -0.506 OA
ATOM     15  H   LIG    1       26.471 -21.288   9.857  0.00  0.00    +0.292 HD
ENDBRANCH   2  14
TORSDOF 6
ENDMDL
