MODEL 1
REMARK VINA RESULT:      -3.4      0.000      0.000
REMARK  Name = *****
REMARK                            x       y       z     vdW  Elec       q    Type
REMARK                         _______ _______ _______ _____ _____    ______ ____
ROOT
ATOM      1  C   LIG    1       25.309 -20.415   4.096  0.00  0.00    +0.232 C 
ENDROOT
BRANCH   1   2
ATOM      2  O   LIG    1       25.830 -19.708   5.256  0.00  0.00    -0.456 OA
BRANCH   2   4
ATOM      3  C   LIG    1       26.714 -21.148   6.903  0.00  0.00    +0.136 C 
ATOM      4  C   LIG    1       26.989 -20.158   5.816  0.00  0.00    +0.304 C 
ATOM      5  O   LIG    1       28.098 -19.773   5.479  0.00  0.00    -0.251 OA
ENDBRANCH   2   4
ENDBRANCH   1   2
BRANCH   1   6
ATOM      6  C   LIG    1       25.166 -19.342   2.986  0.00  0.00    +0.170 C 
BRANCH   6   7
ATOM      7  C   LIG    1       25.586 -17.970   3.423  0.00  0.00    +0.308 C 
ATOM      8  O   LIG    1       24.785 -17.064   3.632  0.00  0.00    -0.251 OA
BRANCH   7   9
ATOM      9  O   LIG    1       26.907 -17.825   3.595  0.00  0.00    -0.480 OA
ATOM     10  H   LIG    1       27.248 -16.914   3.655  0.00  0.00    +0.295 HD
ENDBRANCH   7   9
ENDBRANCH   6   7
ENDBRANCH   1   6
BRANCH   1  11
ATOM     11  C   LIG    1       24.042 -21.309   4.330  0.00  0.00    +0.178 C 
BRANCH  11  12
ATOM     12  N   LIG    1       22.911 -20.705   5.240  0.00  0.00    +0.239 N 
ATOM     13  C   LIG    1       21.649 -21.572   5.062  0.00  0.00    +0.192 C 
ATOM     14  C   LIG    1       22.513 -19.294   4.835  0.00  0.00    +0.192 C 
ATOM     15  C   LIG    1       23.290 -20.743   6.713  0.00  0.00    +0.192 C 
ENDBRANCH  11  12
ENDBRANCH   1  11
TORSDOF 7
ENDMDL
MODEL 2
REMARK VINA RESULT:      -3.1      5.095      6.856
REMARK  Name = *****
REMARK                            x       y       z     vdW  Elec       q    Type
REMARK                         _______ _______ _______ _____ _____    ______ ____
ROOT
ATOM      1  C   LIG    1       26.739 -14.046   3.407  0.00  0.00    +0.232 C 
ENDROOT
BRANCH   1   2
ATOM      2  O   LIG    1       26.061 -15.285   3.756  0.00  0.00    -0.456 OA
BRANCH   2   4
ATOM      3  C   LIG    1       25.913 -17.572   3.194  0.00  0.00    +0.136 C 
ATOM      4  C   LIG    1       26.769 -16.447   3.685  0.00  0.00    +0.304 C 
ATOM      5  O   LIG    1       27.943 -16.547   4.008  0.00  0.00    -0.251 OA
ENDBRANCH   2   4
ENDBRANCH   1   2
BRANCH   1   6
ATOM      6  C   LIG    1       27.447 -13.581   4.705  0.00  0.00    +0.170 C 
BRANCH   6   7
ATOM      7  C   LIG    1       28.708 -12.807   4.454  0.00  0.00    +0.308 C 
ATOM      8  O   LIG    1       29.409 -12.982   3.461  0.00  0.00    -0.251 OA
BRANCH   7   9
ATOM      9  O   LIG    1       28.990 -11.889   5.388  0.00  0.00    -0.480 OA
ATOM     10  H   LIG    1       29.856 -11.957   5.828  0.00  0.00    +0.295 HD
ENDBRANCH   7   9
ENDBRANCH   6   7
ENDBRANCH   1   6
BRANCH   1  11
ATOM     11  C   LIG    1       25.875 -12.952   2.688  0.00  0.00    +0.178 C 
BRANCH  11  12
ATOM     12  N   LIG    1       24.462 -12.648   3.308  0.00  0.00    +0.239 N 
ATOM     13  C   LIG    1       23.858 -11.455   2.542  0.00  0.00    +0.192 C 
ATOM     14  C   LIG    1       24.534 -12.220   4.766  0.00  0.00    +0.192 C 
ATOM     15  C   LIG    1       23.511 -13.825   3.150  0.00  0.00    +0.192 C 
ENDBRANCH  11  12
ENDBRANCH   1  11
TORSDOF 7
ENDMDL
MODEL 3
REMARK VINA RESULT:      -3.1      4.885      6.685
REMARK  Name = *****
REMARK                            x       y       z     vdW  Elec       q    Type
REMARK                         _______ _______ _______ _____ _____    ______ ____
ROOT
ATOM      1  C   LIG    1       26.620 -14.324   4.084  0.00  0.00    +0.232 C 
ENDROOT
BRANCH   1   2
ATOM      2  O   LIG    1       27.984 -14.246   4.582  0.00  0.00    -0.456 OA
BRANCH   2   4
ATOM      3  C   LIG    1       28.778 -12.101   5.164  0.00  0.00    +0.136 C 
ATOM      4  C   LIG    1       28.765 -13.211   4.161  0.00  0.00    +0.304 C 
ATOM      5  O   LIG    1       29.351 -13.197   3.090  0.00  0.00    -0.251 OA
ENDBRANCH   2   4
ENDBRANCH   1   2
BRANCH   1   6
ATOM      6  C   LIG    1       26.660 -15.350   2.922  0.00  0.00    +0.170 C 
BRANCH   6   7
ATOM      7  C   LIG    1       26.722 -16.775   3.386  0.00  0.00    +0.308 C 
ATOM      8  O   LIG    1       25.818 -17.580   3.185  0.00  0.00    -0.251 OA
BRANCH   7   9
ATOM      9  O   LIG    1       27.860 -17.104   4.012  0.00  0.00    -0.480 OA
ATOM     10  H   LIG    1       28.667 -16.632   3.740  0.00  0.00    +0.295 HD
ENDBRANCH   7   9
ENDBRANCH   6   7
ENDBRANCH   1   6
BRANCH   1  11
ATOM     11  C   LIG    1       25.915 -12.963   3.750  0.00  0.00    +0.178 C 
BRANCH  11  12
ATOM     12  N   LIG    1       24.343 -12.949   3.808  0.00  0.00    +0.239 N 
ATOM     13  C   LIG    1       23.822 -12.670   2.385  0.00  0.00    +0.192 C 
ATOM     14  C   LIG    1       23.791 -11.836   4.685  0.00  0.00    +0.192 C 
ATOM     15  C   LIG    1       23.783 -14.294   4.247  0.00  0.00    +0.192 C 
ENDBRANCH  11  12
ENDBRANCH   1  11
TORSDOF 7
ENDMDL
MODEL 4
REMARK VINA RESULT:      -3.1      1.506      3.272
REMARK  Name = *****
REMARK                            x       y       z     vdW  Elec       q    Type
REMARK                         _______ _______ _______ _____ _____    ______ ____
ROOT
ATOM      1  C   LIG    1       24.995 -18.740   3.762  0.00  0.00    +0.232 C 
ENDROOT
BRANCH   1   2
ATOM      2  O   LIG    1       25.875 -17.939   2.924  0.00  0.00    -0.456 OA
BRANCH   2   4
ATOM      3  C   LIG    1       25.840 -15.620   3.360  0.00  0.00    +0.136 C 
ATOM      4  C   LIG    1       26.566 -16.920   3.508  0.00  0.00    +0.304 C 
ATOM      5  O   LIG    1       27.648 -17.061   4.057  0.00  0.00    -0.251 OA
ENDBRANCH   2   4
ENDBRANCH   1   2
BRANCH   1   6
ATOM      6  C   LIG    1       25.745 -20.077   3.991  0.00  0.00    +0.170 C 
BRANCH   6   7
ATOM      7  C   LIG    1       26.507 -20.121   5.283  0.00  0.00    +0.308 C 
ATOM      8  O   LIG    1       25.974 -20.365   6.361  0.00  0.00    -0.251 OA
BRANCH   7   9
ATOM      9  O   LIG    1       27.822 -19.900   5.157  0.00  0.00    -0.480 OA
ATOM     10  H   LIG    1       28.359 -19.950   5.968  0.00  0.00    +0.295 HD
ENDBRANCH   7   9
ENDBRANCH   6   7
ENDBRANCH   1   6
BRANCH   1  11
ATOM     11  C   LIG    1       23.508 -18.880   3.284  0.00  0.00    +0.178 C 
BRANCH  11  12
ATOM     12  N   LIG    1       22.393 -18.590   4.355  0.00  0.00    +0.239 N 
ATOM     13  C   LIG    1       21.025 -18.839   3.690  0.00  0.00    +0.192 C 
ATOM     14  C   LIG    1       22.378 -17.141   4.819  0.00  0.00    +0.192 C 
ATOM     15  C   LIG    1       22.500 -19.526   5.550  0.00  0.00    +0.192 C 
ENDBRANCH  11  12
ENDBRANCH   1  11
TORSDOF 7
ENDMDL
MODEL 5
REMARK VINA RESULT:      -3.0      4.734      7.435
REMARK  Name = *****
REMARK                            x       y       z     vdW  Elec       q    Type
REMARK                         _______ _______ _______ _____ _____    ______ ____
ROOT
ATOM      1  C   LIG    1       24.383 -14.358   3.726  0.00  0.00    +0.232 C 
ENDROOT
BRANCH   1   2
ATOM      2  O   LIG    1       23.557 -13.359   3.065  0.00  0.00    -0.456 OA
BRANCH   2   4
ATOM      3  C   LIG    1       24.453 -11.456   1.997  0.00  0.00    +0.136 C 
ATOM      4  C   LIG    1       23.871 -12.045   3.243  0.00  0.00    +0.304 C 
ATOM      5  O   LIG    1       23.714 -11.447   4.296  0.00  0.00    -0.251 OA
ENDBRANCH   2   4
ENDBRANCH   1   2
BRANCH   1   6
ATOM      6  C   LIG    1       23.407 -15.201   4.586  0.00  0.00    +0.170 C 
BRANCH   6   7
ATOM      7  C   LIG    1       23.396 -16.657   4.225  0.00  0.00    +0.308 C 
ATOM      8  O   LIG    1       24.362 -17.225   3.725  0.00  0.00    -0.251 OA
BRANCH   7   9
ATOM      9  O   LIG    1       22.253 -17.291   4.519  0.00  0.00    -0.480 OA
ATOM     10  H   LIG    1       21.488 -17.115   3.942  0.00  0.00    +0.295 HD
ENDBRANCH   7   9
ENDBRANCH   6   7
ENDBRANCH   1   6
BRANCH   1  11
ATOM     11  C   LIG    1       25.654 -13.831   4.478  0.00  0.00    +0.178 C 
BRANCH  11  12
ATOM     12  N   LIG    1       27.047 -14.168   3.830  0.00  0.00    +0.239 N 
ATOM     13  C   LIG    1       26.881 -14.110   2.299  0.00  0.00    +0.192 C 
ATOM     14  C   LIG    1       27.526 -15.576   4.148  0.00  0.00    +0.192 C 
ATOM     15  C   LIG    1       28.111 -13.150   4.215  0.00  0.00    +0.192 C 
ENDBRANCH  11  12
ENDBRANCH   1  11
TORSDOF 7
ENDMDL
MODEL 6
REMARK VINA RESULT:      -3.0      1.043      3.314
REMARK  Name = *****
REMARK                            x       y       z     vdW  Elec       q    Type
REMARK                         _______ _______ _______ _____ _____    ______ ____
ROOT
ATOM      1  C   LIG    1       25.395 -20.079   4.717  0.00  0.00    +0.232 C 
ENDROOT
BRANCH   1   2
ATOM      2  O   LIG    1       25.879 -19.232   3.638  0.00  0.00    -0.456 OA
BRANCH   2   4
ATOM      3  C   LIG    1       26.304 -16.936   3.298  0.00  0.00    +0.136 C 
ATOM      4  C   LIG    1       25.284 -18.019   3.456  0.00  0.00    +0.304 C 
ATOM      5  O   LIG    1       24.074 -17.851   3.451  0.00  0.00    -0.251 OA
ENDBRANCH   2   4
ENDBRANCH   1   2
BRANCH   1   6
ATOM      6  C   LIG    1       26.639 -20.848   5.231  0.00  0.00    +0.170 C 
BRANCH   6   7
ATOM      7  C   LIG    1       27.662 -19.964   5.879  0.00  0.00    +0.308 C 
ATOM      8  O   LIG    1       27.975 -20.065   7.062  0.00  0.00    -0.251 OA
BRANCH   7   9
ATOM      9  O   LIG    1       28.227 -19.073   5.053  0.00  0.00    -0.480 OA
ATOM     10  H   LIG    1       27.651 -18.667   4.380  0.00  0.00    +0.295 HD
ENDBRANCH   7   9
ENDBRANCH   6   7
ENDBRANCH   1   6
BRANCH   1  11
ATOM     11  C   LIG    1       24.141 -20.969   4.403  0.00  0.00    +0.178 C 
BRANCH  11  12
ATOM     12  N   LIG    1       22.925 -20.848   5.393  0.00  0.00    +0.239 N 
ATOM     13  C   LIG    1       22.679 -19.350   5.657  0.00  0.00    +0.192 C 
ATOM     14  C   LIG    1       23.200 -21.475   6.751  0.00  0.00    +0.192 C 
ATOM     15  C   LIG    1       21.650 -21.424   4.795  0.00  0.00    +0.192 C 
ENDBRANCH  11  12
ENDBRANCH   1  11
TORSDOF 7
ENDMDL
MODEL 7
REMARK VINA RESULT:      -2.7      4.758      6.956
REMARK  Name = *****
REMARK                            x       y       z     vdW  Elec       q    Type
REMARK                         _______ _______ _______ _____ _____    ______ ____
ROOT
ATOM      1  C   LIG    1       24.647 -14.402   3.803  0.00  0.00    +0.232 C 
ENDROOT
BRANCH   1   2
ATOM      2  O   LIG    1       24.086 -15.741   3.902  0.00  0.00    -0.456 OA
BRANCH   2   4
ATOM      3  C   LIG    1       22.361 -17.258   4.440  0.00  0.00    +0.136 C 
ATOM      4  C   LIG    1       22.986 -15.921   4.686  0.00  0.00    +0.304 C 
ATOM      5  O   LIG    1       22.564 -15.081   5.466  0.00  0.00    -0.251 OA
ENDBRANCH   2   4
ENDBRANCH   1   2
BRANCH   1   6
ATOM      6  C   LIG    1       23.533 -13.530   3.169  0.00  0.00    +0.170 C 
BRANCH   6   7
ATOM      7  C   LIG    1       23.789 -12.056   3.284  0.00  0.00    +0.308 C 
ATOM      8  O   LIG    1       23.788 -11.464   4.359  0.00  0.00    -0.251 OA
BRANCH   7   9
ATOM      9  O   LIG    1       24.047 -11.447   2.119  0.00  0.00    -0.480 OA
ATOM     10  H   LIG    1       23.906 -11.967   1.308  0.00  0.00    +0.295 HD
ENDBRANCH   7   9
ENDBRANCH   6   7
ENDBRANCH   1   6
BRANCH   1  11
ATOM     11  C   LIG    1       26.057 -14.280   3.127  0.00  0.00    +0.178 C 
BRANCH  11  12
ATOM     12  N   LIG    1       27.297 -14.202   4.092  0.00  0.00    +0.239 N 
ATOM     13  C   LIG    1       26.817 -13.604   5.429  0.00  0.00    +0.192 C 
ATOM     14  C   LIG    1       28.388 -13.273   3.582  0.00  0.00    +0.192 C 
ATOM     15  C   LIG    1       27.872 -15.580   4.386  0.00  0.00    +0.192 C 
ENDBRANCH  11  12
ENDBRANCH   1  11
TORSDOF 7
ENDMDL
MODEL 8
REMARK VINA RESULT:      -2.6      4.313      6.382
REMARK  Name = *****
REMARK                            x       y       z     vdW  Elec       q    Type
REMARK                         _______ _______ _______ _____ _____    ______ ____
ROOT
ATOM      1  C   LIG    1       25.384 -15.210   3.726  0.00  0.00    +0.232 C 
ENDROOT
BRANCH   1   2
ATOM      2  O   LIG    1       25.205 -16.395   2.901  0.00  0.00    -0.456 OA
BRANCH   2   4
ATOM      3  C   LIG    1       24.483 -18.532   3.594  0.00  0.00    +0.136 C 
ATOM      4  C   LIG    1       25.630 -17.593   3.395  0.00  0.00    +0.304 C 
ATOM      5  O   LIG    1       26.796 -17.842   3.658  0.00  0.00    -0.251 OA
ENDBRANCH   2   4
ENDBRANCH   1   2
BRANCH   1   6
ATOM      6  C   LIG    1       23.964 -14.617   3.915  0.00  0.00    +0.170 C 
BRANCH   6   7
ATOM      7  C   LIG    1       23.866 -13.169   3.537  0.00  0.00    +0.308 C 
ATOM      8  O   LIG    1       23.967 -12.260   4.356  0.00  0.00    -0.251 OA
BRANCH   7   9
ATOM      9  O   LIG    1       23.688 -12.949   2.227  0.00  0.00    -0.480 OA
ATOM     10  H   LIG    1       23.798 -13.712   1.632  0.00  0.00    +0.295 HD
ENDBRANCH   7   9
ENDBRANCH   6   7
ENDBRANCH   1   6
BRANCH   1  11
ATOM     11  C   LIG    1       26.479 -14.189   3.259  0.00  0.00    +0.178 C 
BRANCH  11  12
ATOM     12  N   LIG    1       27.629 -13.870   4.284  0.00  0.00    +0.239 N 
ATOM     13  C   LIG    1       28.283 -15.205   4.688  0.00  0.00    +0.192 C 
ATOM     14  C   LIG    1       27.119 -13.243   5.572  0.00  0.00    +0.192 C 
ATOM     15  C   LIG    1       28.711 -12.997   3.665  0.00  0.00    +0.192 C 
ENDBRANCH  11  12
ENDBRANCH   1  11
TORSDOF 7
ENDMDL
MODEL 9
REMARK VINA RESULT:      -2.1      3.769      6.331
REMARK  Name = *****
REMARK                            x       y       z     vdW  Elec       q    Type
REMARK                         _______ _______ _______ _____ _____    ______ ____
ROOT
ATOM      1  C   LIG    1       25.720 -16.087   3.345  0.00  0.00    +0.232 C 
ENDROOT
BRANCH   1   2
ATOM      2  O   LIG    1       24.649 -16.141   4.329  0.00  0.00    -0.456 OA
BRANCH   2   4
ATOM      3  C   LIG    1       22.406 -15.740   4.940  0.00  0.00    +0.136 C 
ATOM      4  C   LIG    1       23.618 -15.258   4.207  0.00  0.00    +0.304 C 
ATOM      5  O   LIG    1       23.683 -14.225   3.559  0.00  0.00    -0.251 OA
ENDBRANCH   2   4
ENDBRANCH   1   2
BRANCH   1   6
ATOM      6  C   LIG    1       25.858 -17.533   2.801  0.00  0.00    +0.170 C 
BRANCH   6   7
ATOM      7  C   LIG    1       25.241 -18.568   3.695  0.00  0.00    +0.308 C 
ATOM      8  O   LIG    1       25.903 -19.272   4.452  0.00  0.00    -0.251 OA
BRANCH   7   9
ATOM      9  O   LIG    1       23.905 -18.641   3.618  0.00  0.00    -0.480 OA
ATOM     10  H   LIG    1       23.451 -19.171   4.297  0.00  0.00    +0.295 HD
ENDBRANCH   7   9
ENDBRANCH   6   7
ENDBRANCH   1   6
BRANCH   1  11
ATOM     11  C   LIG    1       27.060 -15.413   3.802  0.00  0.00    +0.178 C 
BRANCH  11  12
ATOM     12  N   LIG    1       27.089 -13.841   3.820  0.00  0.00    +0.239 N 
ATOM     13  C   LIG    1       28.563 -13.396   3.757  0.00  0.00    +0.192 C 
ATOM     14  C   LIG    1       26.525 -13.252   5.104  0.00  0.00    +0.192 C 
ATOM     15  C   LIG    1       26.379 -13.249   2.611  0.00  0.00    +0.192 C 
ENDBRANCH  11  12
ENDBRANCH   1  11
TORSDOF 7
ENDMDL
