MODEL 1
REMARK VINA RESULT:     -10.7      0.000      0.000
REMARK  Name = *****
REMARK                            x       y       z     vdW  Elec       q    Type
REMARK                         _______ _______ _______ _____ _____    ______ ____
ROOT
ATOM      1  O   LIG    1       26.070 -20.407   6.660  0.00  0.00    -0.458 OA
ENDROOT
BRANCH   1   2
ATOM      2  C   LIG    1       27.455 -20.774   6.617  0.00  0.00    +0.180 C 
ATOM      3  C   LIG    1       28.327 -19.454   6.087  0.00  0.00    +0.063 C 
ATOM      4  C   LIG    1       29.733 -19.666   6.607  0.00  0.00    +0.061 C 
ATOM      5  N   LIG    1       29.264 -19.803   7.961  0.00  0.00    -0.289 NA
ATOM      6  C   LIG    1       29.435 -21.219   8.143  0.00  0.00    +0.061 C 
ATOM      7  C   LIG    1       30.825 -21.308   8.757  0.00  0.00    +0.030 C 
ATOM      8  C   LIG    1       31.678 -20.021   8.202  0.00  0.00    +0.060 C 
ATOM      9  C   LIG    1       31.173 -18.980   9.162  0.00  0.00    +0.150 C 
ATOM     10  O   LIG    1       31.869 -18.344   9.941  0.00  0.00    -0.296 OA
ATOM     11  C   LIG    1       29.676 -18.847   9.010  0.00  0.00    +0.159 C 
ATOM     12  C   LIG    1       31.201 -19.321   6.799  0.00  0.00    +0.030 C 
ATOM     13  C   LIG    1       27.939 -21.459   8.069  0.00  0.00    +0.063 C 
ENDBRANCH   1   2
BRANCH   1  15
ATOM     14  O   LIG    1       25.399 -20.595   8.843  0.00  0.00    -0.245 OA
ATOM     15  C   LIG    1       25.345 -20.962   7.673  0.00  0.00    +0.342 C 
BRANCH  15  16
ATOM     16  C   LIG    1       24.467 -22.024   7.205  0.00  0.00    +0.084 C 
ATOM     17  C   LIG    1       24.828 -23.379   6.909  0.00  0.00    +0.014 C 
ATOM     18  C   LIG    1       23.666 -24.051   6.526  0.00  0.00    +0.047 C 
ATOM     19  C   LIG    1       23.650 -25.410   6.193  0.00  0.00    +0.026 C 
ATOM     20  C   LIG    1       24.861 -26.109   6.258  0.00  0.00    +0.002 C 
ATOM     21  C   LIG    1       26.038 -25.469   6.636  0.00  0.00    +0.001 C 
ATOM     22  N   LIG    1       22.641 -23.136   6.560  0.00  0.00    -0.360 NA
ATOM     23  H   LIG    1       21.680 -23.346   6.326  0.00  0.00    +0.165 HD
ATOM     24  C   LIG    1       26.036 -24.108   6.961  0.00  0.00    +0.011 C 
ATOM     25  C   LIG    1       23.104 -21.919   6.977  0.00  0.00    +0.098 C 
ENDBRANCH  15  16
ENDBRANCH   1  15
TORSDOF 3
ENDMDL
MODEL 2
REMARK VINA RESULT:      -9.8      0.807      1.111
REMARK  Name = *****
REMARK                            x       y       z     vdW  Elec       q    Type
REMARK                         _______ _______ _______ _____ _____    ______ ____
ROOT
ATOM      1  O   LIG    1       26.123 -20.324   6.677  0.00  0.00    -0.458 OA
ENDROOT
BRANCH   1   2
ATOM      2  C   LIG    1       27.503 -20.708   6.642  0.00  0.00    +0.180 C 
ATOM      3  C   LIG    1       28.396 -19.395   6.129  0.00  0.00    +0.063 C 
ATOM      4  C   LIG    1       29.795 -19.629   6.657  0.00  0.00    +0.061 C 
ATOM      5  N   LIG    1       29.315 -19.770   8.007  0.00  0.00    -0.289 NA
ATOM      6  C   LIG    1       29.466 -21.189   8.179  0.00  0.00    +0.061 C 
ATOM      7  C   LIG    1       30.850 -21.301   8.802  0.00  0.00    +0.030 C 
ATOM      8  C   LIG    1       31.724 -20.021   8.263  0.00  0.00    +0.060 C 
ATOM      9  C   LIG    1       31.224 -18.981   9.228  0.00  0.00    +0.150 C 
ATOM     10  O   LIG    1       31.922 -18.359  10.016  0.00  0.00    -0.296 OA
ATOM     11  C   LIG    1       29.730 -18.828   9.066  0.00  0.00    +0.159 C 
ATOM     12  C   LIG    1       31.265 -19.304   6.862  0.00  0.00    +0.030 C 
ATOM     13  C   LIG    1       27.968 -21.410   8.093  0.00  0.00    +0.063 C 
ENDBRANCH   1   2
BRANCH   1  15
ATOM     14  O   LIG    1       25.517 -20.107   4.478  0.00  0.00    -0.245 OA
ATOM     15  C   LIG    1       25.392 -20.649   5.572  0.00  0.00    +0.342 C 
BRANCH  15  16
ATOM     16  C   LIG    1       24.465 -21.741   5.826  0.00  0.00    +0.084 C 
ATOM     17  C   LIG    1       24.787 -23.124   6.020  0.00  0.00    +0.014 C 
ATOM     18  C   LIG    1       23.594 -23.805   6.266  0.00  0.00    +0.047 C 
ATOM     19  C   LIG    1       23.545 -25.178   6.530  0.00  0.00    +0.026 C 
ATOM     20  C   LIG    1       24.755 -25.880   6.549  0.00  0.00    +0.002 C 
ATOM     21  C   LIG    1       25.963 -25.232   6.308  0.00  0.00    +0.001 C 
ATOM     22  N   LIG    1       22.580 -22.880   6.197  0.00  0.00    -0.360 NA
ATOM     23  H   LIG    1       21.601 -23.094   6.332  0.00  0.00    +0.165 HD
ATOM     24  C   LIG    1       25.993 -23.858   6.041  0.00  0.00    +0.011 C 
ATOM     25  C   LIG    1       23.088 -21.635   5.945  0.00  0.00    +0.098 C 
ENDBRANCH  15  16
ENDBRANCH   1  15
TORSDOF 3
ENDMDL
MODEL 3
REMARK VINA RESULT:      -9.7      2.215      7.944
REMARK  Name = *****
REMARK                            x       y       z     vdW  Elec       q    Type
REMARK                         _______ _______ _______ _____ _____    ______ ____
ROOT
ATOM      1  O   LIG    1       28.327 -20.061   8.220  0.00  0.00    -0.458 OA
ENDROOT
BRANCH   1   2
ATOM      2  C   LIG    1       27.316 -21.075   8.162  0.00  0.00    +0.180 C 
ATOM      3  C   LIG    1       25.878 -20.409   8.683  0.00  0.00    +0.063 C 
ATOM      4  C   LIG    1       24.792 -21.265   8.068  0.00  0.00    +0.061 C 
ATOM      5  N   LIG    1       25.314 -21.062   6.742  0.00  0.00    -0.289 NA
ATOM      6  C   LIG    1       25.889 -22.358   6.499  0.00  0.00    +0.061 C 
ATOM      7  C   LIG    1       24.758 -23.094   5.796  0.00  0.00    +0.030 C 
ATOM      8  C   LIG    1       23.352 -22.448   6.342  0.00  0.00    +0.060 C 
ATOM      9  C   LIG    1       23.297 -21.236   5.454  0.00  0.00    +0.150 C 
ATOM     10  O   LIG    1       22.404 -20.988   4.656  0.00  0.00    -0.296 OA
ATOM     11  C   LIG    1       24.515 -20.379   5.705  0.00  0.00    +0.159 C 
ATOM     12  C   LIG    1       23.359 -21.693   7.797  0.00  0.00    +0.030 C 
ATOM     13  C   LIG    1       27.297 -21.818   6.658  0.00  0.00    +0.063 C 
ENDBRANCH   1   2
BRANCH   1  15
ATOM     14  O   LIG    1       29.851 -21.649   8.856  0.00  0.00    -0.245 OA
ATOM     15  C   LIG    1       29.580 -20.495   8.539  0.00  0.00    +0.342 C 
BRANCH  15  16
ATOM     16  C   LIG    1       30.574 -19.438   8.428  0.00  0.00    +0.084 C 
ATOM     17  C   LIG    1       30.843 -18.398   9.376  0.00  0.00    +0.014 C 
ATOM     18  C   LIG    1       31.897 -17.632   8.875  0.00  0.00    +0.047 C 
ATOM     19  C   LIG    1       32.439 -16.543   9.566  0.00  0.00    +0.026 C 
ATOM     20  C   LIG    1       31.890 -16.227  10.814  0.00  0.00    +0.002 C 
ATOM     21  C   LIG    1       30.839 -16.970  11.343  0.00  0.00    +0.001 C 
ATOM     22  N   LIG    1       32.241 -18.167   7.656  0.00  0.00    -0.360 NA
ATOM     23  H   LIG    1       32.976 -17.809   7.063  0.00  0.00    +0.165 HD
ATOM     24  C   LIG    1       30.306 -18.053  10.635  0.00  0.00    +0.011 C 
ATOM     25  C   LIG    1       31.463 -19.258   7.380  0.00  0.00    +0.098 C 
ENDBRANCH  15  16
ENDBRANCH   1  15
TORSDOF 3
ENDMDL
MODEL 4
REMARK VINA RESULT:      -9.6      2.153      7.651
REMARK  Name = *****
REMARK                            x       y       z     vdW  Elec       q    Type
REMARK                         _______ _______ _______ _____ _____    ______ ____
ROOT
ATOM      1  O   LIG    1       28.744 -20.247   6.250  0.00  0.00    -0.458 OA
ENDROOT
BRANCH   1   2
ATOM      2  C   LIG    1       27.354 -19.972   6.462  0.00  0.00    +0.180 C 
ATOM      3  C   LIG    1       26.517 -20.433   5.095  0.00  0.00    +0.063 C 
ATOM      4  C   LIG    1       25.098 -20.685   5.558  0.00  0.00    +0.061 C 
ATOM      5  N   LIG    1       25.538 -21.621   6.558  0.00  0.00    -0.289 NA
ATOM      6  C   LIG    1       25.338 -20.832   7.743  0.00  0.00    +0.061 C 
ATOM      7  C   LIG    1       23.935 -21.236   8.175  0.00  0.00    +0.030 C 
ATOM      8  C   LIG    1       23.117 -21.657   6.816  0.00  0.00    +0.060 C 
ATOM      9  C   LIG    1       23.624 -23.064   6.670  0.00  0.00    +0.150 C 
ATOM     10  O   LIG    1       22.926 -24.068   6.680  0.00  0.00    -0.296 OA
ATOM     11  C   LIG    1       25.126 -23.039   6.510  0.00  0.00    +0.159 C 
ATOM     12  C   LIG    1       23.634 -21.054   5.382  0.00  0.00    +0.030 C 
ATOM     13  C   LIG    1       26.829 -20.622   7.917  0.00  0.00    +0.063 C 
ENDBRANCH   1   2
BRANCH   1  15
ATOM     14  O   LIG    1       29.649 -18.236   5.626  0.00  0.00    -0.245 OA
ATOM     15  C   LIG    1       29.585 -19.184   6.403  0.00  0.00    +0.342 C 
BRANCH  15  16
ATOM     16  C   LIG    1       30.380 -19.280   7.618  0.00  0.00    +0.084 C 
ATOM     17  C   LIG    1       30.527 -18.286   8.639  0.00  0.00    +0.014 C 
ATOM     18  C   LIG    1       31.352 -18.819   9.631  0.00  0.00    +0.047 C 
ATOM     19  C   LIG    1       31.682 -18.121  10.799  0.00  0.00    +0.026 C 
ATOM     20  C   LIG    1       31.148 -16.838  10.962  0.00  0.00    +0.002 C 
ATOM     21  C   LIG    1       30.322 -16.277   9.992  0.00  0.00    +0.001 C 
ATOM     22  N   LIG    1       31.718 -20.078   9.219  0.00  0.00    -0.360 NA
ATOM     23  H   LIG    1       32.319 -20.698   9.743  0.00  0.00    +0.165 HD
ATOM     24  C   LIG    1       30.006 -16.988   8.829  0.00  0.00    +0.011 C 
ATOM     25  C   LIG    1       31.133 -20.373   8.018  0.00  0.00    +0.098 C 
ENDBRANCH  15  16
ENDBRANCH   1  15
TORSDOF 3
ENDMDL
MODEL 5
REMARK VINA RESULT:      -9.4      4.252      6.378
REMARK  Name = *****
REMARK                            x       y       z     vdW  Elec       q    Type
REMARK                         _______ _______ _______ _____ _____    ______ ____
ROOT
ATOM      1  O   LIG    1       26.382 -25.767   6.395  0.00  0.00    -0.458 OA
ENDROOT
BRANCH   1   2
ATOM      2  C   LIG    1       25.518 -24.821   7.037  0.00  0.00    +0.180 C 
ATOM      3  C   LIG    1       26.348 -23.382   7.199  0.00  0.00    +0.063 C 
ATOM      4  C   LIG    1       25.282 -22.313   7.306  0.00  0.00    +0.061 C 
ATOM      5  N   LIG    1       24.670 -22.729   6.072  0.00  0.00    -0.289 NA
ATOM      6  C   LIG    1       23.487 -23.367   6.583  0.00  0.00    +0.061 C 
ATOM      7  C   LIG    1       22.465 -22.239   6.553  0.00  0.00    +0.030 C 
ATOM      8  C   LIG    1       23.294 -20.835   6.743  0.00  0.00    +0.060 C 
ATOM      9  C   LIG    1       23.749 -20.643   5.323  0.00  0.00    +0.150 C 
ATOM     10  O   LIG    1       23.469 -19.684   4.619  0.00  0.00    -0.296 OA
ATOM     11  C   LIG    1       24.602 -21.819   4.910  0.00  0.00    +0.159 C 
ATOM     12  C   LIG    1       24.762 -20.894   7.471  0.00  0.00    +0.030 C 
ATOM     13  C   LIG    1       24.031 -24.746   6.264  0.00  0.00    +0.063 C 
ENDBRANCH   1   2
BRANCH   1  15
ATOM     14  O   LIG    1       25.866 -26.307   4.229  0.00  0.00    -0.245 OA
ATOM     15  C   LIG    1       25.800 -26.538   5.432  0.00  0.00    +0.342 C 
BRANCH  15  16
ATOM     16  C   LIG    1       25.114 -27.693   5.992  0.00  0.00    +0.084 C 
ATOM     17  C   LIG    1       25.371 -28.328   7.251  0.00  0.00    +0.014 C 
ATOM     18  C   LIG    1       24.455 -29.372   7.391  0.00  0.00    +0.047 C 
ATOM     19  C   LIG    1       24.405 -30.188   8.527  0.00  0.00    +0.026 C 
ATOM     20  C   LIG    1       25.316 -29.927   9.556  0.00  0.00    +0.002 C 
ATOM     21  C   LIG    1       26.242 -28.894   9.448  0.00  0.00    +0.001 C 
ATOM     22  N   LIG    1       23.687 -29.392   6.251  0.00  0.00    -0.360 NA
ATOM     23  H   LIG    1       22.941 -30.050   6.077  0.00  0.00    +0.165 HD
ATOM     24  C   LIG    1       26.282 -28.090   8.303  0.00  0.00    +0.011 C 
ATOM     25  C   LIG    1       24.064 -28.383   5.408  0.00  0.00    +0.098 C 
ENDBRANCH  15  16
ENDBRANCH   1  15
TORSDOF 3
ENDMDL
MODEL 6
REMARK VINA RESULT:      -9.3      1.017      1.707
REMARK  Name = *****
REMARK                            x       y       z     vdW  Elec       q    Type
REMARK                         _______ _______ _______ _____ _____    ______ ____
ROOT
ATOM      1  O   LIG    1       26.056 -21.275   6.196  0.00  0.00    -0.458 OA
ENDROOT
BRANCH   1   2
ATOM      2  C   LIG    1       26.975 -20.229   6.536  0.00  0.00    +0.180 C 
ATOM      3  C   LIG    1       27.104 -20.170   8.199  0.00  0.00    +0.063 C 
ATOM      4  C   LIG    1       28.445 -19.524   8.475  0.00  0.00    +0.061 C 
ATOM      5  N   LIG    1       29.135 -20.498   7.671  0.00  0.00    -0.289 NA
ATOM      6  C   LIG    1       29.457 -19.692   6.524  0.00  0.00    +0.061 C 
ATOM      7  C   LIG    1       30.850 -19.180   6.861  0.00  0.00    +0.030 C 
ATOM      8  C   LIG    1       30.950 -19.099   8.497  0.00  0.00    +0.060 C 
ATOM      9  C   LIG    1       31.264 -20.542   8.779  0.00  0.00    +0.150 C 
ATOM     10  O   LIG    1       32.274 -20.946   9.338  0.00  0.00    -0.296 OA
ATOM     11  C   LIG    1       30.137 -21.407   8.266  0.00  0.00    +0.159 C 
ATOM     12  C   LIG    1       29.557 -18.973   9.353  0.00  0.00    +0.030 C 
ATOM     13  C   LIG    1       28.408 -20.388   5.679  0.00  0.00    +0.063 C 
ENDBRANCH   1   2
BRANCH   1  15
ATOM     14  O   LIG    1       24.676 -20.616   7.903  0.00  0.00    -0.245 OA
ATOM     15  C   LIG    1       25.004 -21.435   7.050  0.00  0.00    +0.342 C 
BRANCH  15  16
ATOM     16  C   LIG    1       24.286 -22.678   6.813  0.00  0.00    +0.084 C 
ATOM     17  C   LIG    1       24.852 -23.973   6.571  0.00  0.00    +0.014 C 
ATOM     18  C   LIG    1       23.796 -24.875   6.433  0.00  0.00    +0.047 C 
ATOM     19  C   LIG    1       23.991 -26.244   6.215  0.00  0.00    +0.026 C 
ATOM     20  C   LIG    1       25.309 -26.708   6.143  0.00  0.00    +0.002 C 
ATOM     21  C   LIG    1       26.385 -25.836   6.277  0.00  0.00    +0.001 C 
ATOM     22  N   LIG    1       22.631 -24.156   6.557  0.00  0.00    -0.360 NA
ATOM     23  H   LIG    1       21.704 -24.555   6.495  0.00  0.00    +0.165 HD
ATOM     24  C   LIG    1       26.171 -24.469   6.489  0.00  0.00    +0.011 C 
ATOM     25  C   LIG    1       22.910 -22.838   6.796  0.00  0.00    +0.098 C 
ENDBRANCH  15  16
ENDBRANCH   1  15
TORSDOF 3
ENDMDL
MODEL 7
REMARK VINA RESULT:      -9.2      1.965      3.055
REMARK  Name = *****
REMARK                            x       y       z     vdW  Elec       q    Type
REMARK                         _______ _______ _______ _____ _____    ______ ____
ROOT
ATOM      1  O   LIG    1       26.673 -21.793   7.868  0.00  0.00    -0.458 OA
ENDROOT
BRANCH   1   2
ATOM      2  C   LIG    1       28.015 -21.547   7.429  0.00  0.00    +0.180 C 
ATOM      3  C   LIG    1       28.036 -20.095   6.608  0.00  0.00    +0.063 C 
ATOM      4  C   LIG    1       29.466 -19.606   6.693  0.00  0.00    +0.061 C 
ATOM      5  N   LIG    1       29.463 -19.692   8.130  0.00  0.00    -0.289 NA
ATOM      6  C   LIG    1       30.292 -20.852   8.312  0.00  0.00    +0.061 C 
ATOM      7  C   LIG    1       31.677 -20.244   8.486  0.00  0.00    +0.030 C 
ATOM      8  C   LIG    1       31.690 -18.833   7.648  0.00  0.00    +0.060 C 
ATOM      9  C   LIG    1       31.026 -17.953   8.669  0.00  0.00    +0.150 C 
ATOM     10  O   LIG    1       31.529 -16.961   9.177  0.00  0.00    -0.296 OA
ATOM     11  C   LIG    1       29.645 -18.488   8.966  0.00  0.00    +0.159 C 
ATOM     12  C   LIG    1       30.617 -18.649   6.422  0.00  0.00    +0.030 C 
ATOM     13  C   LIG    1       29.100 -21.706   8.699  0.00  0.00    +0.063 C 
ENDBRANCH   1   2
BRANCH   1  15
ATOM     14  O   LIG    1       26.193 -23.687   6.672  0.00  0.00    -0.245 OA
ATOM     15  C   LIG    1       25.908 -22.549   7.029  0.00  0.00    +0.342 C 
BRANCH  15  16
ATOM     16  C   LIG    1       24.690 -21.862   6.626  0.00  0.00    +0.084 C 
ATOM     17  C   LIG    1       24.549 -20.884   5.588  0.00  0.00    +0.014 C 
ATOM     18  C   LIG    1       23.201 -20.523   5.530  0.00  0.00    +0.047 C 
ATOM     19  C   LIG    1       22.703 -19.603   4.601  0.00  0.00    +0.026 C 
ATOM     20  C   LIG    1       23.608 -19.036   3.698  0.00  0.00    +0.002 C 
ATOM     21  C   LIG    1       24.958 -19.373   3.729  0.00  0.00    +0.001 C 
ATOM     22  N   LIG    1       22.550 -21.232   6.511  0.00  0.00    -0.360 NA
ATOM     23  H   LIG    1       21.560 -21.167   6.700  0.00  0.00    +0.165 HD
ATOM     24  C   LIG    1       25.441 -20.292   4.668  0.00  0.00    +0.011 C 
ATOM     25  C   LIG    1       23.429 -22.048   7.169  0.00  0.00    +0.098 C 
ENDBRANCH  15  16
ENDBRANCH   1  15
TORSDOF 3
ENDMDL
MODEL 8
REMARK VINA RESULT:      -9.2      3.528      6.041
REMARK  Name = *****
REMARK                            x       y       z     vdW  Elec       q    Type
REMARK                         _______ _______ _______ _____ _____    ______ ____
ROOT
ATOM      1  O   LIG    1       23.990 -26.141   6.486  0.00  0.00    -0.458 OA
ENDROOT
BRANCH   1   2
ATOM      2  C   LIG    1       24.232 -24.798   6.048  0.00  0.00    +0.180 C 
ATOM      3  C   LIG    1       23.146 -23.795   6.822  0.00  0.00    +0.063 C 
ATOM      4  C   LIG    1       23.787 -22.424   6.810  0.00  0.00    +0.061 C 
ATOM      5  N   LIG    1       24.980 -22.921   7.442  0.00  0.00    -0.289 NA
ATOM      6  C   LIG    1       25.885 -22.892   6.326  0.00  0.00    +0.061 C 
ATOM      7  C   LIG    1       26.541 -21.525   6.469  0.00  0.00    +0.030 C 
ATOM      8  C   LIG    1       25.449 -20.544   7.202  0.00  0.00    +0.060 C 
ATOM      9  C   LIG    1       25.690 -20.959   8.627  0.00  0.00    +0.150 C 
ATOM     10  O   LIG    1       26.062 -20.215   9.523  0.00  0.00    -0.296 OA
ATOM     11  C   LIG    1       25.398 -22.433   8.773  0.00  0.00    +0.159 C 
ATOM     12  C   LIG    1       23.861 -20.932   7.092  0.00  0.00    +0.030 C 
ATOM     13  C   LIG    1       25.855 -24.402   6.197  0.00  0.00    +0.063 C 
ENDBRANCH   1   2
BRANCH   1  15
ATOM     14  O   LIG    1       25.132 -26.936   4.665  0.00  0.00    -0.245 OA
ATOM     15  C   LIG    1       24.604 -27.118   5.757  0.00  0.00    +0.342 C 
BRANCH  15  16
ATOM     16  C   LIG    1       24.593 -28.403   6.440  0.00  0.00    +0.084 C 
ATOM     17  C   LIG    1       25.326 -28.766   7.616  0.00  0.00    +0.014 C 
ATOM     18  C   LIG    1       24.986 -30.082   7.936  0.00  0.00    +0.047 C 
ATOM     19  C   LIG    1       25.501 -30.748   9.054  0.00  0.00    +0.026 C 
ATOM     20  C   LIG    1       26.389 -30.046   9.877  0.00  0.00    +0.002 C 
ATOM     21  C   LIG    1       26.749 -28.733   9.587  0.00  0.00    +0.001 C 
ATOM     22  N   LIG    1       24.102 -30.515   6.977  0.00  0.00    -0.360 NA
ATOM     23  H   LIG    1       23.689 -31.437   6.956  0.00  0.00    +0.165 HD
ATOM     24  C   LIG    1       26.228 -28.084   8.462  0.00  0.00    +0.011 C 
ATOM     25  C   LIG    1       23.848 -29.515   6.079  0.00  0.00    +0.098 C 
ENDBRANCH  15  16
ENDBRANCH   1  15
TORSDOF 3
ENDMDL
MODEL 9
REMARK VINA RESULT:      -9.2      3.229      7.034
REMARK  Name = *****
REMARK                            x       y       z     vdW  Elec       q    Type
REMARK                         _______ _______ _______ _____ _____    ______ ____
ROOT
ATOM      1  O   LIG    1       24.656 -22.787   7.928  0.00  0.00    -0.458 OA
ENDROOT
BRANCH   1   2
ATOM      2  C   LIG    1       24.877 -23.581   6.756  0.00  0.00    +0.180 C 
ATOM      3  C   LIG    1       26.345 -24.356   6.920  0.00  0.00    +0.063 C 
ATOM      4  C   LIG    1       26.263 -25.569   6.018  0.00  0.00    +0.061 C 
ATOM      5  N   LIG    1       25.060 -26.027   6.662  0.00  0.00    -0.289 NA
ATOM      6  C   LIG    1       24.097 -25.723   5.637  0.00  0.00    +0.061 C 
ATOM      7  C   LIG    1       24.019 -27.030   4.860  0.00  0.00    +0.030 C 
ATOM      8  C   LIG    1       25.479 -27.764   5.006  0.00  0.00    +0.060 C 
ATOM      9  C   LIG    1       25.283 -28.397   6.355  0.00  0.00    +0.150 C 
ATOM     10  O   LIG    1       25.329 -29.598   6.582  0.00  0.00    -0.296 OA
ATOM     11  C   LIG    1       25.024 -27.317   7.380  0.00  0.00    +0.159 C 
ATOM     12  C   LIG    1       26.783 -26.833   5.353  0.00  0.00    +0.030 C 
ATOM     13  C   LIG    1       23.549 -24.553   6.430  0.00  0.00    +0.063 C 
ENDBRANCH   1   2
BRANCH   1  15
ATOM     14  O   LIG    1       25.910 -21.243   9.067  0.00  0.00    -0.245 OA
ATOM     15  C   LIG    1       25.412 -21.655   8.024  0.00  0.00    +0.342 C 
BRANCH  15  16
ATOM     16  C   LIG    1       25.593 -21.003   6.736  0.00  0.00    +0.084 C 
ATOM     17  C   LIG    1       24.574 -20.440   5.899  0.00  0.00    +0.014 C 
ATOM     18  C   LIG    1       25.204 -19.892   4.780  0.00  0.00    +0.047 C 
ATOM     19  C   LIG    1       24.504 -19.231   3.764  0.00  0.00    +0.026 C 
ATOM     20  C   LIG    1       23.116 -19.120   3.898  0.00  0.00    +0.002 C 
ATOM     21  C   LIG    1       22.457 -19.655   5.001  0.00  0.00    +0.001 C 
ATOM     22  N   LIG    1       26.550 -20.134   4.914  0.00  0.00    -0.360 NA
ATOM     23  H   LIG    1       27.251 -19.850   4.245  0.00  0.00    +0.165 HD
ATOM     24  C   LIG    1       23.172 -20.318   6.005  0.00  0.00    +0.011 C 
ATOM     25  C   LIG    1       26.799 -20.790   6.089  0.00  0.00    +0.098 C 
ENDBRANCH  15  16
ENDBRANCH   1  15
TORSDOF 3
ENDMDL
