MODEL 1
REMARK VINA RESULT:      31.7      0.000      0.000
REMARK  Name = *****
REMARK                            x       y       z     vdW  Elec       q    Type
REMARK                         _______ _______ _______ _____ _____    ______ ____
ROOT
ATOM      1  C   LIG    1       27.747 -20.615   5.588  0.00  0.00    +0.129 C 
ATOM      2  C   LIG    1       27.006 -19.237   5.325  0.00  0.00    +0.008 C 
ATOM      3  C   LIG    1       27.807 -18.029   5.845  0.00  0.00    +0.015 C 
ATOM      4  C   LIG    1       25.694 -19.371   6.143  0.00  0.00    +0.005 C 
ATOM      5  C   LIG    1       24.592 -18.352   5.763  0.00  0.00    +0.020 C 
ATOM      6  C   LIG    1       24.330 -18.293   4.253  0.00  0.00    -0.055 C 
ATOM      7  C   LIG    1       25.597 -18.027   3.424  0.00  0.00    +0.046 C 
ATOM      8  C   LIG    1       23.078 -18.383   3.735  0.00  0.00    -0.044 C 
ATOM      9  C   LIG    1       21.904 -18.375   4.614  0.00  0.00    -0.041 C 
ATOM     10  C   LIG    1       20.686 -18.763   4.202  0.00  0.00    +0.050 C 
ATOM     11  C   LIG    1       20.476 -19.288   2.836  0.00  0.00    +0.157 C 
ATOM     12  O   LIG    1       19.350 -19.659   2.498  0.00  0.00    -0.293 OA
ATOM     13  C   LIG    1       21.673 -19.427   1.932  0.00  0.00    +0.083 C 
ATOM     14  C   LIG    1       22.129 -17.858   6.010  0.00  0.00    +0.036 C 
ATOM     15  C   LIG    1       22.722 -18.371   2.262  0.00  0.00    +0.043 C 
ATOM     16  C   LIG    1       23.322 -18.583   6.609  0.00  0.00    +0.013 C 
ATOM     17  C   LIG    1       25.327 -20.846   5.953  0.00  0.00    +0.008 C 
ATOM     18  C   LIG    1       26.677 -19.071   3.805  0.00  0.00    +0.022 C 
ATOM     19  C   LIG    1       26.655 -21.572   6.124  0.00  0.00    +0.043 C 
ENDROOT
BRANCH   7  20
ATOM     20  C   LIG    1       26.024 -16.552   3.430  0.00  0.00    -0.040 A 
ATOM     21  C   LIG    1       27.360 -16.182   3.630  0.00  0.00    +0.006 A 
ATOM     22  C   LIG    1       27.762 -14.837   3.622  0.00  0.00    +0.023 A 
ATOM     23  C   LIG    1       26.861 -13.783   3.416  0.00  0.00    +0.029 A 
ATOM     24  C   LIG    1       25.516 -14.161   3.297  0.00  0.00    +0.023 A 
ATOM     25  C   LIG    1       25.104 -15.506   3.320  0.00  0.00    +0.006 A 
BRANCH  23  26
ATOM     26  N   LIG    1       27.267 -12.440   3.390  0.00  0.00    -0.336 N 
ATOM     27  C   LIG    1       28.674 -12.144   3.666  0.00  0.00    +0.129 C 
ATOM     28  C   LIG    1       26.637 -11.542   2.422  0.00  0.00    +0.129 C 
ENDBRANCH  23  26
ENDBRANCH   7  20
BRANCH   1  30
ATOM     29  C   LIG    1       29.421 -19.153   6.982  0.00  0.00    +0.089 C 
ATOM     30  C   LIG    1       28.931 -20.531   6.592  0.00  0.00    +0.162 C 
ATOM     31  O   LIG    1       29.475 -21.533   7.062  0.00  0.00    -0.295 OA
ENDBRANCH   1  30
BRANCH   1  32
ATOM     32  O   LIG    1       28.253 -21.162   4.364  0.00  0.00    -0.381 OA
ATOM     33  H   LIG    1       29.010 -20.619   4.080  0.00  0.00    +0.211 HD
ENDBRANCH   1  32
TORSDOF 4
ENDMDL
