MODEL 1
REMARK VINA RESULT:      -5.8      0.000      0.000
REMARK  Name = *****
REMARK                            x       y       z     vdW  Elec       q    Type
REMARK                         _______ _______ _______ _____ _____    ______ ____
ROOT
ATOM      1 CL   LIG    1       22.296 -20.726   4.918  0.00  0.00    -0.119 Cl
ATOM      2  C   LIG    1       23.896 -21.434   5.354  0.00  0.00    +0.119 C 
ATOM      3  C   LIG    1       23.795 -22.244   6.664  0.00  0.00    +0.119 C 
ATOM      4 CL   LIG    1       23.094 -21.275   8.009  0.00  0.00    -0.119 Cl
ATOM      5  C   LIG    1       25.156 -22.837   7.080  0.00  0.00    +0.119 C 
ATOM      6 CL   LIG    1       25.546 -24.209   5.963  0.00  0.00    -0.119 Cl
ATOM      7  C   LIG    1       26.327 -21.836   7.048  0.00  0.00    +0.119 C 
ATOM      8 CL   LIG    1       26.277 -20.764   8.493  0.00  0.00    -0.119 Cl
ATOM      9  C   LIG    1       26.367 -21.038   5.730  0.00  0.00    +0.119 C 
ATOM     10 CL   LIG    1       27.727 -19.853   5.742  0.00  0.00    -0.119 Cl
ATOM     11  C   LIG    1       25.019 -20.376   5.378  0.00  0.00    +0.119 C 
ATOM     12 CL   LIG    1       25.140 -19.594   3.750  0.00  0.00    -0.119 Cl
ENDROOT
TORSDOF 0
ENDMDL
MODEL 2
REMARK VINA RESULT:      -5.5      0.816      2.247
REMARK  Name = *****
REMARK                            x       y       z     vdW  Elec       q    Type
REMARK                         _______ _______ _______ _____ _____    ______ ____
ROOT
ATOM      1 CL   LIG    1       25.183 -19.268   3.554  0.00  0.00    -0.119 Cl
ATOM      2  C   LIG    1       25.367 -20.706   4.627  0.00  0.00    +0.119 C 
ATOM      3  C   LIG    1       23.995 -21.354   4.910  0.00  0.00    +0.119 C 
ATOM      4 CL   LIG    1       22.807 -20.170   5.562  0.00  0.00    -0.119 Cl
ATOM      5  C   LIG    1       24.116 -22.569   5.850  0.00  0.00    +0.119 C 
ATOM      6 CL   LIG    1       24.856 -23.937   4.922  0.00  0.00    -0.119 Cl
ATOM      7  C   LIG    1       24.967 -22.322   7.111  0.00  0.00    +0.119 C 
ATOM      8 CL   LIG    1       24.027 -21.388   8.330  0.00  0.00    -0.119 Cl
ATOM      9  C   LIG    1       26.314 -21.651   6.775  0.00  0.00    +0.119 C 
ATOM     10 CL   LIG    1       27.266 -21.344   8.276  0.00  0.00    -0.119 Cl
ATOM     11  C   LIG    1       26.164 -20.384   5.908  0.00  0.00    +0.119 C 
ATOM     12 CL   LIG    1       27.805 -19.768   5.455  0.00  0.00    -0.119 Cl
ENDROOT
TORSDOF 0
ENDMDL
MODEL 3
REMARK VINA RESULT:      -5.5      1.023      1.742
REMARK  Name = *****
REMARK                            x       y       z     vdW  Elec       q    Type
REMARK                         _______ _______ _______ _____ _____    ______ ____
ROOT
ATOM      1 CL   LIG    1       24.661 -19.639   4.217  0.00  0.00    -0.119 Cl
ATOM      2  C   LIG    1       25.380 -20.963   5.208  0.00  0.00    +0.119 C 
ATOM      3  C   LIG    1       24.280 -21.738   5.963  0.00  0.00    +0.119 C 
ATOM      4 CL   LIG    1       23.234 -20.650   6.944  0.00  0.00    -0.119 Cl
ATOM      5  C   LIG    1       24.866 -22.859   6.844  0.00  0.00    +0.119 C 
ATOM      6 CL   LIG    1       25.425 -24.200   5.763  0.00  0.00    -0.119 Cl
ATOM      7  C   LIG    1       26.049 -22.423   7.730  0.00  0.00    +0.119 C 
ATOM      8 CL   LIG    1       25.458 -21.513   9.166  0.00  0.00    -0.119 Cl
ATOM      9  C   LIG    1       27.107 -21.633   6.933  0.00  0.00    +0.119 C 
ATOM     10 CL   LIG    1       28.457 -21.110   8.008  0.00  0.00    -0.119 Cl
ATOM     11  C   LIG    1       26.511 -20.459   6.129  0.00  0.00    +0.119 C 
ATOM     12 CL   LIG    1       27.809 -19.698   5.124  0.00  0.00    -0.119 Cl
ENDROOT
TORSDOF 0
ENDMDL
MODEL 4
REMARK VINA RESULT:      -4.7      1.243      3.613
REMARK  Name = *****
REMARK                            x       y       z     vdW  Elec       q    Type
REMARK                         _______ _______ _______ _____ _____    ______ ____
ROOT
ATOM      1 CL   LIG    1       28.112 -21.473   8.021  0.00  0.00    -0.119 Cl
ATOM      2  C   LIG    1       26.515 -21.067   7.290  0.00  0.00    +0.119 C 
ATOM      3  C   LIG    1       25.482 -22.174   7.589  0.00  0.00    +0.119 C 
ATOM      4 CL   LIG    1       26.063 -23.800   7.084  0.00  0.00    -0.119 Cl
ATOM      5  C   LIG    1       24.112 -21.869   6.950  0.00  0.00    +0.119 C 
ATOM      6 CL   LIG    1       23.330 -20.532   7.888  0.00  0.00    -0.119 Cl
ATOM      7  C   LIG    1       24.175 -21.452   5.468  0.00  0.00    +0.119 C 
ATOM      8 CL   LIG    1       24.419 -22.893   4.418  0.00  0.00    -0.119 Cl
ATOM      9  C   LIG    1       25.239 -20.363   5.221  0.00  0.00    +0.119 C 
ATOM     10 CL   LIG    1       25.310 -19.926   3.473  0.00  0.00    -0.119 Cl
ATOM     11  C   LIG    1       26.626 -20.727   5.789  0.00  0.00    +0.119 C 
ATOM     12 CL   LIG    1       27.751 -19.326   5.573  0.00  0.00    -0.119 Cl
ENDROOT
TORSDOF 0
ENDMDL
MODEL 5
REMARK VINA RESULT:      -4.6      1.396      4.193
REMARK  Name = *****
REMARK                            x       y       z     vdW  Elec       q    Type
REMARK                         _______ _______ _______ _____ _____    ______ ____
ROOT
ATOM      1 CL   LIG    1       28.183 -22.174   7.459  0.00  0.00    -0.119 Cl
ATOM      2  C   LIG    1       26.602 -22.068   6.599  0.00  0.00    +0.119 C 
ATOM      3  C   LIG    1       25.965 -20.676   6.796  0.00  0.00    +0.119 C 
ATOM      4 CL   LIG    1       25.821 -20.236   8.535  0.00  0.00    -0.119 Cl
ATOM      5  C   LIG    1       24.596 -20.565   6.097  0.00  0.00    +0.119 C 
ATOM      6 CL   LIG    1       24.874 -20.466   4.310  0.00  0.00    -0.119 Cl
ATOM      7  C   LIG    1       23.637 -21.739   6.376  0.00  0.00    +0.119 C 
ATOM      8 CL   LIG    1       22.894 -21.571   8.006  0.00  0.00    -0.119 Cl
ATOM      9  C   LIG    1       24.329 -23.105   6.188  0.00  0.00    +0.119 C 
ATOM     10 CL   LIG    1       23.190 -24.453   6.556  0.00  0.00    -0.119 Cl
ATOM     11  C   LIG    1       25.654 -23.228   6.969  0.00  0.00    +0.119 C 
ATOM     12 CL   LIG    1       26.447 -24.804   6.561  0.00  0.00    -0.119 Cl
ENDROOT
TORSDOF 0
ENDMDL
MODEL 6
REMARK VINA RESULT:      -4.2      1.015      3.962
REMARK  Name = *****
REMARK                            x       y       z     vdW  Elec       q    Type
REMARK                         _______ _______ _______ _____ _____    ______ ____
ROOT
ATOM      1 CL   LIG    1       27.863 -19.861   6.005  0.00  0.00    -0.119 Cl
ATOM      2  C   LIG    1       26.368 -20.870   6.021  0.00  0.00    +0.119 C 
ATOM      3  C   LIG    1       25.720 -20.907   4.621  0.00  0.00    +0.119 C 
ATOM      4 CL   LIG    1       25.416 -19.257   3.969  0.00  0.00    -0.119 Cl
ATOM      5  C   LIG    1       24.422 -21.739   4.610  0.00  0.00    +0.119 C 
ATOM      6 CL   LIG    1       24.865 -23.490   4.731  0.00  0.00    -0.119 Cl
ATOM      7  C   LIG    1       23.439 -21.406   5.749  0.00  0.00    +0.119 C 
ATOM      8 CL   LIG    1       22.547 -19.885   5.387  0.00  0.00    -0.119 Cl
ATOM      9  C   LIG    1       24.142 -21.358   7.121  0.00  0.00    +0.119 C 
ATOM     10 CL   LIG    1       22.970 -20.931   8.424  0.00  0.00    -0.119 Cl
ATOM     11  C   LIG    1       25.388 -20.448   7.135  0.00  0.00    +0.119 C 
ATOM     12 CL   LIG    1       26.211 -20.581   8.741  0.00  0.00    -0.119 Cl
ENDROOT
TORSDOF 0
ENDMDL
MODEL 7
REMARK VINA RESULT:      -4.1      1.506      3.326
REMARK  Name = *****
REMARK                            x       y       z     vdW  Elec       q    Type
REMARK                         _______ _______ _______ _____ _____    ______ ____
ROOT
ATOM      1 CL   LIG    1       24.342 -21.447   3.221  0.00  0.00    -0.119 Cl
ATOM      2  C   LIG    1       24.367 -21.807   4.988  0.00  0.00    +0.119 C 
ATOM      3  C   LIG    1       24.835 -20.575   5.789  0.00  0.00    +0.119 C 
ATOM      4 CL   LIG    1       26.417 -19.946   5.205  0.00  0.00    -0.119 Cl
ATOM      5  C   LIG    1       24.896 -20.862   7.303  0.00  0.00    +0.119 C 
ATOM      6 CL   LIG    1       23.201 -20.948   7.936  0.00  0.00    -0.119 Cl
ATOM      7  C   LIG    1       25.621 -22.169   7.678  0.00  0.00    +0.119 C 
ATOM      8 CL   LIG    1       27.405 -21.949   7.580  0.00  0.00    -0.119 Cl
ATOM      9  C   LIG    1       25.133 -23.363   6.832  0.00  0.00    +0.119 C 
ATOM     10 CL   LIG    1       26.028 -24.865   7.272  0.00  0.00    -0.119 Cl
ATOM     11  C   LIG    1       25.166 -23.086   5.314  0.00  0.00    +0.119 C 
ATOM     12 CL   LIG    1       24.440 -24.490   4.432  0.00  0.00    -0.119 Cl
ENDROOT
TORSDOF 0
ENDMDL
MODEL 8
REMARK VINA RESULT:      -4.1      1.519      3.887
REMARK  Name = *****
REMARK                            x       y       z     vdW  Elec       q    Type
REMARK                         _______ _______ _______ _____ _____    ______ ____
ROOT
ATOM      1 CL   LIG    1       28.640 -19.178   5.550  0.00  0.00    -0.119 Cl
ATOM      2  C   LIG    1       27.255 -19.938   6.419  0.00  0.00    +0.119 C 
ATOM      3  C   LIG    1       27.757 -20.808   7.590  0.00  0.00    +0.119 C 
ATOM      4 CL   LIG    1       28.972 -22.025   7.060  0.00  0.00    -0.119 Cl
ATOM      5  C   LIG    1       26.595 -21.496   8.335  0.00  0.00    +0.119 C 
ATOM      6 CL   LIG    1       25.719 -20.244   9.306  0.00  0.00    -0.119 Cl
ATOM      7  C   LIG    1       25.576 -22.202   7.419  0.00  0.00    +0.119 C 
ATOM      8 CL   LIG    1       26.232 -23.778   6.846  0.00  0.00    -0.119 Cl
ATOM      9  C   LIG    1       25.127 -21.299   6.253  0.00  0.00    +0.119 C 
ATOM     10 CL   LIG    1       23.964 -22.169   5.183  0.00  0.00    -0.119 Cl
ATOM     11  C   LIG    1       26.306 -20.692   5.464  0.00  0.00    +0.119 C 
ATOM     12 CL   LIG    1       25.668 -19.541   4.221  0.00  0.00    -0.119 Cl
ENDROOT
TORSDOF 0
ENDMDL
MODEL 9
REMARK VINA RESULT:      -4.0      1.498      3.615
REMARK  Name = *****
REMARK                            x       y       z     vdW  Elec       q    Type
REMARK                         _______ _______ _______ _____ _____    ______ ____
ROOT
ATOM      1 CL   LIG    1       25.880 -24.652   7.428  0.00  0.00    -0.119 Cl
ATOM      2  C   LIG    1       25.905 -23.106   6.500  0.00  0.00    +0.119 C 
ATOM      3  C   LIG    1       25.973 -21.897   7.456  0.00  0.00    +0.119 C 
ATOM      4 CL   LIG    1       24.658 -21.927   8.684  0.00  0.00    -0.119 Cl
ATOM      5  C   LIG    1       25.966 -20.558   6.692  0.00  0.00    +0.119 C 
ATOM      6 CL   LIG    1       27.579 -20.345   5.898  0.00  0.00    -0.119 Cl
ATOM      7  C   LIG    1       24.873 -20.444   5.611  0.00  0.00    +0.119 C 
ATOM      8 CL   LIG    1       23.276 -20.100   6.365  0.00  0.00    -0.119 Cl
ATOM      9  C   LIG    1       24.832 -21.688   4.699  0.00  0.00    +0.119 C 
ATOM     10 CL   LIG    1       23.521 -21.536   3.471  0.00  0.00    -0.119 Cl
ATOM     11  C   LIG    1       24.749 -23.014   5.483  0.00  0.00    +0.119 C 
ATOM     12 CL   LIG    1       24.854 -24.402   4.327  0.00  0.00    -0.119 Cl
ENDROOT
TORSDOF 0
ENDMDL
