MODEL 1
REMARK VINA RESULT:      -7.9      0.000      0.000
REMARK  Name = *****
REMARK                            x       y       z     vdW  Elec       q    Type
REMARK                         _______ _______ _______ _____ _____    ______ ____
ROOT
ATOM      1  N   LIG    1       25.640 -20.481   5.023  0.00  0.00    -0.263 NA
ATOM      2  C   LIG    1       26.841 -20.420   5.751  0.00  0.00    +0.075 C 
ATOM      3  C   LIG    1       27.070 -21.324   6.813  0.00  0.00    +0.053 C 
ATOM      4  C   LIG    1       28.248 -21.332   7.578  0.00  0.00    +0.063 C 
ATOM      5  C   LIG    1       29.208 -20.406   7.257  0.00  0.00    +0.167 C 
ATOM      6  O   LIG    1       30.408 -20.255   7.871  0.00  0.00    -0.453 OA
ATOM      7  C   LIG    1       30.965 -19.160   7.116  0.00  0.00    +0.466 C 
ATOM      8  O   LIG    1       30.084 -18.678   6.078  0.00  0.00    -0.453 OA
ATOM      9  C   LIG    1       29.019 -19.510   6.237  0.00  0.00    +0.168 C 
ATOM     10  C   LIG    1       26.018 -22.292   7.115  0.00  0.00    +0.222 C 
ATOM     11  O   LIG    1       26.128 -23.093   8.028  0.00  0.00    -0.285 OA
ATOM     12  C   LIG    1       24.789 -22.254   6.261  0.00  0.00    +0.214 C 
ATOM     13  C   LIG    1       27.861 -19.491   5.478  0.00  0.00    +0.077 C 
ATOM     14  N   LIG    1       24.648 -21.383   5.295  0.00  0.00    -0.160 NA
ENDROOT
BRANCH   1  16
ATOM     15  C   LIG    1       23.885 -19.245   3.803  0.00  0.00    +0.029 C 
ATOM     16  C   LIG    1       25.367 -19.571   3.898  0.00  0.00    +0.141 C 
ENDBRANCH   1  16
BRANCH  12  17
ATOM     17  C   LIG    1       23.616 -23.220   6.440  0.00  0.00    +0.361 C 
ATOM     18  O   LIG    1       22.537 -22.923   6.901  0.00  0.00    -0.243 OA
BRANCH  17  19
ATOM     19  O   LIG    1       23.951 -24.461   6.021  0.00  0.00    -0.476 OA
ATOM     20  H   LIG    1       23.857 -24.508   5.042  0.00  0.00    +0.295 HD
ENDBRANCH  17  19
ENDBRANCH  12  17
TORSDOF 3
ENDMDL
MODEL 2
REMARK VINA RESULT:      -7.9      0.736      1.024
REMARK  Name = *****
REMARK                            x       y       z     vdW  Elec       q    Type
REMARK                         _______ _______ _______ _____ _____    ______ ____
ROOT
ATOM      1  N   LIG    1       25.954 -20.294   5.333  0.00  0.00    -0.263 NA
ATOM      2  C   LIG    1       27.158 -20.240   6.058  0.00  0.00    +0.075 C 
ATOM      3  C   LIG    1       27.293 -20.974   7.258  0.00  0.00    +0.053 C 
ATOM      4  C   LIG    1       28.467 -20.980   8.030  0.00  0.00    +0.063 C 
ATOM      5  C   LIG    1       29.519 -20.228   7.573  0.00  0.00    +0.167 C 
ATOM      6  O   LIG    1       30.731 -20.105   8.170  0.00  0.00    -0.453 OA
ATOM      7  C   LIG    1       31.399 -19.217   7.251  0.00  0.00    +0.466 C 
ATOM      8  O   LIG    1       30.570 -18.823   6.136  0.00  0.00    -0.453 OA
ATOM      9  C   LIG    1       29.423 -19.499   6.416  0.00  0.00    +0.168 C 
ATOM     10  C   LIG    1       26.144 -21.760   7.702  0.00  0.00    +0.222 C 
ATOM     11  O   LIG    1       26.172 -22.406   8.737  0.00  0.00    -0.285 OA
ATOM     12  C   LIG    1       24.923 -21.735   6.837  0.00  0.00    +0.214 C 
ATOM     13  C   LIG    1       28.271 -19.483   5.648  0.00  0.00    +0.077 C 
ATOM     14  N   LIG    1       24.872 -21.027   5.738  0.00  0.00    -0.160 NA
ENDROOT
BRANCH   1  16
ATOM     15  C   LIG    1       24.307 -19.487   3.679  0.00  0.00    +0.029 C 
ATOM     16  C   LIG    1       25.776 -19.560   4.069  0.00  0.00    +0.141 C 
ENDBRANCH   1  16
BRANCH  12  17
ATOM     17  C   LIG    1       23.654 -22.528   7.157  0.00  0.00    +0.361 C 
ATOM     18  O   LIG    1       23.422 -23.651   6.768  0.00  0.00    -0.243 OA
BRANCH  17  19
ATOM     19  O   LIG    1       22.817 -21.799   7.928  0.00  0.00    -0.476 OA
ATOM     20  H   LIG    1       23.345 -21.288   8.584  0.00  0.00    +0.295 HD
ENDBRANCH  17  19
ENDBRANCH  12  17
TORSDOF 3
ENDMDL
MODEL 3
REMARK VINA RESULT:      -7.8      1.999      3.204
REMARK  Name = *****
REMARK                            x       y       z     vdW  Elec       q    Type
REMARK                         _______ _______ _______ _____ _____    ______ ____
ROOT
ATOM      1  N   LIG    1       26.088 -22.078   6.731  0.00  0.00    -0.263 NA
ATOM      2  C   LIG    1       27.187 -21.209   6.623  0.00  0.00    +0.075 C 
ATOM      3  C   LIG    1       27.163 -20.153   5.683  0.00  0.00    +0.053 C 
ATOM      4  C   LIG    1       28.216 -19.237   5.525  0.00  0.00    +0.063 C 
ATOM      5  C   LIG    1       29.311 -19.398   6.334  0.00  0.00    +0.167 C 
ATOM      6  O   LIG    1       30.423 -18.621   6.337  0.00  0.00    -0.453 OA
ATOM      7  C   LIG    1       31.199 -19.258   7.373  0.00  0.00    +0.466 C 
ATOM      8  O   LIG    1       30.538 -20.402   7.957  0.00  0.00    -0.453 OA
ATOM      9  C   LIG    1       29.372 -20.413   7.254  0.00  0.00    +0.168 C 
ATOM     10  C   LIG    1       25.974 -20.023   4.844  0.00  0.00    +0.222 C 
ATOM     11  O   LIG    1       25.881 -19.152   3.995  0.00  0.00    -0.285 OA
ATOM     12  C   LIG    1       24.872 -21.013   5.063  0.00  0.00    +0.214 C 
ATOM     13  C   LIG    1       28.342 -21.323   7.418  0.00  0.00    +0.077 C 
ATOM     14  N   LIG    1       24.968 -21.966   5.953  0.00  0.00    -0.160 NA
ENDROOT
BRANCH   1  16
ATOM     15  C   LIG    1       25.758 -24.507   7.032  0.00  0.00    +0.029 C 
ATOM     16  C   LIG    1       26.064 -23.179   7.708  0.00  0.00    +0.141 C 
ENDBRANCH   1  16
BRANCH  12  17
ATOM     17  C   LIG    1       23.557 -20.987   4.280  0.00  0.00    +0.361 C 
ATOM     18  O   LIG    1       22.488 -20.639   4.732  0.00  0.00    -0.243 OA
BRANCH  17  19
ATOM     19  O   LIG    1       23.747 -21.417   3.013  0.00  0.00    -0.476 OA
ATOM     20  H   LIG    1       23.038 -22.059   2.780  0.00  0.00    +0.295 HD
ENDBRANCH  17  19
ENDBRANCH  12  17
TORSDOF 3
ENDMDL
MODEL 4
REMARK VINA RESULT:      -6.9      2.334      5.679
REMARK  Name = *****
REMARK                            x       y       z     vdW  Elec       q    Type
REMARK                         _______ _______ _______ _____ _____    ______ ____
ROOT
ATOM      1  N   LIG    1       27.112 -21.652   7.687  0.00  0.00    -0.263 NA
ATOM      2  C   LIG    1       26.649 -20.924   6.576  0.00  0.00    +0.075 C 
ATOM      3  C   LIG    1       27.500 -19.994   5.937  0.00  0.00    +0.053 C 
ATOM      4  C   LIG    1       27.114 -19.239   4.817  0.00  0.00    +0.063 C 
ATOM      5  C   LIG    1       25.843 -19.433   4.340  0.00  0.00    +0.167 C 
ATOM      6  O   LIG    1       25.286 -18.807   3.274  0.00  0.00    -0.453 OA
ATOM      7  C   LIG    1       23.975 -19.408   3.257  0.00  0.00    +0.466 C 
ATOM      8  O   LIG    1       23.777 -20.370   4.317  0.00  0.00    -0.453 OA
ATOM      9  C   LIG    1       24.988 -20.323   4.937  0.00  0.00    +0.168 C 
ATOM     10  C   LIG    1       28.845 -19.823   6.482  0.00  0.00    +0.222 C 
ATOM     11  O   LIG    1       29.634 -19.027   6.001  0.00  0.00    -0.285 OA
ATOM     12  C   LIG    1       29.214 -20.663   7.666  0.00  0.00    +0.214 C 
ATOM     13  C   LIG    1       25.356 -21.071   6.043  0.00  0.00    +0.077 C 
ATOM     14  N   LIG    1       28.369 -21.502   8.206  0.00  0.00    -0.160 NA
ENDROOT
BRANCH   1  16
ATOM     15  C   LIG    1       25.912 -23.796   7.444  0.00  0.00    +0.029 C 
ATOM     16  C   LIG    1       26.265 -22.643   8.371  0.00  0.00    +0.141 C 
ENDBRANCH   1  16
BRANCH  12  17
ATOM     17  C   LIG    1       30.593 -20.614   8.328  0.00  0.00    +0.361 C 
ATOM     18  O   LIG    1       30.804 -20.815   9.504  0.00  0.00    -0.243 OA
BRANCH  17  19
ATOM     19  O   LIG    1       31.547 -20.306   7.422  0.00  0.00    -0.476 OA
ATOM     20  H   LIG    1       32.246 -20.999   7.441  0.00  0.00    +0.295 HD
ENDBRANCH  17  19
ENDBRANCH  12  17
TORSDOF 3
ENDMDL
MODEL 5
REMARK VINA RESULT:      -6.5      2.802      5.623
REMARK  Name = *****
REMARK                            x       y       z     vdW  Elec       q    Type
REMARK                         _______ _______ _______ _____ _____    ______ ____
ROOT
ATOM      1  N   LIG    1       25.746 -21.329   6.740  0.00  0.00    -0.263 NA
ATOM      2  C   LIG    1       25.528 -22.664   6.358  0.00  0.00    +0.075 C 
ATOM      3  C   LIG    1       24.905 -22.953   5.124  0.00  0.00    +0.053 C 
ATOM      4  C   LIG    1       24.664 -24.259   4.668  0.00  0.00    +0.063 C 
ATOM      5  C   LIG    1       25.064 -25.289   5.482  0.00  0.00    +0.167 C 
ATOM      6  O   LIG    1       24.925 -26.612   5.221  0.00  0.00    -0.453 OA
ATOM      7  C   LIG    1       25.517 -27.188   6.404  0.00  0.00    +0.466 C 
ATOM      8  O   LIG    1       25.987 -26.197   7.344  0.00  0.00    -0.453 OA
ATOM      9  C   LIG    1       25.668 -25.047   6.689  0.00  0.00    +0.168 C 
ATOM     10  C   LIG    1       24.498 -21.822   4.292  0.00  0.00    +0.222 C 
ATOM     11  O   LIG    1       23.936 -21.985   3.221  0.00  0.00    -0.285 OA
ATOM     12  C   LIG    1       24.792 -20.450   4.813  0.00  0.00    +0.214 C 
ATOM     13  C   LIG    1       25.908 -23.764   7.149  0.00  0.00    +0.077 C 
ATOM     14  N   LIG    1       25.371 -20.262   5.971  0.00  0.00    -0.160 NA
ENDROOT
BRANCH   1  16
ATOM     15  C   LIG    1       27.742 -20.295   7.763  0.00  0.00    +0.029 C 
ATOM     16  C   LIG    1       26.408 -20.983   8.009  0.00  0.00    +0.141 C 
ENDBRANCH   1  16
BRANCH  12  17
ATOM     17  C   LIG    1       24.450 -19.172   4.044  0.00  0.00    +0.361 C 
ATOM     18  O   LIG    1       23.347 -18.674   3.983  0.00  0.00    -0.243 OA
BRANCH  17  19
ATOM     19  O   LIG    1       25.546 -18.676   3.429  0.00  0.00    -0.476 OA
ATOM     20  H   LIG    1       26.192 -19.405   3.284  0.00  0.00    +0.295 HD
ENDBRANCH  17  19
ENDBRANCH  12  17
TORSDOF 3
ENDMDL
MODEL 6
REMARK VINA RESULT:      -6.3      1.704      5.514
REMARK  Name = *****
REMARK                            x       y       z     vdW  Elec       q    Type
REMARK                         _______ _______ _______ _____ _____    ______ ____
ROOT
ATOM      1  N   LIG    1       27.885 -19.328   5.496  0.00  0.00    -0.263 NA
ATOM      2  C   LIG    1       27.017 -20.314   5.994  0.00  0.00    +0.075 C 
ATOM      3  C   LIG    1       27.424 -21.134   7.071  0.00  0.00    +0.053 C 
ATOM      4  C   LIG    1       26.610 -22.132   7.631  0.00  0.00    +0.063 C 
ATOM      5  C   LIG    1       25.362 -22.299   7.087  0.00  0.00    +0.167 C 
ATOM      6  O   LIG    1       24.431 -23.201   7.486  0.00  0.00    -0.453 OA
ATOM      7  C   LIG    1       23.355 -22.907   6.572  0.00  0.00    +0.466 C 
ATOM      8  O   LIG    1       23.671 -21.845   5.645  0.00  0.00    -0.453 OA
ATOM      9  C   LIG    1       24.934 -21.525   6.039  0.00  0.00    +0.168 C 
ATOM     10  C   LIG    1       28.763 -20.918   7.617  0.00  0.00    +0.222 C 
ATOM     11  O   LIG    1       29.198 -21.596   8.533  0.00  0.00    -0.285 OA
ATOM     12  C   LIG    1       29.585 -19.831   6.997  0.00  0.00    +0.214 C 
ATOM     13  C   LIG    1       25.729 -20.541   5.477  0.00  0.00    +0.077 C 
ATOM     14  N   LIG    1       29.140 -19.114   5.998  0.00  0.00    -0.160 NA
ENDROOT
BRANCH   1  16
ATOM     15  C   LIG    1       28.166 -17.080   4.512  0.00  0.00    +0.029 C 
ATOM     16  C   LIG    1       27.495 -18.440   4.388  0.00  0.00    +0.141 C 
ENDBRANCH   1  16
BRANCH  12  17
ATOM     17  C   LIG    1       30.993 -19.471   7.478  0.00  0.00    +0.361 C 
ATOM     18  O   LIG    1       31.435 -18.345   7.545  0.00  0.00    -0.243 OA
BRANCH  17  19
ATOM     19  O   LIG    1       31.684 -20.583   7.809  0.00  0.00    -0.476 OA
ATOM     20  H   LIG    1       31.188 -21.376   7.502  0.00  0.00    +0.295 HD
ENDBRANCH  17  19
ENDBRANCH  12  17
TORSDOF 3
ENDMDL
MODEL 7
REMARK VINA RESULT:      -5.7      6.862      9.217
REMARK  Name = *****
REMARK                            x       y       z     vdW  Elec       q    Type
REMARK                         _______ _______ _______ _____ _____    ______ ____
ROOT
ATOM      1  N   LIG    1       25.967 -29.618   8.778  0.00  0.00    -0.263 NA
ATOM      2  C   LIG    1       25.591 -28.700   7.782  0.00  0.00    +0.075 C 
ATOM      3  C   LIG    1       24.666 -29.081   6.784  0.00  0.00    +0.053 C 
ATOM      4  C   LIG    1       24.232 -28.217   5.764  0.00  0.00    +0.063 C 
ATOM      5  C   LIG    1       24.748 -26.946   5.760  0.00  0.00    +0.167 C 
ATOM      6  O   LIG    1       24.455 -25.968   4.868  0.00  0.00    -0.453 OA
ATOM      7  C   LIG    1       25.274 -24.890   5.364  0.00  0.00    +0.466 C 
ATOM      8  O   LIG    1       26.042 -25.251   6.533  0.00  0.00    -0.453 OA
ATOM      9  C   LIG    1       25.651 -26.543   6.710  0.00  0.00    +0.168 C 
ATOM     10  C   LIG    1       24.144 -30.445   6.831  0.00  0.00    +0.222 C 
ATOM     11  O   LIG    1       23.357 -30.859   5.995  0.00  0.00    -0.285 OA
ATOM     12  C   LIG    1       24.623 -31.321   7.946  0.00  0.00    +0.214 C 
ATOM     13  C   LIG    1       26.088 -27.385   7.718  0.00  0.00    +0.077 C 
ATOM     14  N   LIG    1       25.485 -30.897   8.834  0.00  0.00    -0.160 NA
ENDROOT
BRANCH   1  16
ATOM     15  C   LIG    1       26.179 -28.857  11.117  0.00  0.00    +0.029 C 
ATOM     16  C   LIG    1       26.914 -29.258   9.847  0.00  0.00    +0.141 C 
ENDBRANCH   1  16
BRANCH  12  17
ATOM     17  C   LIG    1       24.147 -32.762   8.141  0.00  0.00    +0.361 C 
ATOM     18  O   LIG    1       24.871 -33.731   8.190  0.00  0.00    -0.243 OA
BRANCH  17  19
ATOM     19  O   LIG    1       22.800 -32.810   8.242  0.00  0.00    -0.476 OA
ATOM     20  H   LIG    1       22.437 -31.899   8.160  0.00  0.00    +0.295 HD
ENDBRANCH  17  19
ENDBRANCH  12  17
TORSDOF 3
ENDMDL
MODEL 8
REMARK VINA RESULT:      -5.7      1.307      5.364
REMARK  Name = *****
REMARK                            x       y       z     vdW  Elec       q    Type
REMARK                         _______ _______ _______ _____ _____    ______ ____
ROOT
ATOM      1  N   LIG    1       26.275 -19.745   4.851  0.00  0.00    -0.263 NA
ATOM      2  C   LIG    1       25.939 -20.961   5.470  0.00  0.00    +0.075 C 
ATOM      3  C   LIG    1       26.810 -21.531   6.426  0.00  0.00    +0.053 C 
ATOM      4  C   LIG    1       26.538 -22.736   7.095  0.00  0.00    +0.063 C 
ATOM      5  C   LIG    1       25.362 -23.371   6.787  0.00  0.00    +0.167 C 
ATOM      6  O   LIG    1       24.919 -24.535   7.323  0.00  0.00    -0.453 OA
ATOM      7  C   LIG    1       23.662 -24.693   6.634  0.00  0.00    +0.466 C 
ATOM      8  O   LIG    1       23.388 -23.626   5.699  0.00  0.00    -0.453 OA
ATOM      9  C   LIG    1       24.494 -22.850   5.862  0.00  0.00    +0.168 C 
ATOM     10  C   LIG    1       28.051 -20.818   6.720  0.00  0.00    +0.222 C 
ATOM     11  O   LIG    1       28.865 -21.252   7.518  0.00  0.00    -0.285 OA
ATOM     12  C   LIG    1       28.286 -19.530   5.994  0.00  0.00    +0.214 C 
ATOM     13  C   LIG    1       24.752 -21.665   5.194  0.00  0.00    +0.077 C 
ATOM     14  N   LIG    1       27.432 -19.066   5.119  0.00  0.00    -0.160 NA
ENDROOT
BRANCH   1  16
ATOM     15  C   LIG    1       25.995 -17.815   3.336  0.00  0.00    +0.029 C 
ATOM     16  C   LIG    1       25.389 -19.106   3.864  0.00  0.00    +0.141 C 
ENDBRANCH   1  16
BRANCH  12  17
ATOM     17  C   LIG    1       29.524 -18.659   6.217  0.00  0.00    +0.361 C 
ATOM     18  O   LIG    1       30.040 -18.449   7.292  0.00  0.00    -0.243 OA
BRANCH  17  19
ATOM     19  O   LIG    1       29.963 -18.144   5.047  0.00  0.00    -0.476 OA
ATOM     20  H   LIG    1       30.863 -17.767   5.177  0.00  0.00    +0.295 HD
ENDBRANCH  17  19
ENDBRANCH  12  17
TORSDOF 3
ENDMDL
MODEL 9
REMARK VINA RESULT:      -5.3      8.307     10.100
REMARK  Name = *****
REMARK                            x       y       z     vdW  Elec       q    Type
REMARK                         _______ _______ _______ _____ _____    ______ ____
ROOT
ATOM      1  N   LIG    1       24.359 -31.005   8.679  0.00  0.00    -0.263 NA
ATOM      2  C   LIG    1       25.234 -30.413   9.606  0.00  0.00    +0.075 C 
ATOM      3  C   LIG    1       25.869 -29.189   9.295  0.00  0.00    +0.053 C 
ATOM      4  C   LIG    1       26.747 -28.531  10.173  0.00  0.00    +0.063 C 
ATOM      5  C   LIG    1       26.981 -29.127  11.386  0.00  0.00    +0.167 C 
ATOM      6  O   LIG    1       27.788 -28.651  12.367  0.00  0.00    -0.453 OA
ATOM      7  C   LIG    1       27.633 -29.675  13.370  0.00  0.00    +0.466 C 
ATOM      8  O   LIG    1       26.745 -30.740  12.963  0.00  0.00    -0.453 OA
ATOM      9  C   LIG    1       26.385 -30.316  11.721  0.00  0.00    +0.168 C 
ATOM     10  C   LIG    1       25.588 -28.594   7.990  0.00  0.00    +0.222 C 
ATOM     11  O   LIG    1       26.110 -27.550   7.637  0.00  0.00    -0.285 OA
ATOM     12  C   LIG    1       24.633 -29.325   7.098  0.00  0.00    +0.214 C 
ATOM     13  C   LIG    1       25.522 -30.975  10.863  0.00  0.00    +0.077 C 
ATOM     14  N   LIG    1       24.085 -30.458   7.456  0.00  0.00    -0.160 NA
ENDROOT
BRANCH   1  16
ATOM     15  C   LIG    1       23.204 -32.950   7.689  0.00  0.00    +0.029 C 
ATOM     16  C   LIG    1       23.661 -32.269   8.970  0.00  0.00    +0.141 C 
ENDBRANCH   1  16
BRANCH  12  17
ATOM     17  C   LIG    1       24.221 -28.813   5.717  0.00  0.00    +0.361 C 
ATOM     18  O   LIG    1       24.827 -27.984   5.075  0.00  0.00    -0.243 OA
BRANCH  17  19
ATOM     19  O   LIG    1       23.076 -29.405   5.310  0.00  0.00    -0.476 OA
ATOM     20  H   LIG    1       22.768 -30.027   6.008  0.00  0.00    +0.295 HD
ENDBRANCH  17  19
ENDBRANCH  12  17
TORSDOF 3
ENDMDL
