MODEL 1
REMARK VINA RESULT:      -6.9      0.000      0.000
REMARK  Name = *****
REMARK                            x       y       z     vdW  Elec       q    Type
REMARK                         _______ _______ _______ _____ _____    ______ ____
ROOT
ATOM      1  O   LIG    1       28.166 -20.290   8.244  0.00  0.00    -0.489 OA
ENDROOT
BRANCH   1   2
ATOM      2  C   LIG    1       26.926 -20.458   7.686  0.00  0.00    +0.121 A 
ATOM      3  C   LIG    1       25.752 -20.727   8.398  0.00  0.00    +0.047 A 
ATOM      4  C   LIG    1       24.538 -20.873   7.717  0.00  0.00    +0.023 A 
ATOM      5  C   LIG    1       24.495 -20.764   6.331  0.00  0.00    +0.041 A 
ATOM      6 CL   LIG    1       22.996 -20.916   5.502  0.00  0.00    -0.084 Cl
ATOM      7  C   LIG    1       25.666 -20.530   5.612  0.00  0.00    +0.023 A 
ATOM      8  C   LIG    1       26.879 -20.388   6.293  0.00  0.00    +0.047 A 
ENDBRANCH   1   2
BRANCH   1   9
ATOM      9  C   LIG    1       29.281 -20.566   7.379  0.00  0.00    +0.262 C 
BRANCH   9  10
ATOM     10  C   LIG    1       30.573 -20.377   8.187  0.00  0.00    +0.177 C 
BRANCH  10  11
ATOM     11  O   LIG    1       31.647 -20.034   7.294  0.00  0.00    -0.386 OA
ATOM     12  H   LIG    1       32.385 -19.747   7.867  0.00  0.00    +0.210 HD
ENDBRANCH  10  11
BRANCH  10  13
ATOM     13  C   LIG    1       30.975 -21.657   8.923  0.00  0.00    +0.190 C 
BRANCH  13  14
ATOM     14  O   LIG    1       32.258 -21.491   9.527  0.00  0.00    -0.392 OA
ATOM     15  H   LIG    1       32.208 -20.630   9.991  0.00  0.00    +0.209 HD
ENDBRANCH  13  14
ENDBRANCH  10  13
ENDBRANCH   9  10
ENDBRANCH   1   9
TORSDOF 6
ENDMDL
MODEL 2
REMARK VINA RESULT:      -6.7      5.978      7.254
REMARK  Name = *****
REMARK                            x       y       z     vdW  Elec       q    Type
REMARK                         _______ _______ _______ _____ _____    ______ ____
ROOT
ATOM      1  O   LIG    1       23.643 -25.814   6.044  0.00  0.00    -0.489 OA
ENDROOT
BRANCH   1   2
ATOM      2  C   LIG    1       24.156 -24.634   6.517  0.00  0.00    +0.121 A 
ATOM      3  C   LIG    1       25.505 -24.401   6.807  0.00  0.00    +0.047 A 
ATOM      4  C   LIG    1       25.912 -23.149   7.281  0.00  0.00    +0.023 A 
ATOM      5  C   LIG    1       24.979 -22.137   7.476  0.00  0.00    +0.041 A 
ATOM      6 CL   LIG    1       25.491 -20.591   8.030  0.00  0.00    -0.084 Cl
ATOM      7  C   LIG    1       23.629 -22.371   7.222  0.00  0.00    +0.023 A 
ATOM      8  C   LIG    1       23.222 -23.624   6.753  0.00  0.00    +0.047 A 
ENDBRANCH   1   2
BRANCH   1   9
ATOM      9  C   LIG    1       24.605 -26.746   5.521  0.00  0.00    +0.262 C 
BRANCH   9  10
ATOM     10  C   LIG    1       24.667 -27.952   6.469  0.00  0.00    +0.177 C 
BRANCH  10  11
ATOM     11  O   LIG    1       25.936 -27.959   7.147  0.00  0.00    -0.386 OA
ATOM     12  H   LIG    1       26.546 -28.451   6.563  0.00  0.00    +0.210 HD
ENDBRANCH  10  11
BRANCH  10  13
ATOM     13  C   LIG    1       24.541 -29.277   5.715  0.00  0.00    +0.190 C 
BRANCH  13  14
ATOM     14  O   LIG    1       23.172 -29.536   5.405  0.00  0.00    -0.392 OA
ATOM     15  H   LIG    1       23.001 -30.435   5.755  0.00  0.00    +0.209 HD
ENDBRANCH  13  14
ENDBRANCH  10  13
ENDBRANCH   9  10
ENDBRANCH   1   9
TORSDOF 6
ENDMDL
MODEL 3
REMARK VINA RESULT:      -6.6      1.205      1.993
REMARK  Name = *****
REMARK                            x       y       z     vdW  Elec       q    Type
REMARK                         _______ _______ _______ _____ _____    ______ ____
ROOT
ATOM      1  O   LIG    1       28.798 -20.137   8.477  0.00  0.00    -0.489 OA
ENDROOT
BRANCH   1   2
ATOM      2  C   LIG    1       27.661 -20.302   7.731  0.00  0.00    +0.121 A 
ATOM      3  C   LIG    1       27.590 -20.201   6.337  0.00  0.00    +0.047 A 
ATOM      4  C   LIG    1       26.369 -20.396   5.683  0.00  0.00    +0.023 A 
ATOM      5  C   LIG    1       25.220 -20.680   6.413  0.00  0.00    +0.041 A 
ATOM      6 CL   LIG    1       23.728 -20.948   5.600  0.00  0.00    -0.084 Cl
ATOM      7  C   LIG    1       25.275 -20.749   7.804  0.00  0.00    +0.023 A 
ATOM      8  C   LIG    1       26.495 -20.550   8.458  0.00  0.00    +0.047 A 
ENDBRANCH   1   2
BRANCH   1   9
ATOM      9  C   LIG    1       29.929 -20.930   8.073  0.00  0.00    +0.262 C 
BRANCH   9  10
ATOM     10  C   LIG    1       31.204 -20.128   8.369  0.00  0.00    +0.177 C 
BRANCH  10  11
ATOM     11  O   LIG    1       32.037 -20.876   9.273  0.00  0.00    -0.386 OA
ATOM     12  H   LIG    1       32.171 -20.298  10.049  0.00  0.00    +0.210 HD
ENDBRANCH  10  11
BRANCH  10  13
ATOM     13  C   LIG    1       30.892 -18.786   9.032  0.00  0.00    +0.190 C 
BRANCH  13  14
ATOM     14  O   LIG    1       30.786 -18.951  10.446  0.00  0.00    -0.392 OA
ATOM     15  H   LIG    1       30.283 -19.784  10.564  0.00  0.00    +0.209 HD
ENDBRANCH  13  14
ENDBRANCH  10  13
ENDBRANCH   9  10
ENDBRANCH   1   9
TORSDOF 6
ENDMDL
MODEL 4
REMARK VINA RESULT:      -6.5      5.810      6.948
REMARK  Name = *****
REMARK                            x       y       z     vdW  Elec       q    Type
REMARK                         _______ _______ _______ _____ _____    ______ ____
ROOT
ATOM      1  O   LIG    1       23.841 -26.094   6.158  0.00  0.00    -0.489 OA
ENDROOT
BRANCH   1   2
ATOM      2  C   LIG    1       24.087 -24.802   6.543  0.00  0.00    +0.121 A 
ATOM      3  C   LIG    1       23.113 -23.811   6.703  0.00  0.00    +0.047 A 
ATOM      4  C   LIG    1       23.484 -22.524   7.109  0.00  0.00    +0.023 A 
ATOM      5  C   LIG    1       24.822 -22.222   7.343  0.00  0.00    +0.041 A 
ATOM      6 CL   LIG    1       25.269 -20.647   7.869  0.00  0.00    -0.084 Cl
ATOM      7  C   LIG    1       25.802 -23.195   7.152  0.00  0.00    +0.023 A 
ATOM      8  C   LIG    1       25.430 -24.479   6.744  0.00  0.00    +0.047 A 
ENDBRANCH   1   2
BRANCH   1   9
ATOM      9  C   LIG    1       24.809 -26.671   5.263  0.00  0.00    +0.262 C 
BRANCH   9  10
ATOM     10  C   LIG    1       24.844 -28.186   5.509  0.00  0.00    +0.177 C 
BRANCH  10  11
ATOM     11  O   LIG    1       23.602 -28.767   5.072  0.00  0.00    -0.386 OA
ATOM     12  H   LIG    1       23.557 -28.604   4.110  0.00  0.00    +0.210 HD
ENDBRANCH  10  11
BRANCH  10  13
ATOM     13  C   LIG    1       25.013 -28.518   6.992  0.00  0.00    +0.190 C 
BRANCH  13  14
ATOM     14  O   LIG    1       26.121 -27.800   7.532  0.00  0.00    -0.392 OA
ATOM     15  H   LIG    1       26.475 -28.377   8.240  0.00  0.00    +0.209 HD
ENDBRANCH  13  14
ENDBRANCH  10  13
ENDBRANCH   9  10
ENDBRANCH   1   9
TORSDOF 6
ENDMDL
MODEL 5
REMARK VINA RESULT:      -6.3      2.313      2.946
REMARK  Name = *****
REMARK                            x       y       z     vdW  Elec       q    Type
REMARK                         _______ _______ _______ _____ _____    ______ ____
ROOT
ATOM      1  O   LIG    1       27.833 -21.184   8.206  0.00  0.00    -0.489 OA
ENDROOT
BRANCH   1   2
ATOM      2  C   LIG    1       26.566 -21.595   7.887  0.00  0.00    +0.121 A 
ATOM      3  C   LIG    1       25.407 -20.827   8.042  0.00  0.00    +0.047 A 
ATOM      4  C   LIG    1       24.164 -21.354   7.675  0.00  0.00    +0.023 A 
ATOM      5  C   LIG    1       24.073 -22.645   7.166  0.00  0.00    +0.041 A 
ATOM      6 CL   LIG    1       22.546 -23.277   6.689  0.00  0.00    -0.084 Cl
ATOM      7  C   LIG    1       25.218 -23.430   7.041  0.00  0.00    +0.023 A 
ATOM      8  C   LIG    1       26.460 -22.904   7.412  0.00  0.00    +0.047 A 
ENDBRANCH   1   2
BRANCH   1   9
ATOM      9  C   LIG    1       28.754 -21.092   7.104  0.00  0.00    +0.262 C 
BRANCH   9  10
ATOM     10  C   LIG    1       28.523 -19.747   6.400  0.00  0.00    +0.177 C 
BRANCH  10  11
ATOM     11  O   LIG    1       28.010 -19.985   5.077  0.00  0.00    -0.386 OA
ATOM     12  H   LIG    1       28.559 -20.703   4.705  0.00  0.00    +0.210 HD
ENDBRANCH  10  11
BRANCH  10  13
ATOM     13  C   LIG    1       29.822 -18.951   6.254  0.00  0.00    +0.190 C 
BRANCH  13  14
ATOM     14  O   LIG    1       29.707 -18.020   5.178  0.00  0.00    -0.392 OA
ATOM     15  H   LIG    1       28.743 -17.898   5.053  0.00  0.00    +0.209 HD
ENDBRANCH  13  14
ENDBRANCH  10  13
ENDBRANCH   9  10
ENDBRANCH   1   9
TORSDOF 6
ENDMDL
MODEL 6
REMARK VINA RESULT:      -6.2      4.560      5.567
REMARK  Name = *****
REMARK                            x       y       z     vdW  Elec       q    Type
REMARK                         _______ _______ _______ _____ _____    ______ ____
ROOT
ATOM      1  O   LIG    1       25.484 -22.443   5.690  0.00  0.00    -0.489 OA
ENDROOT
BRANCH   1   2
ATOM      2  C   LIG    1       24.694 -21.396   5.295  0.00  0.00    +0.121 A 
ATOM      3  C   LIG    1       24.905 -20.613   4.155  0.00  0.00    +0.047 A 
ATOM      4  C   LIG    1       24.023 -19.570   3.850  0.00  0.00    +0.023 A 
ATOM      5  C   LIG    1       22.942 -19.301   4.682  0.00  0.00    +0.041 A 
ATOM      6 CL   LIG    1       21.844 -18.037   4.286  0.00  0.00    -0.084 Cl
ATOM      7  C   LIG    1       22.744 -20.054   5.838  0.00  0.00    +0.023 A 
ATOM      8  C   LIG    1       23.628 -21.094   6.144  0.00  0.00    +0.047 A 
ENDBRANCH   1   2
BRANCH   1   9
ATOM      9  C   LIG    1       25.121 -23.062   6.937  0.00  0.00    +0.262 C 
BRANCH   9  10
ATOM     10  C   LIG    1       25.286 -24.581   6.783  0.00  0.00    +0.177 C 
BRANCH  10  11
ATOM     11  O   LIG    1       26.304 -24.852   5.802  0.00  0.00    -0.386 OA
ATOM     12  H   LIG    1       26.146 -24.218   5.075  0.00  0.00    +0.210 HD
ENDBRANCH  10  11
BRANCH  10  13
ATOM     13  C   LIG    1       23.995 -25.248   6.303  0.00  0.00    +0.190 C 
BRANCH  13  14
ATOM     14  O   LIG    1       22.892 -24.358   6.471  0.00  0.00    -0.392 OA
ATOM     15  H   LIG    1       23.265 -23.583   6.940  0.00  0.00    +0.209 HD
ENDBRANCH  13  14
ENDBRANCH  10  13
ENDBRANCH   9  10
ENDBRANCH   1   9
TORSDOF 6
ENDMDL
MODEL 7
REMARK VINA RESULT:      -6.2      1.620      1.910
REMARK  Name = *****
REMARK                            x       y       z     vdW  Elec       q    Type
REMARK                         _______ _______ _______ _____ _____    ______ ____
ROOT
ATOM      1  O   LIG    1       27.752 -20.494   8.423  0.00  0.00    -0.489 OA
ENDROOT
BRANCH   1   2
ATOM      2  C   LIG    1       26.601 -21.132   8.042  0.00  0.00    +0.121 A 
ATOM      3  C   LIG    1       25.330 -20.548   8.006  0.00  0.00    +0.047 A 
ATOM      4  C   LIG    1       24.226 -21.301   7.591  0.00  0.00    +0.023 A 
ATOM      5  C   LIG    1       24.384 -22.633   7.226  0.00  0.00    +0.041 A 
ATOM      6 CL   LIG    1       23.028 -23.545   6.689  0.00  0.00    -0.084 Cl
ATOM      7  C   LIG    1       25.641 -23.232   7.292  0.00  0.00    +0.023 A 
ATOM      8  C   LIG    1       26.743 -22.480   7.710  0.00  0.00    +0.047 A 
ENDBRANCH   1   2
BRANCH   1   9
ATOM      9  C   LIG    1       28.692 -20.221   7.369  0.00  0.00    +0.262 C 
BRANCH   9  10
ATOM     10  C   LIG    1       30.081 -20.676   7.836  0.00  0.00    +0.177 C 
BRANCH  10  11
ATOM     11  O   LIG    1       29.938 -21.553   8.967  0.00  0.00    -0.386 OA
ATOM     12  H   LIG    1       29.004 -21.840   8.964  0.00  0.00    +0.210 HD
ENDBRANCH  10  11
BRANCH  10  13
ATOM     13  C   LIG    1       30.949 -19.495   8.276  0.00  0.00    +0.190 C 
BRANCH  13  14
ATOM     14  O   LIG    1       31.948 -19.936   9.195  0.00  0.00    -0.392 OA
ATOM     15  H   LIG    1       32.701 -20.213   8.633  0.00  0.00    +0.209 HD
ENDBRANCH  13  14
ENDBRANCH  10  13
ENDBRANCH   9  10
ENDBRANCH   1   9
TORSDOF 6
ENDMDL
MODEL 8
REMARK VINA RESULT:      -6.2      4.775      5.792
REMARK  Name = *****
REMARK                            x       y       z     vdW  Elec       q    Type
REMARK                         _______ _______ _______ _____ _____    ______ ____
ROOT
ATOM      1  O   LIG    1       25.188 -23.887   7.073  0.00  0.00    -0.489 OA
ENDROOT
BRANCH   1   2
ATOM      2  C   LIG    1       24.589 -22.780   6.533  0.00  0.00    +0.121 A 
ATOM      3  C   LIG    1       24.651 -22.407   5.186  0.00  0.00    +0.047 A 
ATOM      4  C   LIG    1       23.990 -21.253   4.749  0.00  0.00    +0.023 A 
ATOM      5  C   LIG    1       23.281 -20.468   5.651  0.00  0.00    +0.041 A 
ATOM      6 CL   LIG    1       22.447 -19.067   5.102  0.00  0.00    -0.084 Cl
ATOM      7  C   LIG    1       23.244 -20.814   7.001  0.00  0.00    +0.023 A 
ATOM      8  C   LIG    1       23.907 -21.964   7.437  0.00  0.00    +0.047 A 
ENDBRANCH   1   2
BRANCH   1   9
ATOM      9  C   LIG    1       25.848 -24.758   6.136  0.00  0.00    +0.262 C 
BRANCH   9  10
ATOM     10  C   LIG    1       25.737 -26.197   6.661  0.00  0.00    +0.177 C 
BRANCH  10  11
ATOM     11  O   LIG    1       26.859 -26.963   6.188  0.00  0.00    -0.386 OA
ATOM     12  H   LIG    1       27.505 -26.966   6.921  0.00  0.00    +0.210 HD
ENDBRANCH  10  11
BRANCH  10  13
ATOM     13  C   LIG    1       24.465 -26.888   6.165  0.00  0.00    +0.190 C 
BRANCH  13  14
ATOM     14  O   LIG    1       23.666 -25.967   5.423  0.00  0.00    -0.392 OA
ATOM     15  H   LIG    1       23.621 -25.165   5.983  0.00  0.00    +0.209 HD
ENDBRANCH  13  14
ENDBRANCH  10  13
ENDBRANCH   9  10
ENDBRANCH   1   9
TORSDOF 6
ENDMDL
MODEL 9
REMARK VINA RESULT:      -6.2      2.596      3.962
REMARK  Name = *****
REMARK                            x       y       z     vdW  Elec       q    Type
REMARK                         _______ _______ _______ _____ _____    ______ ____
ROOT
ATOM      1  O   LIG    1       25.869 -21.635   6.140  0.00  0.00    -0.489 OA
ENDROOT
BRANCH   1   2
ATOM      2  C   LIG    1       24.923 -20.838   5.551  0.00  0.00    +0.121 A 
ATOM      3  C   LIG    1       25.089 -20.147   4.346  0.00  0.00    +0.047 A 
ATOM      4  C   LIG    1       24.045 -19.365   3.838  0.00  0.00    +0.023 A 
ATOM      5  C   LIG    1       22.845 -19.262   4.533  0.00  0.00    +0.041 A 
ATOM      6 CL   LIG    1       21.555 -18.323   3.889  0.00  0.00    -0.084 Cl
ATOM      7  C   LIG    1       22.684 -19.920   5.752  0.00  0.00    +0.023 A 
ATOM      8  C   LIG    1       23.729 -20.698   6.260  0.00  0.00    +0.047 A 
ENDBRANCH   1   2
BRANCH   1   9
ATOM      9  C   LIG    1       25.464 -22.287   7.357  0.00  0.00    +0.262 C 
BRANCH   9  10
ATOM     10  C   LIG    1       26.470 -21.917   8.456  0.00  0.00    +0.177 C 
BRANCH  10  11
ATOM     11  O   LIG    1       25.940 -20.833   9.240  0.00  0.00    -0.386 OA
ATOM     12  H   LIG    1       25.710 -20.131   8.600  0.00  0.00    +0.210 HD
ENDBRANCH  10  11
BRANCH  10  13
ATOM     13  C   LIG    1       27.806 -21.452   7.871  0.00  0.00    +0.190 C 
BRANCH  13  14
ATOM     14  O   LIG    1       27.806 -20.034   7.717  0.00  0.00    -0.392 OA
ATOM     15  H   LIG    1       27.324 -19.872   6.880  0.00  0.00    +0.209 HD
ENDBRANCH  13  14
ENDBRANCH  10  13
ENDBRANCH   9  10
ENDBRANCH   1   9
TORSDOF 6
ENDMDL
