MODEL 1
REMARK VINA RESULT:      25.9      0.000      0.000
REMARK  Name = *****
REMARK                            x       y       z     vdW  Elec       q    Type
REMARK                         _______ _______ _______ _____ _____    ______ ____
ROOT
ATOM      1  C   LIG    1       24.188 -16.500   2.844  0.00  0.00    +0.035 C 
ATOM      2  N   LIG    1       25.172 -15.497   2.800  0.00  0.00    -0.342 NA
ATOM      3  C   LIG    1       26.241 -15.790   3.745  0.00  0.00    +0.058 C 
ATOM      4  C   LIG    1       26.198 -17.221   3.892  0.00  0.00    +0.020 C 
ATOM      5  C   LIG    1       24.804 -17.649   3.437  0.00  0.00    +0.066 C 
ENDROOT
BRANCH   3   6
ATOM      6  C   LIG    1       27.172 -14.718   4.432  0.00  0.00    -0.001 C 
ATOM      7  C   LIG    1       28.007 -13.793   3.753  0.00  0.00    +0.013 C 
ATOM      8  C   LIG    1       28.755 -12.772   4.373  0.00  0.00    +0.039 C 
ATOM      9  C   LIG    1       28.690 -12.615   5.735  0.00  0.00    +0.123 C 
ATOM     10  F   LIG    1       29.353 -11.608   6.320  0.00  0.00    -0.205 F 
ATOM     11  C   LIG    1       27.927 -13.495   6.477  0.00  0.00    +0.039 C 
ATOM     12  C   LIG    1       27.186 -14.527   5.836  0.00  0.00    +0.013 C 
ENDBRANCH   3   6
BRANCH   4  13
ATOM     13  C   LIG    1       27.344 -18.024   4.531  0.00  0.00    -0.015 C 
ATOM     14  C   LIG    1       28.448 -17.410   5.162  0.00  0.00    +0.008 C 
ATOM     15  C   LIG    1       29.473 -18.170   5.792  0.00  0.00    +0.001 C 
ATOM     16  C   LIG    1       29.469 -19.565   5.760  0.00  0.00    +0.000 C 
ATOM     17  C   LIG    1       28.444 -20.197   5.094  0.00  0.00    +0.001 C 
ATOM     18  C   LIG    1       27.390 -19.438   4.559  0.00  0.00    +0.008 C 
ENDBRANCH   4  13
BRANCH   5  19
ATOM     19  C   LIG    1       24.109 -18.994   3.584  0.00  0.00    +0.251 C 
ATOM     20  N   LIG    1       22.912 -18.980   4.163  0.00  0.00    -0.281 N 
ATOM     21  H   LIG    1       22.691 -18.062   4.581  0.00  0.00    +0.155 HD
ATOM     22  O   LIG    1       24.664 -20.097   3.215  0.00  0.00    -0.270 OA
BRANCH  20  23
ATOM     23  C   LIG    1       21.867 -19.927   4.363  0.00  0.00    +0.034 C 
ATOM     24  C   LIG    1       21.959 -20.759   5.477  0.00  0.00    +0.023 C 
ATOM     25  C   LIG    1       20.887 -21.571   5.872  0.00  0.00    +0.002 C 
ATOM     26  C   LIG    1       19.656 -21.462   5.233  0.00  0.00    +0.000 C 
ATOM     27  C   LIG    1       19.516 -20.563   4.177  0.00  0.00    +0.002 C 
ATOM     28  C   LIG    1       20.624 -19.814   3.722  0.00  0.00    +0.023 C 
ENDBRANCH  20  23
ENDBRANCH   5  19
BRANCH   1  30
ATOM     29  C   LIG    1       21.600 -16.997   3.271  0.00  0.00    +0.014 C 
ATOM     30  C   LIG    1       22.678 -16.380   2.375  0.00  0.00    +0.030 C 
ATOM     31  C   LIG    1       22.187 -14.941   2.109  0.00  0.00    +0.014 C 
ENDBRANCH   1  30
BRANCH   2  32
ATOM     32  C   LIG    1       25.136 -14.236   2.041  0.00  0.00    +0.124 C 
BRANCH  32  33
ATOM     33  C   LIG    1       25.988 -12.962   2.271  0.00  0.00    +0.053 C 
BRANCH  33  34
ATOM     34  C   LIG    1       25.233 -11.783   3.026  0.00  0.00    +0.119 C 
BRANCH  34  35
ATOM     35  O   LIG    1       24.102 -11.449   2.225  0.00  0.00    -0.392 OA
ATOM     36  H   LIG    1       23.288 -11.528   2.757  0.00  0.00    +0.210 HD
ENDBRANCH  34  35
BRANCH  34  37
ATOM     37  C   LIG    1       24.797 -12.105   4.479  0.00  0.00    +0.063 C 
BRANCH  37  38
ATOM     38  C   LIG    1       23.546 -12.980   4.854  0.00  0.00    +0.128 C 
BRANCH  38  39
ATOM     39  O   LIG    1       22.394 -12.137   4.792  0.00  0.00    -0.391 OA
ATOM     40  H   LIG    1       22.511 -11.391   5.410  0.00  0.00    +0.210 HD
ENDBRANCH  38  39
BRANCH  38  41
ATOM     41  C   LIG    1       23.476 -13.839   6.130  0.00  0.00    +0.151 C 
BRANCH  41  42
ATOM     42  C   LIG    1       22.324 -14.853   6.255  0.00  0.00    +0.307 C 
ATOM     43  O   LIG    1       21.406 -14.695   7.054  0.00  0.00    -0.251 OA
BRANCH  42  44
ATOM     44  O   LIG    1       22.360 -15.969   5.504  0.00  0.00    -0.481 OA
ATOM     45  H   LIG    1       22.390 -16.829   5.943  0.00  0.00    +0.295 HD
ENDBRANCH  42  44
ENDBRANCH  41  42
ENDBRANCH  38  41
ENDBRANCH  37  38
ENDBRANCH  34  37
ENDBRANCH  33  34
ENDBRANCH  32  33
ENDBRANCH   2  32
TORSDOF 15
ENDMDL
