MODEL 1
REMARK VINA RESULT:      -7.1      0.000      0.000
REMARK  Name = *****
REMARK                            x       y       z     vdW  Elec       q    Type
REMARK                         _______ _______ _______ _____ _____    ______ ____
ROOT
ATOM      1  C   LIG    1       24.857 -28.996  11.689  0.00  0.00    +0.025 C 
ATOM      2  C   LIG    1       25.676 -30.299  11.598  0.00  0.00    +0.042 C 
ATOM      3  CA  LIG    1       24.752 -31.492  11.247  0.00  0.00    +0.201 C 
ATOM      4  N   LIG    1       24.748 -31.634   9.782  0.00  0.00    -0.271 N 
ATOM      5  C   LIG    1       25.989 -31.260   9.077  0.00  0.00    +0.165 C 
ATOM      6  CA  LIG    1       25.111 -30.632   7.969  0.00  0.00    +0.190 C 
ATOM      7  C   LIG    1       23.963 -30.831   8.994  0.00  0.00    +0.240 C 
ATOM      8  O   LIG    1       22.851 -30.398   9.204  0.00  0.00    -0.273 OA
ATOM      9  S   LIG    1       26.871 -30.108  10.191  0.00  0.00    -0.127 S 
ATOM     10  C   LIG    1       26.493 -30.430  12.887  0.00  0.00    +0.025 C 
ENDROOT
BRANCH   6  11
ATOM     11  N   LIG    1       25.424 -29.240   7.559  0.00  0.00    -0.299 N 
ATOM     12  H   LIG    1       26.197 -28.724   7.980  0.00  0.00    +0.150 HD
ATOM     13  C   LIG    1       24.697 -28.591   6.586  0.00  0.00    +0.251 C 
ATOM     14  O   LIG    1       23.771 -29.135   5.987  0.00  0.00    -0.272 OA
BRANCH  13  15
ATOM     15  C   LIG    1       25.069 -27.133   6.335  0.00  0.00    +0.324 C 
BRANCH  15  16
ATOM     16  O   LIG    1       23.932 -26.289   6.175  0.00  0.00    -0.483 OA
BRANCH  16  17
ATOM     17  C   LIG    1       24.137 -24.970   6.488  0.00  0.00    +0.121 A 
ATOM     18  C   LIG    1       23.136 -24.002   6.636  0.00  0.00    +0.045 A 
ATOM     19  C   LIG    1       23.459 -22.717   7.056  0.00  0.00    +0.004 A 
ATOM     20  C   LIG    1       24.787 -22.372   7.303  0.00  0.00    +0.000 A 
ATOM     21  C   LIG    1       25.795 -23.308   7.099  0.00  0.00    +0.004 A 
ATOM     22  C   LIG    1       25.469 -24.605   6.683  0.00  0.00    +0.045 A 
ENDBRANCH  16  17
ENDBRANCH  15  16
ENDBRANCH  13  15
ENDBRANCH   6  11
BRANCH   3  23
ATOM     23  C   LIG    1       25.113 -32.866  11.840  0.00  0.00    +0.327 C 
ATOM     24  O   LIG    1       25.996 -33.604  11.434  0.00  0.00    -0.249 OA
BRANCH  23  25
ATOM     25  OXT LIG    1       24.431 -33.148  12.982  0.00  0.00    -0.479 OA
ATOM     26  HXT LIG    1       24.984 -32.942  13.766  0.00  0.00    +0.295 HD
ENDBRANCH  23  25
ENDBRANCH   3  23
TORSDOF 6
ENDMDL
MODEL 2
REMARK VINA RESULT:      -6.7      2.213      3.465
REMARK  Name = *****
REMARK                            x       y       z     vdW  Elec       q    Type
REMARK                         _______ _______ _______ _____ _____    ______ ____
ROOT
ATOM      1  C   LIG    1       23.579 -30.035   9.200  0.00  0.00    +0.025 C 
ATOM      2  C   LIG    1       25.068 -30.312   8.913  0.00  0.00    +0.042 C 
ATOM      3  CA  LIG    1       25.218 -31.189   7.644  0.00  0.00    +0.201 C 
ATOM      4  N   LIG    1       25.377 -30.282   6.495  0.00  0.00    -0.271 N 
ATOM      5  C   LIG    1       26.063 -29.001   6.753  0.00  0.00    +0.165 C 
ATOM      6  CA  LIG    1       25.044 -28.322   5.809  0.00  0.00    +0.190 C 
ATOM      7  C   LIG    1       24.292 -29.676   5.914  0.00  0.00    +0.240 C 
ATOM      8  O   LIG    1       23.174 -30.108   5.736  0.00  0.00    -0.273 OA
ATOM      9  S   LIG    1       25.876 -28.683   8.545  0.00  0.00    -0.127 S 
ATOM     10  C   LIG    1       25.698 -30.863  10.197  0.00  0.00    +0.025 C 
ENDROOT
BRANCH   6  11
ATOM     11  N   LIG    1       24.345 -27.114   6.316  0.00  0.00    -0.299 N 
ATOM     12  H   LIG    1       23.565 -27.188   6.969  0.00  0.00    +0.150 HD
ATOM     13  C   LIG    1       24.729 -25.845   5.942  0.00  0.00    +0.251 C 
ATOM     14  O   LIG    1       25.682 -25.643   5.191  0.00  0.00    -0.272 OA
BRANCH  13  15
ATOM     15  C   LIG    1       23.862 -24.704   6.465  0.00  0.00    +0.324 C 
BRANCH  15  16
ATOM     16  O   LIG    1       24.611 -23.528   6.759  0.00  0.00    -0.483 OA
BRANCH  16  17
ATOM     17  C   LIG    1       24.145 -22.379   6.173  0.00  0.00    +0.121 A 
ATOM     18  C   LIG    1       23.274 -21.457   6.766  0.00  0.00    +0.045 A 
ATOM     19  C   LIG    1       22.952 -20.274   6.112  0.00  0.00    +0.004 A 
ATOM     20  C   LIG    1       23.469 -20.010   4.844  0.00  0.00    +0.000 A 
ATOM     21  C   LIG    1       24.286 -20.947   4.221  0.00  0.00    +0.004 A 
ATOM     22  C   LIG    1       24.616 -22.135   4.884  0.00  0.00    +0.045 A 
ENDBRANCH  16  17
ENDBRANCH  15  16
ENDBRANCH  13  15
ENDBRANCH   6  11
BRANCH   3  23
ATOM     23  C   LIG    1       26.389 -32.186   7.607  0.00  0.00    +0.327 C 
ATOM     24  O   LIG    1       26.537 -33.136   8.359  0.00  0.00    -0.249 OA
BRANCH  23  25
ATOM     25  OXT LIG    1       27.213 -31.999   6.542  0.00  0.00    -0.479 OA
ATOM     26  HXT LIG    1       28.143 -32.182   6.796  0.00  0.00    +0.295 HD
ENDBRANCH  23  25
ENDBRANCH   3  23
TORSDOF 6
ENDMDL
MODEL 3
REMARK VINA RESULT:      -6.4      7.044     10.182
REMARK  Name = *****
REMARK                            x       y       z     vdW  Elec       q    Type
REMARK                         _______ _______ _______ _____ _____    ______ ____
ROOT
ATOM      1  C   LIG    1       25.954 -24.205   7.254  0.00  0.00    +0.025 C 
ATOM      2  C   LIG    1       25.229 -23.224   6.312  0.00  0.00    +0.042 C 
ATOM      3  CA  LIG    1       24.133 -22.446   7.082  0.00  0.00    +0.201 C 
ATOM      4  N   LIG    1       24.740 -21.200   7.579  0.00  0.00    -0.271 N 
ATOM      5  C   LIG    1       25.805 -20.606   6.749  0.00  0.00    +0.165 C 
ATOM      6  CA  LIG    1       26.559 -20.258   8.054  0.00  0.00    +0.190 C 
ATOM      7  C   LIG    1       25.507 -21.189   8.715  0.00  0.00    +0.240 C 
ATOM      8  O   LIG    1       25.377 -21.824   9.738  0.00  0.00    -0.273 OA
ATOM      9  S   LIG    1       26.478 -21.976   5.740  0.00  0.00    -0.127 S 
ATOM     10  C   LIG    1       24.765 -24.012   5.082  0.00  0.00    +0.025 C 
ENDROOT
BRANCH   6  11
ATOM     11  N   LIG    1       27.984 -20.666   8.147  0.00  0.00    -0.299 N 
ATOM     12  H   LIG    1       28.256 -21.544   8.588  0.00  0.00    +0.150 HD
ATOM     13  C   LIG    1       28.995 -19.888   7.629  0.00  0.00    +0.251 C 
ATOM     14  O   LIG    1       28.773 -18.830   7.041  0.00  0.00    -0.272 OA
BRANCH  13  15
ATOM     15  C   LIG    1       30.415 -20.384   7.880  0.00  0.00    +0.324 C 
BRANCH  15  16
ATOM     16  O   LIG    1       30.861 -20.141   9.211  0.00  0.00    -0.483 OA
BRANCH  16  17
ATOM     17  C   LIG    1       31.040 -18.821   9.534  0.00  0.00    +0.121 A 
ATOM     18  C   LIG    1       30.396 -18.141  10.576  0.00  0.00    +0.045 A 
ATOM     19  C   LIG    1       30.736 -16.827  10.873  0.00  0.00    +0.004 A 
ATOM     20  C   LIG    1       31.698 -16.162  10.114  0.00  0.00    +0.000 A 
ATOM     21  C   LIG    1       32.299 -16.808   9.039  0.00  0.00    +0.004 A 
ATOM     22  C   LIG    1       31.962 -18.135   8.745  0.00  0.00    +0.045 A 
ENDBRANCH  16  17
ENDBRANCH  15  16
ENDBRANCH  13  15
ENDBRANCH   6  11
BRANCH   3  23
ATOM     23  C   LIG    1       22.861 -22.060   6.308  0.00  0.00    +0.327 C 
ATOM     24  O   LIG    1       22.720 -21.055   5.629  0.00  0.00    -0.249 OA
BRANCH  23  25
ATOM     25  OXT LIG    1       21.910 -23.032   6.330  0.00  0.00    -0.479 OA
ATOM     26  HXT LIG    1       21.176 -22.774   6.928  0.00  0.00    +0.295 HD
ENDBRANCH  23  25
ENDBRANCH   3  23
TORSDOF 6
ENDMDL
MODEL 4
REMARK VINA RESULT:      -6.4      6.876     10.045
REMARK  Name = *****
REMARK                            x       y       z     vdW  Elec       q    Type
REMARK                         _______ _______ _______ _____ _____    ______ ____
ROOT
ATOM      1  C   LIG    1       25.052 -21.132   4.667  0.00  0.00    +0.025 C 
ATOM      2  C   LIG    1       24.034 -21.575   5.736  0.00  0.00    +0.042 C 
ATOM      3  CA  LIG    1       24.320 -23.031   6.183  0.00  0.00    +0.201 C 
ATOM      4  N   LIG    1       25.212 -22.968   7.352  0.00  0.00    -0.271 N 
ATOM      5  C   LIG    1       25.055 -21.802   8.243  0.00  0.00    +0.165 C 
ATOM      6  CA  LIG    1       26.595 -21.764   8.382  0.00  0.00    +0.190 C 
ATOM      7  C   LIG    1       26.562 -22.777   7.206  0.00  0.00    +0.240 C 
ATOM      8  O   LIG    1       27.309 -23.193   6.348  0.00  0.00    -0.273 OA
ATOM      9  S   LIG    1       24.282 -20.494   7.224  0.00  0.00    -0.127 S 
ATOM     10  C   LIG    1       22.629 -21.297   5.190  0.00  0.00    +0.025 C 
ENDROOT
BRANCH   6  11
ATOM     11  N   LIG    1       27.270 -20.464   8.142  0.00  0.00    -0.299 N 
ATOM     12  H   LIG    1       26.735 -19.610   7.983  0.00  0.00    +0.150 HD
ATOM     13  C   LIG    1       28.642 -20.350   8.139  0.00  0.00    +0.251 C 
ATOM     14  O   LIG    1       29.380 -21.309   8.360  0.00  0.00    -0.272 OA
BRANCH  13  15
ATOM     15  C   LIG    1       29.198 -18.974   7.785  0.00  0.00    +0.324 C 
BRANCH  15  16
ATOM     16  O   LIG    1       30.596 -18.859   8.033  0.00  0.00    -0.483 OA
BRANCH  16  17
ATOM     17  C   LIG    1       30.941 -17.967   9.017  0.00  0.00    +0.121 A 
ATOM     18  C   LIG    1       30.170 -17.657  10.144  0.00  0.00    +0.045 A 
ATOM     19  C   LIG    1       30.671 -16.812  11.127  0.00  0.00    +0.004 A 
ATOM     20  C   LIG    1       31.935 -16.240  10.983  0.00  0.00    +0.000 A 
ATOM     21  C   LIG    1       32.683 -16.493   9.838  0.00  0.00    +0.004 A 
ATOM     22  C   LIG    1       32.181 -17.350   8.852  0.00  0.00    +0.045 A 
ENDBRANCH  16  17
ENDBRANCH  15  16
ENDBRANCH  13  15
ENDBRANCH   6  11
BRANCH   3  23
ATOM     23  C   LIG    1       23.114 -23.903   6.571  0.00  0.00    +0.327 C 
ATOM     24  O   LIG    1       22.070 -23.496   7.055  0.00  0.00    -0.249 OA
BRANCH  23  25
ATOM     25  OXT LIG    1       23.255 -25.202   6.196  0.00  0.00    -0.479 OA
ATOM     26  HXT LIG    1       24.129 -25.545   6.482  0.00  0.00    +0.295 HD
ENDBRANCH  23  25
ENDBRANCH   3  23
TORSDOF 6
ENDMDL
MODEL 5
REMARK VINA RESULT:      -5.7      1.604      2.002
REMARK  Name = *****
REMARK                            x       y       z     vdW  Elec       q    Type
REMARK                         _______ _______ _______ _____ _____    ______ ____
ROOT
ATOM      1  C   LIG    1       26.059 -27.882  11.979  0.00  0.00    +0.025 C 
ATOM      2  C   LIG    1       26.544 -29.326  12.214  0.00  0.00    +0.042 C 
ATOM      3  CA  LIG    1       25.407 -30.182  12.829  0.00  0.00    +0.201 C 
ATOM      4  N   LIG    1       24.685 -30.823  11.718  0.00  0.00    -0.271 N 
ATOM      5  C   LIG    1       25.479 -31.163  10.521  0.00  0.00    +0.165 C 
ATOM      6  CA  LIG    1       24.277 -30.713   9.657  0.00  0.00    +0.190 C 
ATOM      7  C   LIG    1       23.741 -30.138  10.996  0.00  0.00    +0.240 C 
ATOM      8  O   LIG    1       22.937 -29.313  11.370  0.00  0.00    -0.273 OA
ATOM      9  S   LIG    1       26.937 -30.059  10.555  0.00  0.00    -0.127 S 
ATOM     10  C   LIG    1       27.849 -29.258  13.013  0.00  0.00    +0.025 C 
ENDROOT
BRANCH   6  11
ATOM     11  N   LIG    1       24.548 -29.748   8.562  0.00  0.00    -0.299 N 
ATOM     12  H   LIG    1       25.010 -28.857   8.743  0.00  0.00    +0.150 HD
ATOM     13  C   LIG    1       24.204 -30.019   7.257  0.00  0.00    +0.251 C 
ATOM     14  O   LIG    1       23.679 -31.081   6.924  0.00  0.00    -0.272 OA
BRANCH  13  15
ATOM     15  C   LIG    1       24.456 -28.899   6.253  0.00  0.00    +0.324 C 
BRANCH  15  16
ATOM     16  O   LIG    1       25.489 -28.007   6.664  0.00  0.00    -0.483 OA
BRANCH  16  17
ATOM     17  C   LIG    1       25.185 -26.674   6.555  0.00  0.00    +0.121 A 
ATOM     18  C   LIG    1       23.969 -26.149   6.101  0.00  0.00    +0.045 A 
ATOM     19  C   LIG    1       23.741 -24.779   6.131  0.00  0.00    +0.004 A 
ATOM     20  C   LIG    1       24.734 -23.912   6.584  0.00  0.00    +0.000 A 
ATOM     21  C   LIG    1       25.968 -24.418   6.979  0.00  0.00    +0.004 A 
ATOM     22  C   LIG    1       26.194 -25.800   6.955  0.00  0.00    +0.045 A 
ENDBRANCH  16  17
ENDBRANCH  15  16
ENDBRANCH  13  15
ENDBRANCH   6  11
BRANCH   3  23
ATOM     23  C   LIG    1       25.811 -31.292  13.815  0.00  0.00    +0.327 C 
ATOM     24  O   LIG    1       26.601 -32.193  13.585  0.00  0.00    -0.249 OA
BRANCH  23  25
ATOM     25  OXT LIG    1       25.299 -31.107  15.061  0.00  0.00    -0.479 OA
ATOM     26  HXT LIG    1       26.021 -30.924  15.701  0.00  0.00    +0.295 HD
ENDBRANCH  23  25
ENDBRANCH   3  23
TORSDOF 6
ENDMDL
MODEL 6
REMARK VINA RESULT:      -5.5      4.027      6.172
REMARK  Name = *****
REMARK                            x       y       z     vdW  Elec       q    Type
REMARK                         _______ _______ _______ _____ _____    ______ ____
ROOT
ATOM      1  C   LIG    1       23.780 -30.102   9.137  0.00  0.00    +0.025 C 
ATOM      2  C   LIG    1       24.847 -31.128   9.568  0.00  0.00    +0.042 C 
ATOM      3  CA  LIG    1       26.182 -30.858   8.830  0.00  0.00    +0.201 C 
ATOM      4  N   LIG    1       26.988 -29.969   9.684  0.00  0.00    -0.271 N 
ATOM      5  C   LIG    1       26.815 -30.115  11.142  0.00  0.00    +0.165 C 
ATOM      6  CA  LIG    1       26.904 -28.575  11.257  0.00  0.00    +0.190 C 
ATOM      7  C   LIG    1       26.762 -28.616   9.711  0.00  0.00    +0.240 C 
ATOM      8  O   LIG    1       26.442 -27.871   8.811  0.00  0.00    -0.273 OA
ATOM      9  S   LIG    1       25.166 -30.872  11.378  0.00  0.00    -0.127 S 
ATOM     10  C   LIG    1       24.248 -32.528   9.395  0.00  0.00    +0.025 C 
ENDROOT
BRANCH   6  11
ATOM     11  N   LIG    1       25.833 -27.886  12.020  0.00  0.00    -0.299 N 
ATOM     12  H   LIG    1       24.849 -28.006  11.780  0.00  0.00    +0.150 HD
ATOM     13  C   LIG    1       26.119 -27.072  13.093  0.00  0.00    +0.251 C 
ATOM     14  O   LIG    1       27.269 -26.891  13.492  0.00  0.00    -0.272 OA
BRANCH  13  15
ATOM     15  C   LIG    1       24.929 -26.355  13.723  0.00  0.00    +0.324 C 
BRANCH  15  16
ATOM     16  O   LIG    1       24.068 -27.233  14.442  0.00  0.00    -0.483 OA
BRANCH  16  17
ATOM     17  C   LIG    1       22.727 -27.006  14.269  0.00  0.00    +0.121 A 
ATOM     18  C   LIG    1       22.036 -27.087  13.054  0.00  0.00    +0.045 A 
ATOM     19  C   LIG    1       20.655 -26.935  13.019  0.00  0.00    +0.004 A 
ATOM     20  C   LIG    1       19.949 -26.667  14.191  0.00  0.00    +0.000 A 
ATOM     21  C   LIG    1       20.633 -26.523  15.393  0.00  0.00    +0.004 A 
ATOM     22  C   LIG    1       22.023 -26.684  15.429  0.00  0.00    +0.045 A 
ENDBRANCH  16  17
ENDBRANCH  15  16
ENDBRANCH  13  15
ENDBRANCH   6  11
BRANCH   3  23
ATOM     23  C   LIG    1       27.057 -32.074   8.480  0.00  0.00    +0.327 C 
ATOM     24  O   LIG    1       27.453 -32.915   9.272  0.00  0.00    -0.249 OA
BRANCH  23  25
ATOM     25  OXT LIG    1       27.254 -32.220   7.143  0.00  0.00    -0.479 OA
ATOM     26  HXT LIG    1       26.987 -31.403   6.670  0.00  0.00    +0.295 HD
ENDBRANCH  23  25
ENDBRANCH   3  23
TORSDOF 6
ENDMDL
MODEL 7
REMARK VINA RESULT:      -5.4      3.870      5.367
REMARK  Name = *****
REMARK                            x       y       z     vdW  Elec       q    Type
REMARK                         _______ _______ _______ _____ _____    ______ ____
ROOT
ATOM      1  C   LIG    1       22.656 -30.605   9.839  0.00  0.00    +0.025 C 
ATOM      2  C   LIG    1       23.618 -31.783   9.592  0.00  0.00    +0.042 C 
ATOM      3  CA  LIG    1       24.114 -31.775   8.125  0.00  0.00    +0.201 C 
ATOM      4  N   LIG    1       25.371 -31.009   8.087  0.00  0.00    -0.271 N 
ATOM      5  C   LIG    1       26.222 -31.071   9.291  0.00  0.00    +0.165 C 
ATOM      6  CA  LIG    1       26.523 -29.567   9.096  0.00  0.00    +0.190 C 
ATOM      7  C   LIG    1       25.366 -29.637   8.063  0.00  0.00    +0.240 C 
ATOM      8  O   LIG    1       24.598 -28.881   7.510  0.00  0.00    -0.273 OA
ATOM      9  S   LIG    1       25.106 -31.523  10.669  0.00  0.00    -0.127 S 
ATOM     10  C   LIG    1       22.921 -33.064  10.065  0.00  0.00    +0.025 C 
ENDROOT
BRANCH   6  11
ATOM     11  N   LIG    1       26.335 -28.676  10.269  0.00  0.00    -0.299 N 
ATOM     12  H   LIG    1       25.470 -28.154  10.405  0.00  0.00    +0.150 HD
ATOM     13  C   LIG    1       27.311 -28.530  11.230  0.00  0.00    +0.251 C 
ATOM     14  O   LIG    1       28.375 -29.145  11.182  0.00  0.00    -0.272 OA
BRANCH  13  15
ATOM     15  C   LIG    1       27.020 -27.512  12.327  0.00  0.00    +0.324 C 
BRANCH  15  16
ATOM     16  O   LIG    1       26.176 -28.026  13.353  0.00  0.00    -0.483 OA
BRANCH  16  17
ATOM     17  C   LIG    1       24.852 -27.686  13.244  0.00  0.00    +0.121 A 
ATOM     18  C   LIG    1       23.822 -28.540  12.830  0.00  0.00    +0.045 A 
ATOM     19  C   LIG    1       22.501 -28.111  12.857  0.00  0.00    +0.004 A 
ATOM     20  C   LIG    1       22.192 -26.814  13.266  0.00  0.00    +0.000 A 
ATOM     21  C   LIG    1       23.213 -25.939  13.619  0.00  0.00    +0.004 A 
ATOM     22  C   LIG    1       24.543 -26.374  13.600  0.00  0.00    +0.045 A 
ENDBRANCH  16  17
ENDBRANCH  15  16
ENDBRANCH  13  15
ENDBRANCH   6  11
BRANCH   3  23
ATOM     23  C   LIG    1       24.387 -33.136   7.460  0.00  0.00    +0.327 C 
ATOM     24  O   LIG    1       25.379 -33.825   7.635  0.00  0.00    -0.249 OA
BRANCH  23  25
ATOM     25  OXT LIG    1       23.331 -33.594   6.737  0.00  0.00    -0.479 OA
ATOM     26  HXT LIG    1       23.058 -32.924   6.074  0.00  0.00    +0.295 HD
ENDBRANCH  23  25
ENDBRANCH   3  23
TORSDOF 6
ENDMDL
MODEL 8
REMARK VINA RESULT:      -5.4      3.547      6.132
REMARK  Name = *****
REMARK                            x       y       z     vdW  Elec       q    Type
REMARK                         _______ _______ _______ _____ _____    ______ ____
ROOT
ATOM      1  C   LIG    1       25.882 -28.881   8.316  0.00  0.00    +0.025 C 
ATOM      2  C   LIG    1       24.929 -29.864   7.608  0.00  0.00    +0.042 C 
ATOM      3  CA  LIG    1       25.677 -31.172   7.246  0.00  0.00    +0.201 C 
ATOM      4  N   LIG    1       25.490 -32.114   8.362  0.00  0.00    -0.271 N 
ATOM      5  C   LIG    1       24.217 -32.018   9.103  0.00  0.00    +0.165 C 
ATOM      6  CA  LIG    1       25.013 -32.266  10.405  0.00  0.00    +0.190 C 
ATOM      7  C   LIG    1       26.251 -32.026   9.500  0.00  0.00    +0.240 C 
ATOM      8  O   LIG    1       27.418 -31.727   9.622  0.00  0.00    -0.273 OA
ATOM      9  S   LIG    1       23.599 -30.319   8.819  0.00  0.00    -0.127 S 
ATOM     10  C   LIG    1       24.265 -29.119   6.446  0.00  0.00    +0.025 C 
ENDROOT
BRANCH   6  11
ATOM     11  N   LIG    1       24.797 -31.319  11.527  0.00  0.00    -0.299 N 
ATOM     12  H   LIG    1       24.223 -30.484  11.413  0.00  0.00    +0.150 HD
ATOM     13  C   LIG    1       25.345 -31.534  12.772  0.00  0.00    +0.251 C 
ATOM     14  O   LIG    1       26.020 -32.531  13.028  0.00  0.00    -0.272 OA
BRANCH  13  15
ATOM     15  C   LIG    1       25.119 -30.432  13.801  0.00  0.00    +0.324 C 
BRANCH  15  16
ATOM     16  O   LIG    1       25.409 -29.131  13.296  0.00  0.00    -0.483 OA
BRANCH  16  17
ATOM     17  C   LIG    1       24.338 -28.276  13.240  0.00  0.00    +0.121 A 
ATOM     18  C   LIG    1       23.032 -28.627  12.876  0.00  0.00    +0.045 A 
ATOM     19  C   LIG    1       22.006 -27.693  12.956  0.00  0.00    +0.004 A 
ATOM     20  C   LIG    1       22.275 -26.388  13.368  0.00  0.00    +0.000 A 
ATOM     21  C   LIG    1       23.579 -26.013  13.672  0.00  0.00    +0.004 A 
ATOM     22  C   LIG    1       24.612 -26.957  13.599  0.00  0.00    +0.045 A 
ENDBRANCH  16  17
ENDBRANCH  15  16
ENDBRANCH  13  15
ENDBRANCH   6  11
BRANCH   3  23
ATOM     23  C   LIG    1       25.252 -31.898   5.957  0.00  0.00    +0.327 C 
ATOM     24  O   LIG    1       24.177 -32.445   5.772  0.00  0.00    -0.249 OA
BRANCH  23  25
ATOM     25  OXT LIG    1       26.154 -31.763   4.949  0.00  0.00    -0.479 OA
ATOM     26  HXT LIG    1       25.694 -31.734   4.083  0.00  0.00    +0.295 HD
ENDBRANCH  23  25
ENDBRANCH   3  23
TORSDOF 6
ENDMDL
MODEL 9
REMARK VINA RESULT:      -5.4      8.128     11.793
REMARK  Name = *****
REMARK                            x       y       z     vdW  Elec       q    Type
REMARK                         _______ _______ _______ _____ _____    ______ ____
ROOT
ATOM      1  C   LIG    1       30.607 -18.866  11.633  0.00  0.00    +0.025 C 
ATOM      2  C   LIG    1       30.735 -17.637  10.712  0.00  0.00    +0.042 C 
ATOM      3  CA  LIG    1       32.085 -17.671   9.952  0.00  0.00    +0.201 C 
ATOM      4  N   LIG    1       31.854 -18.354   8.668  0.00  0.00    -0.271 N 
ATOM      5  C   LIG    1       30.519 -18.188   8.061  0.00  0.00    +0.165 C 
ATOM      6  CA  LIG    1       30.579 -19.676   7.643  0.00  0.00    +0.190 C 
ATOM      7  C   LIG    1       31.808 -19.723   8.591  0.00  0.00    +0.240 C 
ATOM      8  O   LIG    1       32.452 -20.549   9.198  0.00  0.00    -0.273 OA
ATOM      9  S   LIG    1       29.392 -17.757   9.436  0.00  0.00    -0.127 S 
ATOM     10  C   LIG    1       30.463 -16.388  11.556  0.00  0.00    +0.025 C 
ENDROOT
BRANCH   6  11
ATOM     11  N   LIG    1       29.416 -20.530   7.993  0.00  0.00    -0.299 N 
ATOM     12  H   LIG    1       29.303 -20.913   8.932  0.00  0.00    +0.150 HD
ATOM     13  C   LIG    1       28.434 -20.827   7.075  0.00  0.00    +0.251 C 
ATOM     14  O   LIG    1       28.453 -20.384   5.927  0.00  0.00    -0.272 OA
BRANCH  13  15
ATOM     15  C   LIG    1       27.350 -21.792   7.545  0.00  0.00    +0.324 C 
BRANCH  15  16
ATOM     16  O   LIG    1       26.032 -21.325   7.268  0.00  0.00    -0.483 OA
BRANCH  16  17
ATOM     17  C   LIG    1       25.088 -22.306   7.108  0.00  0.00    +0.121 A 
ATOM     18  C   LIG    1       23.701 -22.118   7.154  0.00  0.00    +0.045 A 
ATOM     19  C   LIG    1       22.840 -23.172   6.875  0.00  0.00    +0.004 A 
ATOM     20  C   LIG    1       23.350 -24.436   6.580  0.00  0.00    +0.000 A 
ATOM     21  C   LIG    1       24.724 -24.648   6.593  0.00  0.00    +0.004 A 
ATOM     22  C   LIG    1       25.592 -23.583   6.866  0.00  0.00    +0.045 A 
ENDBRANCH  16  17
ENDBRANCH  15  16
ENDBRANCH  13  15
ENDBRANCH   6  11
BRANCH   3  23
ATOM     23  C   LIG    1       32.756 -16.322   9.640  0.00  0.00    +0.327 C 
ATOM     24  O   LIG    1       32.937 -15.861   8.524  0.00  0.00    -0.249 OA
BRANCH  23  25
ATOM     25  OXT LIG    1       33.025 -15.592  10.754  0.00  0.00    -0.479 OA
ATOM     26  HXT LIG    1       33.902 -15.839  11.118  0.00  0.00    +0.295 HD
ENDBRANCH  23  25
ENDBRANCH   3  23
TORSDOF 6
ENDMDL
