MODEL 1
REMARK VINA RESULT:       7.0      0.000      0.000
REMARK  Name = *****
REMARK                            x       y       z     vdW  Elec       q    Type
REMARK                         _______ _______ _______ _____ _____    ______ ____
ROOT
ATOM      1  C   LIG    1       22.954 -19.880   4.775  0.00  0.00    +0.151 C 
ATOM      2  C   LIG    1       22.844 -18.615   3.851  0.00  0.00    +0.021 C 
ATOM      3  C   LIG    1       24.337 -18.370   3.429  0.00  0.00    +0.025 C 
ATOM      4  C   LIG    1       25.167 -17.437   4.347  0.00  0.00    +0.001 C 
ATOM      5  C   LIG    1       24.407 -16.152   4.721  0.00  0.00    -0.000 C 
ATOM      6  C   LIG    1       23.111 -16.551   5.435  0.00  0.00    +0.005 C 
ATOM      7  C   LIG    1       24.216 -15.199   3.503  0.00  0.00    +0.019 C 
ATOM      8  C   LIG    1       25.543 -14.939   2.800  0.00  0.00    -0.063 C 
ATOM      9  C   LIG    1       25.932 -13.721   2.381  0.00  0.00    +0.045 C 
ATOM     10  C   LIG    1       25.028 -12.552   2.472  0.00  0.00    +0.156 C 
ATOM     11  O   LIG    1       25.428 -11.447   2.114  0.00  0.00    -0.293 OA
ATOM     12  C   LIG    1       23.603 -12.799   2.893  0.00  0.00    +0.079 C 
ATOM     13  C   LIG    1       26.418 -16.140   2.534  0.00  0.00    +0.031 C 
ATOM     14  C   LIG    1       23.544 -13.885   3.955  0.00  0.00    +0.016 C 
ATOM     15  C   LIG    1       26.535 -17.061   3.745  0.00  0.00    +0.009 C 
ATOM     16  C   LIG    1       24.908 -19.769   3.471  0.00  0.00    -0.023 C 
ATOM     17  C   LIG    1       22.191 -17.396   4.563  0.00  0.00    +0.012 C 
ATOM     18  C   LIG    1       24.151 -20.586   4.214  0.00  0.00    +0.017 C 
ENDROOT
BRANCH   1  20
ATOM     19  C   LIG    1       20.806 -21.468   4.803  0.00  0.00    +0.007 C 
ATOM     20  C   LIG    1       21.767 -20.746   4.797  0.00  0.00    -0.066 C 
ENDBRANCH   1  20
BRANCH   1  21
ATOM     21  O   LIG    1       23.278 -19.536   6.115  0.00  0.00    -0.372 OA
ATOM     22  H   LIG    1       23.132 -18.579   6.197  0.00  0.00    +0.212 HD
ENDBRANCH   1  21
BRANCH   2  23
ATOM     23  C   LIG    1       21.966 -18.857   2.556  0.00  0.00    +0.008 C 
ATOM     24  C   LIG    1       20.541 -18.315   2.507  0.00  0.00    +0.004 C 
ENDBRANCH   2  23
TORSDOF 3
ENDMDL
MODEL 2
REMARK VINA RESULT:       7.6      2.917      6.677
REMARK  Name = *****
REMARK                            x       y       z     vdW  Elec       q    Type
REMARK                         _______ _______ _______ _____ _____    ______ ____
ROOT
ATOM      1  C   LIG    1       25.858 -13.492   3.088  0.00  0.00    +0.151 C 
ATOM      2  C   LIG    1       25.688 -14.600   4.188  0.00  0.00    +0.021 C 
ATOM      3  C   LIG    1       27.169 -14.865   4.639  0.00  0.00    +0.025 C 
ATOM      4  C   LIG    1       27.936 -15.969   3.865  0.00  0.00    +0.001 C 
ATOM      5  C   LIG    1       27.101 -17.248   3.686  0.00  0.00    -0.000 C 
ATOM      6  C   LIG    1       25.822 -16.885   2.923  0.00  0.00    +0.005 C 
ATOM      7  C   LIG    1       26.869 -18.001   5.030  0.00  0.00    +0.019 C 
ATOM      8  C   LIG    1       28.187 -18.230   5.761  0.00  0.00    -0.063 C 
ATOM      9  C   LIG    1       28.511 -19.394   6.353  0.00  0.00    +0.045 C 
ATOM     10  C   LIG    1       27.542 -20.511   6.437  0.00  0.00    +0.156 C 
ATOM     11  O   LIG    1       27.883 -21.572   6.952  0.00  0.00    -0.293 OA
ATOM     12  C   LIG    1       26.129 -20.247   5.987  0.00  0.00    +0.079 C 
ATOM     13  C   LIG    1       29.130 -17.055   5.846  0.00  0.00    +0.031 C 
ATOM     14  C   LIG    1       26.120 -19.326   4.777  0.00  0.00    +0.016 C 
ATOM     15  C   LIG    1       29.286 -16.330   4.513  0.00  0.00    +0.009 C 
ATOM     16  C   LIG    1       27.817 -13.522   4.391  0.00  0.00    -0.023 C 
ATOM     17  C   LIG    1       24.960 -15.871   3.664  0.00  0.00    +0.012 C 
ATOM     18  C   LIG    1       27.100 -12.781   3.537  0.00  0.00    +0.017 C 
ENDROOT
BRANCH   1  20
ATOM     19  C   LIG    1       23.801 -11.808   2.838  0.00  0.00    +0.007 C 
ATOM     20  C   LIG    1       24.722 -12.572   2.942  0.00  0.00    -0.066 C 
ENDBRANCH   1  20
BRANCH   1  21
ATOM     21  O   LIG    1       26.149 -14.047   1.813  0.00  0.00    -0.372 OA
ATOM     22  H   LIG    1       26.966 -13.620   1.506  0.00  0.00    +0.212 HD
ENDBRANCH   1  21
BRANCH   2  23
ATOM     23  C   LIG    1       24.838 -14.121   5.435  0.00  0.00    +0.008 C 
ATOM     24  C   LIG    1       23.359 -14.487   5.517  0.00  0.00    +0.004 C 
ENDBRANCH   2  23
TORSDOF 3
ENDMDL
MODEL 3
REMARK VINA RESULT:       8.2      1.957      3.417
REMARK  Name = *****
REMARK                            x       y       z     vdW  Elec       q    Type
REMARK                         _______ _______ _______ _____ _____    ______ ____
ROOT
ATOM      1  C   LIG    1       22.375 -19.047   3.966  0.00  0.00    +0.151 C 
ATOM      2  C   LIG    1       23.547 -18.318   4.717  0.00  0.00    +0.021 C 
ATOM      3  C   LIG    1       23.089 -16.817   4.691  0.00  0.00    +0.025 C 
ATOM      4  C   LIG    1       23.552 -15.977   3.473  0.00  0.00    +0.001 C 
ATOM      5  C   LIG    1       25.043 -16.177   3.154  0.00  0.00    -0.000 C 
ATOM      6  C   LIG    1       25.277 -17.665   2.868  0.00  0.00    +0.005 C 
ATOM      7  C   LIG    1       25.972 -15.567   4.247  0.00  0.00    +0.019 C 
ATOM      8  C   LIG    1       25.600 -14.117   4.532  0.00  0.00    -0.063 C 
ATOM      9  C   LIG    1       26.508 -13.134   4.672  0.00  0.00    +0.045 C 
ATOM     10  C   LIG    1       27.960 -13.424   4.677  0.00  0.00    +0.156 C 
ATOM     11  O   LIG    1       28.762 -12.499   4.771  0.00  0.00    -0.293 OA
ATOM     12  C   LIG    1       28.386 -14.869   4.685  0.00  0.00    +0.079 C 
ATOM     13  C   LIG    1       24.131 -13.814   4.706  0.00  0.00    +0.031 C 
ATOM     14  C   LIG    1       27.451 -15.703   3.825  0.00  0.00    +0.016 C 
ATOM     15  C   LIG    1       23.265 -14.472   3.637  0.00  0.00    +0.009 C 
ATOM     16  C   LIG    1       21.582 -16.949   4.678  0.00  0.00    -0.023 C 
ATOM     17  C   LIG    1       24.934 -18.557   4.054  0.00  0.00    +0.012 C 
ATOM     18  C   LIG    1       21.201 -18.167   4.274  0.00  0.00    +0.017 C 
ENDROOT
BRANCH   1  20
ATOM     19  C   LIG    1       21.928 -21.572   4.714  0.00  0.00    +0.007 C 
ATOM     20  C   LIG    1       22.139 -20.439   4.372  0.00  0.00    -0.066 C 
ENDBRANCH   1  20
BRANCH   1  21
ATOM     21  O   LIG    1       22.544 -19.017   2.556  0.00  0.00    -0.372 OA
ATOM     22  H   LIG    1       23.227 -19.675   2.346  0.00  0.00    +0.212 HD
ENDBRANCH   1  21
BRANCH   2  23
ATOM     23  C   LIG    1       23.720 -18.789   6.219  0.00  0.00    +0.008 C 
ATOM     24  C   LIG    1       24.485 -20.074   6.516  0.00  0.00    +0.004 C 
ENDBRANCH   2  23
TORSDOF 3
ENDMDL
MODEL 4
REMARK VINA RESULT:       9.5      1.842      6.527
REMARK  Name = *****
REMARK                            x       y       z     vdW  Elec       q    Type
REMARK                         _______ _______ _______ _____ _____    ______ ____
ROOT
ATOM      1  C   LIG    1       27.096 -14.110   3.147  0.00  0.00    +0.151 C 
ATOM      2  C   LIG    1       26.090 -14.868   4.086  0.00  0.00    +0.021 C 
ATOM      3  C   LIG    1       26.911 -16.137   4.513  0.00  0.00    +0.025 C 
ATOM      4  C   LIG    1       26.768 -17.387   3.607  0.00  0.00    +0.001 C 
ATOM      5  C   LIG    1       25.302 -17.686   3.246  0.00  0.00    -0.000 C 
ATOM      6  C   LIG    1       24.725 -16.463   2.525  0.00  0.00    +0.005 C 
ATOM      7  C   LIG    1       24.475 -18.171   4.474  0.00  0.00    +0.019 C 
ATOM      8  C   LIG    1       25.176 -19.325   5.183  0.00  0.00    -0.063 C 
ATOM      9  C   LIG    1       24.535 -20.425   5.615  0.00  0.00    +0.045 C 
ATOM     10  C   LIG    1       23.060 -20.538   5.536  0.00  0.00    +0.156 C 
ATOM     11  O   LIG    1       22.511 -21.571   5.908  0.00  0.00    -0.293 OA
ATOM     12  C   LIG    1       22.287 -19.318   5.110  0.00  0.00    +0.079 C 
ATOM     13  C   LIG    1       26.655 -19.168   5.436  0.00  0.00    +0.031 C 
ATOM     14  C   LIG    1       23.046 -18.556   4.036  0.00  0.00    +0.016 C 
ATOM     15  C   LIG    1       27.408 -18.649   4.216  0.00  0.00    +0.009 C 
ATOM     16  C   LIG    1       28.332 -15.625   4.456  0.00  0.00    -0.023 C 
ATOM     17  C   LIG    1       24.743 -15.206   3.386  0.00  0.00    +0.012 C 
ATOM     18  C   LIG    1       28.426 -14.522   3.702  0.00  0.00    +0.017 C 
ENDROOT
BRANCH   1  20
ATOM     19  C   LIG    1       26.799 -11.457   3.082  0.00  0.00    +0.007 C 
ATOM     20  C   LIG    1       26.944 -12.649   3.113  0.00  0.00    -0.066 C 
ENDBRANCH   1  20
BRANCH   1  21
ATOM     21  O   LIG    1       27.048 -14.594   1.812  0.00  0.00    -0.372 OA
ATOM     22  H   LIG    1       26.834 -15.540   1.869  0.00  0.00    +0.212 HD
ENDBRANCH   1  21
BRANCH   2  23
ATOM     23  C   LIG    1       25.691 -14.042   5.376  0.00  0.00    +0.008 C 
ATOM     24  C   LIG    1       24.376 -13.270   5.392  0.00  0.00    +0.004 C 
ENDBRANCH   2  23
TORSDOF 3
ENDMDL
