MODEL 1
REMARK VINA RESULT:      -0.4      0.000      0.000
REMARK  Name = *****
REMARK                            x       y       z     vdW  Elec       q    Type
REMARK                         _______ _______ _______ _____ _____    ______ ____
ROOT
ATOM      1  C   LIG    1       24.573 -31.506   9.372  0.00  0.00    +0.221 C 
ATOM      2  C   LIG    1       25.795 -30.457   9.132  0.00  0.00    +0.168 C 
ATOM      3  C   LIG    1       26.226 -29.005   9.539  0.00  0.00    +0.136 C 
ATOM      4  N   LIG    1       25.308 -28.111   8.889  0.00  0.00    -0.260 N 
ATOM      5  C   LIG    1       24.670 -28.903   7.896  0.00  0.00    +0.404 C 
ATOM      6  O   LIG    1       23.759 -28.610   7.236  0.00  0.00    -0.226 OA
ATOM      7  C   LIG    1       26.777 -28.772  10.960  0.00  0.00    +0.077 C 
ATOM      8  C   LIG    1       28.295 -29.189  11.097  0.00  0.00    +0.017 C 
ATOM      9  C   LIG    1       26.620 -27.309  11.343  0.00  0.00    +0.141 C 
ATOM     10  O   LIG    1       27.459 -26.507  10.902  0.00  0.00    -0.297 OA
ATOM     11  C   LIG    1       25.353 -26.801  12.125  0.00  0.00    +0.055 C 
ATOM     12  C   LIG    1       25.832 -25.493  12.805  0.00  0.00    +0.015 C 
ATOM     13  C   LIG    1       24.786 -27.766  13.243  0.00  0.00    +0.048 C 
ATOM     14  C   LIG    1       23.275 -28.309  13.265  0.00  0.00    +0.094 C 
ATOM     15  C   LIG    1       22.423 -27.217  13.983  0.00  0.00    +0.044 C 
ATOM     16  C   LIG    1       23.127 -29.719  14.207  0.00  0.00    +0.163 C 
ATOM     17  C   LIG    1       22.194 -30.959  13.885  0.00  0.00    +0.085 C 
ATOM     18  C   LIG    1       21.379 -31.401  15.127  0.00  0.00    +0.018 C 
ATOM     19  C   LIG    1       21.175 -31.219  12.733  0.00  0.00    +0.152 C 
ATOM     20  O   LIG    1       20.035 -30.751  12.907  0.00  0.00    -0.296 OA
ATOM     21  C   LIG    1       21.416 -32.137  11.481  0.00  0.00    +0.161 C 
ATOM     22  C   LIG    1       20.020 -32.496  10.908  0.00  0.00    +0.027 C 
ATOM     23  C   LIG    1       22.300 -31.765  10.233  0.00  0.00    +0.318 C 
ATOM     24  O   LIG    1       21.969 -32.170   9.118  0.00  0.00    -0.250 OA
ATOM     25  C   LIG    1       27.115 -31.205   9.259  0.00  0.00    +0.062 C 
ATOM     26  O   LIG    1       25.427 -30.080   7.780  0.00  0.00    -0.438 OA
ATOM     27  O   LIG    1       23.564 -31.214  10.437  0.00  0.00    -0.457 OA
ENDROOT
BRANCH   1  29
ATOM     28  C   LIG    1       25.756 -33.813   8.234  0.00  0.00    +0.007 C 
ATOM     29  C   LIG    1       24.969 -33.078   9.331  0.00  0.00    +0.045 C 
ENDBRANCH   1  29
BRANCH  14  30
ATOM     30  O   LIG    1       22.884 -28.319  11.888  0.00  0.00    -0.374 OA
ATOM     31  C   LIG    1       21.511 -28.459  11.619  0.00  0.00    +0.195 C 
ENDBRANCH  14  30
BRANCH   4  32
ATOM     32  C   LIG    1       25.670 -26.731   8.395  0.00  0.00    +0.112 C 
BRANCH  32  33
ATOM     33  C   LIG    1       26.006 -26.611   6.853  0.00  0.00    +0.021 C 
BRANCH  33  34
ATOM     34  C   LIG    1       25.579 -25.286   6.160  0.00  0.00    +0.023 C 
BRANCH  34  35
ATOM     35  C   LIG    1       25.059 -24.087   7.045  0.00  0.00    +0.123 C 
BRANCH  35  36
ATOM     36  N   LIG    1       25.810 -22.850   7.293  0.00  0.00    -0.336 N 
ATOM     37  C   LIG    1       27.000 -22.427   6.714  0.00  0.00    +0.115 A 
ATOM     38  C   LIG    1       27.481 -21.386   7.506  0.00  0.00    +0.090 A 
ATOM     39  N   LIG    1       26.608 -21.174   8.546  0.00  0.00    -0.236 NA
ATOM     40  C   LIG    1       25.729 -22.146   8.478  0.00  0.00    +0.200 A 
BRANCH  38  41
ATOM     41  C   LIG    1       28.757 -20.655   7.465  0.00  0.00    +0.020 A 
ATOM     42  C   LIG    1       29.832 -21.105   8.247  0.00  0.00    +0.120 A 
ATOM     43  N   LIG    1       31.049 -20.496   8.363  0.00  0.00    -0.263 NA
ATOM     44  C   LIG    1       31.203 -19.337   7.701  0.00  0.00    +0.111 A 
ATOM     45  C   LIG    1       30.217 -18.798   6.889  0.00  0.00    +0.020 A 
ATOM     46  C   LIG    1       28.992 -19.479   6.750  0.00  0.00    +0.013 A 
ENDBRANCH  38  41
ENDBRANCH  35  36
ENDBRANCH  34  35
ENDBRANCH  33  34
ENDBRANCH  32  33
ENDBRANCH   4  32
BRANCH  16  47
ATOM     47  O   LIG    1       24.484 -30.268  14.491  0.00  0.00    -0.342 OA
BRANCH  47  48
ATOM     48  C   LIG    1       25.258 -30.948  13.450  0.00  0.00    +0.281 C 
ATOM     49  C   LIG    1       26.710 -30.417  13.156  0.00  0.00    +0.187 C 
ATOM     50  C   LIG    1       27.644 -30.525  14.387  0.00  0.00    +0.092 C 
ATOM     51  C   LIG    1       27.038 -31.499  15.393  0.00  0.00    +0.053 C 
ATOM     52  C   LIG    1       26.589 -32.679  14.569  0.00  0.00    +0.120 C 
ATOM     53  C   LIG    1       26.292 -33.825  15.496  0.00  0.00    +0.038 C 
ATOM     54  O   LIG    1       25.395 -32.356  13.827  0.00  0.00    -0.346 OA
BRANCH  50  55
ATOM     55  N   LIG    1       28.124 -29.310  15.028  0.00  0.00    -0.303 NA
ATOM     56  C   LIG    1       27.208 -28.224  15.014  0.00  0.00    +0.105 C 
ATOM     57  C   LIG    1       29.495 -28.895  14.784  0.00  0.00    +0.105 C 
ENDBRANCH  50  55
BRANCH  49  58
ATOM     58  O   LIG    1       27.261 -31.142  12.037  0.00  0.00    -0.385 OA
ATOM     59  H   LIG    1       28.210 -30.937  11.980  0.00  0.00    +0.210 HD
ENDBRANCH  49  58
ENDBRANCH  47  48
ENDBRANCH  16  47
TORSDOF 12
ENDMDL
MODEL 2
REMARK VINA RESULT:      -0.3      1.728      2.324
REMARK  Name = *****
REMARK                            x       y       z     vdW  Elec       q    Type
REMARK                         _______ _______ _______ _____ _____    ______ ____
ROOT
ATOM      1  C   LIG    1       24.491 -32.009   7.071  0.00  0.00    +0.221 C 
ATOM      2  C   LIG    1       25.633 -30.854   7.177  0.00  0.00    +0.168 C 
ATOM      3  C   LIG    1       25.957 -29.560   8.002  0.00  0.00    +0.136 C 
ATOM      4  N   LIG    1       24.977 -28.580   7.623  0.00  0.00    -0.260 N 
ATOM      5  C   LIG    1       24.399 -29.087   6.427  0.00  0.00    +0.404 C 
ATOM      6  O   LIG    1       23.470 -28.676   5.862  0.00  0.00    -0.226 OA
ATOM      7  C   LIG    1       26.488 -29.719   9.441  0.00  0.00    +0.077 C 
ATOM      8  C   LIG    1       28.032 -30.050   9.483  0.00  0.00    +0.017 C 
ATOM      9  C   LIG    1       26.225 -28.447  10.233  0.00  0.00    +0.141 C 
ATOM     10  O   LIG    1       27.004 -27.495  10.065  0.00  0.00    -0.297 OA
ATOM     11  C   LIG    1       24.923 -28.282  11.101  0.00  0.00    +0.055 C 
ATOM     12  C   LIG    1       25.306 -27.202  12.145  0.00  0.00    +0.015 C 
ATOM     13  C   LIG    1       24.427 -29.569  11.873  0.00  0.00    +0.048 C 
ATOM     14  C   LIG    1       22.959 -30.198  11.701  0.00  0.00    +0.094 C 
ATOM     15  C   LIG    1       22.030 -29.428  12.689  0.00  0.00    +0.044 C 
ATOM     16  C   LIG    1       22.914 -31.830  12.184  0.00  0.00    +0.163 C 
ATOM     17  C   LIG    1       22.074 -32.981  11.491  0.00  0.00    +0.085 C 
ATOM     18  C   LIG    1       21.293 -33.825  12.530  0.00  0.00    +0.018 C 
ATOM     19  C   LIG    1       21.077 -32.960  10.292  0.00  0.00    +0.152 C 
ATOM     20  O   LIG    1       19.907 -32.644  10.570  0.00  0.00    -0.296 OA
ATOM     21  C   LIG    1       21.386 -33.450   8.830  0.00  0.00    +0.161 C 
ATOM     22  C   LIG    1       20.021 -33.720   8.147  0.00  0.00    +0.027 C 
ATOM     23  C   LIG    1       22.241 -32.667   7.767  0.00  0.00    +0.318 C 
ATOM     24  O   LIG    1       21.942 -32.748   6.575  0.00  0.00    -0.250 OA
ATOM     25  C   LIG    1       27.004 -31.512   7.108  0.00  0.00    +0.062 C 
ATOM     26  O   LIG    1       25.240 -30.122   5.987  0.00  0.00    -0.438 OA
ATOM     27  O   LIG    1       23.462 -32.114   8.152  0.00  0.00    -0.457 OA
ENDROOT
BRANCH   1  29
ATOM     28  C   LIG    1       25.727 -33.808   5.268  0.00  0.00    +0.007 C 
ATOM     29  C   LIG    1       25.000 -33.468   6.579  0.00  0.00    +0.045 C 
ENDBRANCH   1  29
BRANCH  14  30
ATOM     30  O   LIG    1       22.572 -29.829  10.373  0.00  0.00    -0.374 OA
ATOM     31  C   LIG    1       21.214 -29.525  10.171  0.00  0.00    +0.195 C 
ENDBRANCH  14  30
BRANCH   4  32
ATOM     32  C   LIG    1       25.238 -27.094   7.564  0.00  0.00    +0.112 C 
BRANCH  32  33
ATOM     33  C   LIG    1       24.430 -26.289   6.466  0.00  0.00    +0.021 C 
BRANCH  33  34
ATOM     34  C   LIG    1       25.113 -25.004   5.919  0.00  0.00    +0.023 C 
BRANCH  34  35
ATOM     35  C   LIG    1       25.125 -23.699   6.807  0.00  0.00    +0.123 C 
BRANCH  35  36
ATOM     36  N   LIG    1       26.082 -22.597   6.653  0.00  0.00    -0.336 N 
ATOM     37  C   LIG    1       27.361 -22.479   7.182  0.00  0.00    +0.115 A 
ATOM     38  C   LIG    1       27.727 -21.141   7.047  0.00  0.00    +0.090 A 
ATOM     39  N   LIG    1       26.698 -20.454   6.448  0.00  0.00    -0.236 NA
ATOM     40  C   LIG    1       25.699 -21.301   6.374  0.00  0.00    +0.200 A 
BRANCH  38  41
ATOM     41  C   LIG    1       28.898 -20.407   7.551  0.00  0.00    +0.020 A 
ATOM     42  C   LIG    1       29.737 -21.017   8.496  0.00  0.00    +0.120 A 
ATOM     43  N   LIG    1       30.817 -20.440   9.101  0.00  0.00    -0.263 NA
ATOM     44  C   LIG    1       31.060 -19.155   8.790  0.00  0.00    +0.111 A 
ATOM     45  C   LIG    1       30.306 -18.451   7.864  0.00  0.00    +0.020 A 
ATOM     46  C   LIG    1       29.231 -19.093   7.219  0.00  0.00    +0.013 A 
ENDBRANCH  38  41
ENDBRANCH  35  36
ENDBRANCH  34  35
ENDBRANCH  33  34
ENDBRANCH  32  33
ENDBRANCH   4  32
BRANCH  16  47
ATOM     47  O   LIG    1       24.307 -32.342  12.325  0.00  0.00    -0.342 OA
BRANCH  47  48
ATOM     48  C   LIG    1       24.688 -33.196  13.454  0.00  0.00    +0.281 C 
ATOM     49  C   LIG    1       25.726 -32.619  14.486  0.00  0.00    +0.187 C 
ATOM     50  C   LIG    1       25.215 -31.340  15.195  0.00  0.00    +0.092 C 
ATOM     51  C   LIG    1       23.702 -31.243  15.023  0.00  0.00    +0.053 C 
ATOM     52  C   LIG    1       23.187 -32.630  15.311  0.00  0.00    +0.120 C 
ATOM     53  C   LIG    1       21.697 -32.558  15.500  0.00  0.00    +0.038 C 
ATOM     54  O   LIG    1       23.478 -33.518  14.213  0.00  0.00    -0.346 OA
BRANCH  50  55
ATOM     55  N   LIG    1       25.874 -30.069  14.938  0.00  0.00    -0.303 NA
ATOM     56  C   LIG    1       25.021 -28.934  14.977  0.00  0.00    +0.105 C 
ATOM     57  C   LIG    1       26.853 -30.003  13.866  0.00  0.00    +0.105 C 
ENDBRANCH  50  55
BRANCH  49  58
ATOM     58  O   LIG    1       26.048 -33.640  15.453  0.00  0.00    -0.385 OA
ATOM     59  H   LIG    1       25.314 -33.700  16.087  0.00  0.00    +0.210 HD
ENDBRANCH  49  58
ENDBRANCH  47  48
ENDBRANCH  16  47
TORSDOF 12
ENDMDL
MODEL 3
REMARK VINA RESULT:       0.4      1.975      2.604
REMARK  Name = *****
REMARK                            x       y       z     vdW  Elec       q    Type
REMARK                         _______ _______ _______ _____ _____    ______ ____
ROOT
ATOM      1  C   LIG    1       24.766 -31.551   9.366  0.00  0.00    +0.221 C 
ATOM      2  C   LIG    1       25.995 -30.506   9.144  0.00  0.00    +0.168 C 
ATOM      3  C   LIG    1       26.408 -29.043   9.529  0.00  0.00    +0.136 C 
ATOM      4  N   LIG    1       25.514 -28.169   8.821  0.00  0.00    -0.260 N 
ATOM      5  C   LIG    1       24.915 -28.988   7.826  0.00  0.00    +0.404 C 
ATOM      6  O   LIG    1       24.030 -28.715   7.125  0.00  0.00    -0.226 OA
ATOM      7  C   LIG    1       26.904 -28.772  10.964  0.00  0.00    +0.077 C 
ATOM      8  C   LIG    1       28.417 -29.181  11.168  0.00  0.00    +0.017 C 
ATOM      9  C   LIG    1       26.732 -27.299  11.301  0.00  0.00    +0.141 C 
ATOM     10  O   LIG    1       27.586 -26.508  10.871  0.00  0.00    -0.297 OA
ATOM     11  C   LIG    1       25.434 -26.774  12.021  0.00  0.00    +0.055 C 
ATOM     12  C   LIG    1       25.886 -25.448  12.684  0.00  0.00    +0.015 C 
ATOM     13  C   LIG    1       24.827 -27.710  13.141  0.00  0.00    +0.048 C 
ATOM     14  C   LIG    1       23.317 -28.256  13.121  0.00  0.00    +0.094 C 
ATOM     15  C   LIG    1       22.437 -27.148  13.777  0.00  0.00    +0.044 C 
ATOM     16  C   LIG    1       23.136 -29.641  14.094  0.00  0.00    +0.163 C 
ATOM     17  C   LIG    1       22.217 -30.892  13.769  0.00  0.00    +0.085 C 
ATOM     18  C   LIG    1       21.357 -31.303  14.991  0.00  0.00    +0.018 C 
ATOM     19  C   LIG    1       21.242 -31.184  12.587  0.00  0.00    +0.152 C 
ATOM     20  O   LIG    1       20.097 -30.714  12.705  0.00  0.00    -0.296 OA
ATOM     21  C   LIG    1       21.533 -32.134  11.369  0.00  0.00    +0.161 C 
ATOM     22  C   LIG    1       20.160 -32.511  10.754  0.00  0.00    +0.027 C 
ATOM     23  C   LIG    1       22.462 -31.793  10.147  0.00  0.00    +0.318 C 
ATOM     24  O   LIG    1       22.174 -32.228   9.030  0.00  0.00    -0.250 OA
ATOM     25  C   LIG    1       27.310 -31.247   9.341  0.00  0.00    +0.062 C 
ATOM     26  O   LIG    1       25.678 -30.166   7.770  0.00  0.00    -0.438 OA
ATOM     27  O   LIG    1       23.717 -31.234  10.384  0.00  0.00    -0.457 OA
ENDROOT
BRANCH   1  29
ATOM     28  C   LIG    1       26.223 -33.825   8.513  0.00  0.00    +0.007 C 
ATOM     29  C   LIG    1       25.166 -33.123   9.381  0.00  0.00    +0.045 C 
ENDBRANCH   1  29
BRANCH  14  30
ATOM     30  O   LIG    1       22.978 -28.303  11.730  0.00  0.00    -0.374 OA
ATOM     31  C   LIG    1       21.610 -28.356  11.413  0.00  0.00    +0.195 C 
ENDBRANCH  14  30
BRANCH   4  32
ATOM     32  C   LIG    1       25.893 -26.801   8.305  0.00  0.00    +0.112 C 
BRANCH  32  33
ATOM     33  C   LIG    1       26.297 -26.723   6.776  0.00  0.00    +0.021 C 
BRANCH  33  34
ATOM     34  C   LIG    1       26.078 -25.350   6.080  0.00  0.00    +0.023 C 
BRANCH  34  35
ATOM     35  C   LIG    1       26.112 -24.032   6.947  0.00  0.00    +0.123 C 
BRANCH  35  36
ATOM     36  N   LIG    1       25.176 -22.912   6.794  0.00  0.00    -0.336 N 
ATOM     37  C   LIG    1       24.732 -22.306   5.625  0.00  0.00    +0.115 A 
ATOM     38  C   LIG    1       24.143 -21.100   5.999  0.00  0.00    +0.090 A 
ATOM     39  N   LIG    1       24.221 -20.968   7.365  0.00  0.00    -0.236 NA
ATOM     40  C   LIG    1       24.966 -21.967   7.778  0.00  0.00    +0.200 A 
BRANCH  38  41
ATOM     41  C   LIG    1       23.631 -19.984   5.188  0.00  0.00    +0.020 A 
ATOM     42  C   LIG    1       24.485 -19.357   4.267  0.00  0.00    +0.120 A 
ATOM     43  N   LIG    1       24.174 -18.273   3.496  0.00  0.00    -0.263 NA
ATOM     44  C   LIG    1       22.955 -17.740   3.678  0.00  0.00    +0.111 A 
ATOM     45  C   LIG    1       22.022 -18.277   4.552  0.00  0.00    +0.020 A 
ATOM     46  C   LIG    1       22.356 -19.427   5.294  0.00  0.00    +0.013 A 
ENDBRANCH  38  41
ENDBRANCH  35  36
ENDBRANCH  34  35
ENDBRANCH  33  34
ENDBRANCH  32  33
ENDBRANCH   4  32
BRANCH  16  47
ATOM     47  O   LIG    1       24.481 -30.179  14.443  0.00  0.00    -0.342 OA
BRANCH  47  48
ATOM     48  C   LIG    1       25.302 -30.871  13.446  0.00  0.00    +0.281 C 
ATOM     49  C   LIG    1       26.791 -30.394  13.269  0.00  0.00    +0.187 C 
ATOM     50  C   LIG    1       27.629 -30.562  14.561  0.00  0.00    +0.092 C 
ATOM     51  C   LIG    1       26.913 -31.529  15.500  0.00  0.00    +0.053 C 
ATOM     52  C   LIG    1       26.480 -32.675  14.621  0.00  0.00    +0.120 C 
ATOM     53  C   LIG    1       26.072 -33.824  15.500  0.00  0.00    +0.038 C 
ATOM     54  O   LIG    1       25.357 -32.290  13.802  0.00  0.00    -0.346 OA
BRANCH  50  55
ATOM     55  N   LIG    1       28.107 -29.379  15.261  0.00  0.00    -0.303 NA
ATOM     56  C   LIG    1       27.235 -28.260  15.210  0.00  0.00    +0.105 C 
ATOM     57  C   LIG    1       29.507 -29.012  15.120  0.00  0.00    +0.105 C 
ENDBRANCH  50  55
BRANCH  49  58
ATOM     58  O   LIG    1       27.393 -31.120  12.177  0.00  0.00    -0.385 OA
ATOM     59  H   LIG    1       28.206 -30.655  11.915  0.00  0.00    +0.210 HD
ENDBRANCH  49  58
ENDBRANCH  47  48
ENDBRANCH  16  47
TORSDOF 12
ENDMDL
MODEL 4
REMARK VINA RESULT:       1.2      2.729      3.739
REMARK  Name = *****
REMARK                            x       y       z     vdW  Elec       q    Type
REMARK                         _______ _______ _______ _____ _____    ______ ____
ROOT
ATOM      1  C   LIG    1       24.298 -32.036   7.152  0.00  0.00    +0.221 C 
ATOM      2  C   LIG    1       25.467 -30.905   7.212  0.00  0.00    +0.168 C 
ATOM      3  C   LIG    1       25.854 -29.624   8.029  0.00  0.00    +0.136 C 
ATOM      4  N   LIG    1       24.878 -28.622   7.699  0.00  0.00    -0.260 N 
ATOM      5  C   LIG    1       24.238 -29.109   6.528  0.00  0.00    +0.404 C 
ATOM      6  O   LIG    1       23.293 -28.677   6.007  0.00  0.00    -0.226 OA
ATOM      7  C   LIG    1       26.445 -29.802   9.442  0.00  0.00    +0.077 C 
ATOM      8  C   LIG    1       27.983 -30.165   9.413  0.00  0.00    +0.017 C 
ATOM      9  C   LIG    1       26.244 -28.530  10.251  0.00  0.00    +0.141 C 
ATOM     10  O   LIG    1       27.035 -27.593  10.054  0.00  0.00    -0.297 OA
ATOM     11  C   LIG    1       24.986 -28.344  11.178  0.00  0.00    +0.055 C 
ATOM     12  C   LIG    1       25.437 -27.278  12.210  0.00  0.00    +0.015 C 
ATOM     13  C   LIG    1       24.499 -29.626  11.964  0.00  0.00    +0.048 C 
ATOM     14  C   LIG    1       23.012 -30.224  11.855  0.00  0.00    +0.094 C 
ATOM     15  C   LIG    1       22.143 -29.441  12.887  0.00  0.00    +0.044 C 
ATOM     16  C   LIG    1       22.955 -31.857  12.331  0.00  0.00    +0.163 C 
ATOM     17  C   LIG    1       22.062 -32.987  11.670  0.00  0.00    +0.085 C 
ATOM     18  C   LIG    1       21.310 -33.821  12.738  0.00  0.00    +0.018 C 
ATOM     19  C   LIG    1       21.013 -32.939  10.517  0.00  0.00    +0.152 C 
ATOM     20  O   LIG    1       19.863 -32.601  10.848  0.00  0.00    -0.296 OA
ATOM     21  C   LIG    1       21.246 -33.426   9.040  0.00  0.00    +0.161 C 
ATOM     22  C   LIG    1       19.846 -33.664   8.417  0.00  0.00    +0.027 C 
ATOM     23  C   LIG    1       22.069 -32.653   7.944  0.00  0.00    +0.318 C 
ATOM     24  O   LIG    1       21.715 -32.720   6.766  0.00  0.00    -0.250 OA
ATOM     25  C   LIG    1       26.820 -31.591   7.079  0.00  0.00    +0.062 C 
ATOM     26  O   LIG    1       25.037 -30.159   6.045  0.00  0.00    -0.438 OA
ATOM     27  O   LIG    1       23.317 -32.127   8.277  0.00  0.00    -0.457 OA
ENDROOT
BRANCH   1  29
ATOM     28  C   LIG    1       25.769 -33.822   5.519  0.00  0.00    +0.007 C 
ATOM     29  C   LIG    1       24.755 -33.502   6.629  0.00  0.00    +0.045 C 
ENDBRANCH   1  29
BRANCH  14  30
ATOM     30  O   LIG    1       22.573 -29.839  10.548  0.00  0.00    -0.374 OA
ATOM     31  C   LIG    1       21.209 -29.532  10.402  0.00  0.00    +0.195 C 
ENDBRANCH  14  30
BRANCH   4  32
ATOM     32  C   LIG    1       25.167 -27.141   7.636  0.00  0.00    +0.112 C 
BRANCH  32  33
ATOM     33  C   LIG    1       25.708 -26.596   6.252  0.00  0.00    +0.021 C 
BRANCH  33  34
ATOM     34  C   LIG    1       25.358 -25.120   5.914  0.00  0.00    +0.023 C 
BRANCH  34  35
ATOM     35  C   LIG    1       24.897 -24.152   7.072  0.00  0.00    +0.123 C 
BRANCH  35  36
ATOM     36  N   LIG    1       24.460 -22.765   6.871  0.00  0.00    -0.336 N 
ATOM     37  C   LIG    1       23.331 -22.298   6.209  0.00  0.00    +0.115 A 
ATOM     38  C   LIG    1       23.530 -20.937   5.991  0.00  0.00    +0.090 A 
ATOM     39  N   LIG    1       24.752 -20.574   6.507  0.00  0.00    -0.236 NA
ATOM     40  C   LIG    1       25.331 -21.694   6.872  0.00  0.00    +0.200 A 
BRANCH  38  41
ATOM     41  C   LIG    1       22.747 -19.959   5.220  0.00  0.00    +0.020 A 
ATOM     42  C   LIG    1       21.559 -20.371   4.595  0.00  0.00    +0.120 A 
ATOM     43  N   LIG    1       20.764 -19.599   3.796  0.00  0.00    -0.263 NA
ATOM     44  C   LIG    1       21.193 -18.349   3.556  0.00  0.00    +0.111 A 
ATOM     45  C   LIG    1       22.345 -17.827   4.124  0.00  0.00    +0.020 A 
ATOM     46  C   LIG    1       23.114 -18.633   4.986  0.00  0.00    +0.013 A 
ENDBRANCH  38  41
ENDBRANCH  35  36
ENDBRANCH  34  35
ENDBRANCH  33  34
ENDBRANCH  32  33
ENDBRANCH   4  32
BRANCH  16  47
ATOM     47  O   LIG    1       24.342 -32.399  12.407  0.00  0.00    -0.342 OA
BRANCH  47  48
ATOM     48  C   LIG    1       24.740 -33.308  13.484  0.00  0.00    +0.281 C 
ATOM     49  C   LIG    1       25.729 -32.756  14.577  0.00  0.00    +0.187 C 
ATOM     50  C   LIG    1       25.142 -31.554  15.358  0.00  0.00    +0.092 C 
ATOM     51  C   LIG    1       23.630 -31.515  15.157  0.00  0.00    +0.053 C 
ATOM     52  C   LIG    1       23.177 -32.941  15.340  0.00  0.00    +0.120 C 
ATOM     53  C   LIG    1       21.682 -32.952  15.498  0.00  0.00    +0.038 C 
ATOM     54  O   LIG    1       23.532 -33.738  14.191  0.00  0.00    -0.346 OA
BRANCH  50  55
ATOM     55  N   LIG    1       25.745 -30.239  15.203  0.00  0.00    -0.303 NA
ATOM     56  C   LIG    1       24.826 -29.185  14.951  0.00  0.00    +0.105 C 
ATOM     57  C   LIG    1       26.963 -30.125  14.418  0.00  0.00    +0.105 C 
ENDBRANCH  50  55
BRANCH  49  58
ATOM     58  O   LIG    1       26.080 -33.825  15.480  0.00  0.00    -0.385 OA
ATOM     59  H   LIG    1       25.678 -33.635  16.345  0.00  0.00    +0.210 HD
ENDBRANCH  49  58
ENDBRANCH  47  48
ENDBRANCH  16  47
TORSDOF 12
ENDMDL
