MODEL 1
REMARK VINA RESULT:      -6.5      0.000      0.000
REMARK  Name = *****
REMARK                            x       y       z     vdW  Elec       q    Type
REMARK                         _______ _______ _______ _____ _____    ______ ____
ROOT
ATOM      1  C   LIG    1       22.922 -22.004   6.511  0.00  0.00    +0.188 C 
ENDROOT
BRANCH   1   2
ATOM      2  C   LIG    1       22.812 -23.473   6.579  0.00  0.00    +0.188 C 
BRANCH   2   3
ATOM      3  O   LIG    1       24.063 -24.157   6.848  0.00  0.00    -0.375 OA
BRANCH   3   4
ATOM      4  C   LIG    1       25.082 -24.217   5.806  0.00  0.00    +0.188 C 
BRANCH   4   5
ATOM      5  C   LIG    1       25.149 -25.527   4.925  0.00  0.00    +0.188 C 
BRANCH   5   6
ATOM      6  O   LIG    1       26.028 -26.584   5.377  0.00  0.00    -0.375 OA
BRANCH   6   7
ATOM      7  C   LIG    1       25.481 -27.861   5.079  0.00  0.00    +0.188 C 
BRANCH   7   8
ATOM      8  C   LIG    1       24.762 -28.743   6.357  0.00  0.00    +0.188 C 
BRANCH   8   9
ATOM      9  O   LIG    1       23.695 -29.607   6.064  0.00  0.00    -0.375 OA
BRANCH   9  10
ATOM     10  C   LIG    1       24.058 -30.866   6.536  0.00  0.00    +0.188 C 
BRANCH  10  11
ATOM     11  C   LIG    1       24.945 -31.562   5.561  0.00  0.00    +0.188 C 
BRANCH  11  12
ATOM     12  O   LIG    1       25.423 -32.770   6.138  0.00  0.00    -0.375 OA
BRANCH  12  13
ATOM     13  C   LIG    1       26.856 -32.815   6.141  0.00  0.00    +0.188 C 
BRANCH  13  14
ATOM     14  C   LIG    1       27.390 -32.605   7.540  0.00  0.00    +0.188 C 
BRANCH  14  15
ATOM     15  O   LIG    1       26.416 -33.053   8.490  0.00  0.00    -0.375 OA
BRANCH  15  16
ATOM     16  C   LIG    1       26.151 -32.064   9.480  0.00  0.00    +0.188 C 
BRANCH  16  17
ATOM     17  C   LIG    1       26.901 -30.745   9.267  0.00  0.00    +0.188 C 
BRANCH  17  18
ATOM     18  O   LIG    1       27.746 -30.360  10.353  0.00  0.00    -0.375 OA
BRANCH  18  19
ATOM     19  C   LIG    1       27.489 -29.092  10.961  0.00  0.00    +0.188 C 
BRANCH  19  20
ATOM     20  C   LIG    1       26.710 -29.207  12.275  0.00  0.00    +0.187 C 
BRANCH  20  21
ATOM     21  O   LIG    1       25.867 -28.075  12.456  0.00  0.00    -0.381 OA
ATOM     22  C   LIG    1       24.517 -28.461  12.693  0.00  0.00    +0.194 C 
ENDBRANCH  20  21
ENDBRANCH  19  20
ENDBRANCH  18  19
ENDBRANCH  17  18
ENDBRANCH  16  17
ENDBRANCH  15  16
ENDBRANCH  14  15
ENDBRANCH  13  14
ENDBRANCH  12  13
ENDBRANCH  11  12
ENDBRANCH  10  11
ENDBRANCH   9  10
ENDBRANCH   8   9
ENDBRANCH   7   8
ENDBRANCH   6   7
ENDBRANCH   5   6
ENDBRANCH   4   5
ENDBRANCH   3   4
ENDBRANCH   2   3
ENDBRANCH   1   2
BRANCH   1  23
ATOM     23  O   LIG    1       22.306 -21.220   5.548  0.00  0.00    -0.375 OA
BRANCH  23  24
ATOM     24  C   LIG    1       22.600 -19.878   5.812  0.00  0.00    +0.188 C 
BRANCH  24  25
ATOM     25  C   LIG    1       22.486 -19.133   4.505  0.00  0.00    +0.188 C 
BRANCH  25  26
ATOM     26  O   LIG    1       23.692 -18.692   3.862  0.00  0.00    -0.374 OA
BRANCH  26  27
ATOM     27  C   LIG    1       24.514 -19.663   3.207  0.00  0.00    +0.201 C 
BRANCH  27  28
ATOM     28  C   LIG    1       25.331 -20.542   4.156  0.00  0.00    +0.260 C 
BRANCH  28  29
ATOM     29  O   LIG    1       26.375 -19.963   4.937  0.00  0.00    -0.459 OA
BRANCH  29  30
ATOM     30  C   LIG    1       26.664 -20.429   6.200  0.00  0.00    +0.339 C 
ATOM     31  O   LIG    1       25.949 -20.999   6.889  0.00  0.00    -0.245 OA
BRANCH  30  35
ATOM     32  C   LIG    1       30.774 -19.334   7.300  0.00  0.00    +0.027 A 
ATOM     33  C   LIG    1       30.104 -20.441   7.839  0.00  0.00    +0.024 A 
ATOM     34  C   LIG    1       28.822 -20.850   7.425  0.00  0.00    +0.017 A 
ATOM     35  C   LIG    1       28.151 -20.138   6.459  0.00  0.00    +0.059 A 
ATOM     36  C   LIG    1       28.893 -19.158   5.802  0.00  0.00    +0.017 A 
ATOM     37  C   LIG    1       30.149 -18.697   6.246  0.00  0.00    +0.024 A 
BRANCH  32  38
ATOM     38  N   LIG    1       31.929 -18.776   7.829  0.00  0.00    -0.344 N 
ATOM     39  H   LIG    1       32.787 -19.205   7.494  0.00  0.00    +0.146 HD
BRANCH  38  40
ATOM     40  C   LIG    1       31.954 -18.264   9.189  0.00  0.00    +0.101 C 
BRANCH  40  41
ATOM     41  C   LIG    1       30.805 -17.291   9.446  0.00  0.00    +0.018 C 
BRANCH  41  43
ATOM     42  C   LIG    1       31.525 -16.726  11.814  0.00  0.00    +0.004 C 
ATOM     43  C   LIG    1       30.404 -17.230  10.918  0.00  0.00    -0.002 C 
ENDBRANCH  41  43
ENDBRANCH  40  41
ENDBRANCH  38  40
ENDBRANCH  32  38
ENDBRANCH  30  35
ENDBRANCH  29  30
ENDBRANCH  28  29
ENDBRANCH  27  28
ENDBRANCH  26  27
ENDBRANCH  25  26
ENDBRANCH  24  25
ENDBRANCH  23  24
ENDBRANCH   1  23
TORSDOF 33
ENDMDL
MODEL 2
REMARK VINA RESULT:      -6.5      4.291      6.564
REMARK  Name = *****
REMARK                            x       y       z     vdW  Elec       q    Type
REMARK                         _______ _______ _______ _____ _____    ______ ____
ROOT
ATOM      1  C   LIG    1       25.920 -27.435   5.011  0.00  0.00    +0.188 C 
ENDROOT
BRANCH   1   2
ATOM      2  C   LIG    1       24.525 -27.753   5.373  0.00  0.00    +0.188 C 
BRANCH   2   3
ATOM      3  O   LIG    1       24.260 -29.168   5.555  0.00  0.00    -0.375 OA
BRANCH   3   4
ATOM      4  C   LIG    1       25.054 -29.925   6.516  0.00  0.00    +0.188 C 
BRANCH   4   5
ATOM      5  C   LIG    1       24.653 -29.816   8.040  0.00  0.00    +0.188 C 
BRANCH   5   6
ATOM      6  O   LIG    1       23.295 -30.173   8.394  0.00  0.00    -0.375 OA
BRANCH   6   7
ATOM      7  C   LIG    1       23.200 -30.498   9.773  0.00  0.00    +0.188 C 
BRANCH   7   8
ATOM      8  C   LIG    1       21.824 -31.369  10.299  0.00  0.00    +0.188 C 
BRANCH   8   9
ATOM      9  O   LIG    1       20.570 -30.736  10.265  0.00  0.00    -0.375 OA
BRANCH   9  10
ATOM     10  C   LIG    1       19.611 -31.746  10.302  0.00  0.00    +0.188 C 
BRANCH  10  11
ATOM     11  C   LIG    1       18.246 -31.187  10.094  0.00  0.00    +0.188 C 
BRANCH  11  12
ATOM     12  O   LIG    1       17.381 -31.664  11.116  0.00  0.00    -0.375 OA
BRANCH  12  13
ATOM     13  C   LIG    1       17.655 -31.027  12.371  0.00  0.00    +0.188 C 
BRANCH  13  14
ATOM     14  C   LIG    1       16.367 -30.663  13.074  0.00  0.00    +0.188 C 
BRANCH  14  15
ATOM     15  O   LIG    1       16.671 -29.942  14.274  0.00  0.00    -0.375 OA
BRANCH  15  16
ATOM     16  C   LIG    1       16.183 -28.605  14.224  0.00  0.00    +0.188 C 
BRANCH  16  17
ATOM     17  C   LIG    1       17.104 -27.575  14.886  0.00  0.00    +0.188 C 
BRANCH  17  18
ATOM     18  O   LIG    1       17.914 -26.829  13.977  0.00  0.00    -0.375 OA
BRANCH  18  19
ATOM     19  C   LIG    1       19.243 -26.513  14.398  0.00  0.00    +0.188 C 
BRANCH  19  20
ATOM     20  C   LIG    1       20.290 -26.757  13.307  0.00  0.00    +0.187 C 
BRANCH  20  21
ATOM     21  O   LIG    1       20.508 -28.152  13.129  0.00  0.00    -0.381 OA
ATOM     22  C   LIG    1       21.850 -28.426  12.736  0.00  0.00    +0.194 C 
ENDBRANCH  20  21
ENDBRANCH  19  20
ENDBRANCH  18  19
ENDBRANCH  17  18
ENDBRANCH  16  17
ENDBRANCH  15  16
ENDBRANCH  14  15
ENDBRANCH  13  14
ENDBRANCH  12  13
ENDBRANCH  11  12
ENDBRANCH  10  11
ENDBRANCH   9  10
ENDBRANCH   8   9
ENDBRANCH   7   8
ENDBRANCH   6   7
ENDBRANCH   5   6
ENDBRANCH   4   5
ENDBRANCH   3   4
ENDBRANCH   2   3
ENDBRANCH   1   2
BRANCH   1  23
ATOM     23  O   LIG    1       26.715 -26.531   5.698  0.00  0.00    -0.375 OA
BRANCH  23  24
ATOM     24  C   LIG    1       25.967 -25.991   6.749  0.00  0.00    +0.188 C 
BRANCH  24  25
ATOM     25  C   LIG    1       25.886 -24.502   6.518  0.00  0.00    +0.188 C 
BRANCH  25  26
ATOM     26  O   LIG    1       24.687 -23.964   5.940  0.00  0.00    -0.374 OA
BRANCH  26  27
ATOM     27  C   LIG    1       23.433 -24.264   6.561  0.00  0.00    +0.201 C 
BRANCH  27  28
ATOM     28  C   LIG    1       22.576 -23.036   6.877  0.00  0.00    +0.260 C 
BRANCH  28  29
ATOM     29  O   LIG    1       23.180 -21.877   7.449  0.00  0.00    -0.459 OA
BRANCH  29  30
ATOM     30  C   LIG    1       23.569 -20.814   6.665  0.00  0.00    +0.339 C 
ATOM     31  O   LIG    1       22.873 -20.084   6.124  0.00  0.00    -0.245 OA
BRANCH  30  35
ATOM     32  C   LIG    1       27.893 -20.137   7.051  0.00  0.00    +0.027 A 
ATOM     33  C   LIG    1       27.093 -20.613   8.099  0.00  0.00    +0.024 A 
ATOM     34  C   LIG    1       25.726 -20.918   7.958  0.00  0.00    +0.017 A 
ATOM     35  C   LIG    1       25.102 -20.731   6.747  0.00  0.00    +0.059 A 
ATOM     36  C   LIG    1       25.938 -20.436   5.672  0.00  0.00    +0.017 A 
ATOM     37  C   LIG    1       27.291 -20.068   5.809  0.00  0.00    +0.024 A 
BRANCH  32  38
ATOM     38  N   LIG    1       29.172 -19.623   7.205  0.00  0.00    -0.344 N 
ATOM     39  H   LIG    1       29.570 -19.241   6.351  0.00  0.00    +0.146 HD
BRANCH  38  40
ATOM     40  C   LIG    1       30.109 -20.222   8.141  0.00  0.00    +0.101 C 
BRANCH  40  41
ATOM     41  C   LIG    1       30.864 -19.160   8.938  0.00  0.00    +0.018 C 
BRANCH  41  43
ATOM     42  C   LIG    1       30.832 -16.792   9.852  0.00  0.00    +0.004 C 
ATOM     43  C   LIG    1       30.103 -17.839   9.026  0.00  0.00    -0.002 C 
ENDBRANCH  41  43
ENDBRANCH  40  41
ENDBRANCH  38  40
ENDBRANCH  32  38
ENDBRANCH  30  35
ENDBRANCH  29  30
ENDBRANCH  28  29
ENDBRANCH  27  28
ENDBRANCH  26  27
ENDBRANCH  25  26
ENDBRANCH  24  25
ENDBRANCH  23  24
ENDBRANCH   1  23
TORSDOF 33
ENDMDL
MODEL 3
REMARK VINA RESULT:      -6.4      2.265      2.959
REMARK  Name = *****
REMARK                            x       y       z     vdW  Elec       q    Type
REMARK                         _______ _______ _______ _____ _____    ______ ____
ROOT
ATOM      1  C   LIG    1       22.954 -22.892   6.878  0.00  0.00    +0.188 C 
ENDROOT
BRANCH   1   2
ATOM      2  C   LIG    1       23.536 -24.214   6.580  0.00  0.00    +0.188 C 
BRANCH   2   3
ATOM      3  O   LIG    1       24.498 -24.216   5.494  0.00  0.00    -0.375 OA
BRANCH   3   4
ATOM      4  C   LIG    1       25.193 -25.454   5.158  0.00  0.00    +0.188 C 
BRANCH   4   5
ATOM      5  C   LIG    1       26.137 -26.083   6.258  0.00  0.00    +0.188 C 
BRANCH   5   6
ATOM      6  O   LIG    1       25.690 -27.305   6.892  0.00  0.00    -0.375 OA
BRANCH   6   7
ATOM      7  C   LIG    1       24.536 -27.820   6.242  0.00  0.00    +0.188 C 
BRANCH   7   8
ATOM      8  C   LIG    1       24.449 -29.510   5.982  0.00  0.00    +0.188 C 
BRANCH   8   9
ATOM      9  O   LIG    1       25.429 -30.121   5.183  0.00  0.00    -0.375 OA
BRANCH   9  10
ATOM     10  C   LIG    1       25.626 -31.400   5.700  0.00  0.00    +0.188 C 
BRANCH  10  11
ATOM     11  C   LIG    1       25.408 -31.415   7.174  0.00  0.00    +0.188 C 
BRANCH  11  12
ATOM     12  O   LIG    1       26.641 -31.167   7.835  0.00  0.00    -0.375 OA
BRANCH  12  13
ATOM     13  C   LIG    1       26.471 -31.117   9.258  0.00  0.00    +0.188 C 
BRANCH  13  14
ATOM     14  C   LIG    1       26.316 -29.687   9.723  0.00  0.00    +0.188 C 
BRANCH  14  15
ATOM     15  O   LIG    1       25.288 -29.623  10.719  0.00  0.00    -0.375 OA
BRANCH  15  16
ATOM     16  C   LIG    1       24.300 -30.630  10.523  0.00  0.00    +0.188 C 
BRANCH  16  17
ATOM     17  C   LIG    1       22.864 -30.159  10.770  0.00  0.00    +0.188 C 
BRANCH  17  18
ATOM     18  O   LIG    1       21.887 -30.752   9.914  0.00  0.00    -0.375 OA
BRANCH  18  19
ATOM     19  C   LIG    1       21.266 -31.956  10.369  0.00  0.00    +0.188 C 
BRANCH  19  20
ATOM     20  C   LIG    1       19.797 -31.762  10.754  0.00  0.00    +0.187 C 
BRANCH  20  21
ATOM     21  O   LIG    1       19.190 -30.776   9.927  0.00  0.00    -0.381 OA
ATOM     22  C   LIG    1       17.887 -31.170   9.511  0.00  0.00    +0.194 C 
ENDBRANCH  20  21
ENDBRANCH  19  20
ENDBRANCH  18  19
ENDBRANCH  17  18
ENDBRANCH  16  17
ENDBRANCH  15  16
ENDBRANCH  14  15
ENDBRANCH  13  14
ENDBRANCH  12  13
ENDBRANCH  11  12
ENDBRANCH  10  11
ENDBRANCH   9  10
ENDBRANCH   8   9
ENDBRANCH   7   8
ENDBRANCH   6   7
ENDBRANCH   5   6
ENDBRANCH   4   5
ENDBRANCH   3   4
ENDBRANCH   2   3
ENDBRANCH   1   2
BRANCH   1  23
ATOM     23  O   LIG    1       22.538 -21.990   5.911  0.00  0.00    -0.375 OA
BRANCH  23  24
ATOM     24  C   LIG    1       22.982 -20.714   6.275  0.00  0.00    +0.188 C 
BRANCH  24  25
ATOM     25  C   LIG    1       22.504 -19.757   5.210  0.00  0.00    +0.188 C 
BRANCH  25  26
ATOM     26  O   LIG    1       23.435 -19.338   4.200  0.00  0.00    -0.374 OA
BRANCH  26  27
ATOM     27  C   LIG    1       24.357 -20.299   3.677  0.00  0.00    +0.201 C 
BRANCH  27  28
ATOM     28  C   LIG    1       25.825 -20.003   3.997  0.00  0.00    +0.260 C 
BRANCH  28  29
ATOM     29  O   LIG    1       26.219 -19.741   5.342  0.00  0.00    -0.459 OA
BRANCH  29  30
ATOM     30  C   LIG    1       26.734 -20.737   6.142  0.00  0.00    +0.339 C 
ATOM     31  O   LIG    1       26.193 -21.694   6.461  0.00  0.00    -0.245 OA
BRANCH  30  35
ATOM     32  C   LIG    1       30.768 -19.470   7.335  0.00  0.00    +0.027 A 
ATOM     33  C   LIG    1       30.170 -20.655   7.787  0.00  0.00    +0.024 A 
ATOM     34  C   LIG    1       28.916 -21.112   7.339  0.00  0.00    +0.017 A 
ATOM     35  C   LIG    1       28.200 -20.373   6.427  0.00  0.00    +0.059 A 
ATOM     36  C   LIG    1       28.878 -19.301   5.849  0.00  0.00    +0.017 A 
ATOM     37  C   LIG    1       30.102 -18.796   6.330  0.00  0.00    +0.024 A 
BRANCH  32  38
ATOM     38  N   LIG    1       31.886 -18.882   7.909  0.00  0.00    -0.344 N 
ATOM     39  H   LIG    1       32.764 -19.323   7.651  0.00  0.00    +0.146 HD
BRANCH  38  40
ATOM     40  C   LIG    1       31.823 -18.303   9.242  0.00  0.00    +0.101 C 
BRANCH  40  41
ATOM     41  C   LIG    1       30.459 -17.677   9.520  0.00  0.00    +0.018 C 
BRANCH  41  43
ATOM     42  C   LIG    1       31.747 -16.952  11.584  0.00  0.00    +0.004 C 
ATOM     43  C   LIG    1       30.415 -16.930  10.851  0.00  0.00    -0.002 C 
ENDBRANCH  41  43
ENDBRANCH  40  41
ENDBRANCH  38  40
ENDBRANCH  32  38
ENDBRANCH  30  35
ENDBRANCH  29  30
ENDBRANCH  28  29
ENDBRANCH  27  28
ENDBRANCH  26  27
ENDBRANCH  25  26
ENDBRANCH  24  25
ENDBRANCH  23  24
ENDBRANCH   1  23
TORSDOF 33
ENDMDL
MODEL 4
REMARK VINA RESULT:      -6.4      2.519      5.565
REMARK  Name = *****
REMARK                            x       y       z     vdW  Elec       q    Type
REMARK                         _______ _______ _______ _____ _____    ______ ____
ROOT
ATOM      1  C   LIG    1       25.956 -27.290   5.056  0.00  0.00    +0.188 C 
ENDROOT
BRANCH   1   2
ATOM      2  C   LIG    1       24.529 -27.550   5.328  0.00  0.00    +0.188 C 
BRANCH   2   3
ATOM      3  O   LIG    1       24.156 -28.952   5.289  0.00  0.00    -0.375 OA
BRANCH   3   4
ATOM      4  C   LIG    1       25.146 -29.963   5.644  0.00  0.00    +0.188 C 
BRANCH   4   5
ATOM      5  C   LIG    1       24.859 -30.849   6.920  0.00  0.00    +0.188 C 
BRANCH   5   6
ATOM      6  O   LIG    1       23.616 -30.612   7.624  0.00  0.00    -0.375 OA
BRANCH   6   7
ATOM      7  C   LIG    1       23.861 -30.113   8.931  0.00  0.00    +0.188 C 
BRANCH   7   8
ATOM      8  C   LIG    1       22.757 -30.533  10.169  0.00  0.00    +0.188 C 
BRANCH   8   9
ATOM      9  O   LIG    1       21.579 -31.215   9.822  0.00  0.00    -0.375 OA
BRANCH   9  10
ATOM     10  C   LIG    1       20.572 -30.720  10.646  0.00  0.00    +0.188 C 
BRANCH  10  11
ATOM     11  C   LIG    1       21.149 -29.974  11.800  0.00  0.00    +0.188 C 
BRANCH  11  12
ATOM     12  O   LIG    1       20.171 -29.864  12.826  0.00  0.00    -0.375 OA
BRANCH  12  13
ATOM     13  C   LIG    1       20.394 -28.703  13.638  0.00  0.00    +0.188 C 
BRANCH  13  14
ATOM     14  C   LIG    1       21.058 -27.611  12.830  0.00  0.00    +0.188 C 
BRANCH  14  15
ATOM     15  O   LIG    1       21.489 -26.567  13.712  0.00  0.00    -0.375 OA
BRANCH  15  16
ATOM     16  C   LIG    1       22.875 -26.282  13.553  0.00  0.00    +0.188 C 
BRANCH  16  17
ATOM     17  C   LIG    1       23.719 -26.549  14.804  0.00  0.00    +0.188 C 
BRANCH  17  18
ATOM     18  O   LIG    1       24.449 -27.777  14.778  0.00  0.00    -0.375 OA
BRANCH  18  19
ATOM     19  C   LIG    1       24.718 -28.348  13.496  0.00  0.00    +0.188 C 
BRANCH  19  20
ATOM     20  C   LIG    1       24.478 -29.860  13.453  0.00  0.00    +0.187 C 
BRANCH  20  21
ATOM     21  O   LIG    1       25.645 -30.538  13.002  0.00  0.00    -0.381 OA
ATOM     22  C   LIG    1       25.337 -31.835  12.501  0.00  0.00    +0.194 C 
ENDBRANCH  20  21
ENDBRANCH  19  20
ENDBRANCH  18  19
ENDBRANCH  17  18
ENDBRANCH  16  17
ENDBRANCH  15  16
ENDBRANCH  14  15
ENDBRANCH  13  14
ENDBRANCH  12  13
ENDBRANCH  11  12
ENDBRANCH  10  11
ENDBRANCH   9  10
ENDBRANCH   8   9
ENDBRANCH   7   8
ENDBRANCH   6   7
ENDBRANCH   5   6
ENDBRANCH   4   5
ENDBRANCH   3   4
ENDBRANCH   2   3
ENDBRANCH   1   2
BRANCH   1  23
ATOM     23  O   LIG    1       26.704 -26.312   5.693  0.00  0.00    -0.375 OA
BRANCH  23  24
ATOM     24  C   LIG    1       26.046 -25.947   6.872  0.00  0.00    +0.188 C 
BRANCH  24  25
ATOM     25  C   LIG    1       25.916 -24.443   6.860  0.00  0.00    +0.188 C 
BRANCH  25  26
ATOM     26  O   LIG    1       24.819 -23.857   6.142  0.00  0.00    -0.374 OA
BRANCH  26  27
ATOM     27  C   LIG    1       23.485 -24.199   6.529  0.00  0.00    +0.201 C 
BRANCH  27  28
ATOM     28  C   LIG    1       22.644 -23.014   7.010  0.00  0.00    +0.260 C 
BRANCH  28  29
ATOM     29  O   LIG    1       23.287 -21.860   7.549  0.00  0.00    -0.459 OA
BRANCH  29  30
ATOM     30  C   LIG    1       23.603 -20.782   6.753  0.00  0.00    +0.339 C 
ATOM     31  O   LIG    1       22.860 -20.110   6.200  0.00  0.00    -0.245 OA
BRANCH  30  35
ATOM     32  C   LIG    1       27.995 -20.677   6.859  0.00  0.00    +0.027 A 
ATOM     33  C   LIG    1       27.247 -20.376   5.712  0.00  0.00    +0.024 A 
ATOM     34  C   LIG    1       25.840 -20.320   5.694  0.00  0.00    +0.017 A 
ATOM     35  C   LIG    1       25.126 -20.590   6.838  0.00  0.00    +0.059 A 
ATOM     36  C   LIG    1       25.875 -20.705   8.008  0.00  0.00    +0.017 A 
ATOM     37  C   LIG    1       27.279 -20.827   8.031  0.00  0.00    +0.024 A 
BRANCH  32  38
ATOM     38  N   LIG    1       29.354 -20.955   6.864  0.00  0.00    -0.344 N 
ATOM     39  H   LIG    1       29.587 -21.885   6.526  0.00  0.00    +0.146 HD
BRANCH  38  40
ATOM     40  C   LIG    1       30.224 -20.406   7.891  0.00  0.00    +0.101 C 
BRANCH  40  41
ATOM     41  C   LIG    1       31.128 -19.308   7.334  0.00  0.00    +0.018 C 
BRANCH  41  43
ATOM     42  C   LIG    1       30.393 -17.649   9.110  0.00  0.00    +0.004 C 
ATOM     43  C   LIG    1       31.566 -18.309   8.404  0.00  0.00    -0.002 C 
ENDBRANCH  41  43
ENDBRANCH  40  41
ENDBRANCH  38  40
ENDBRANCH  32  38
ENDBRANCH  30  35
ENDBRANCH  29  30
ENDBRANCH  28  29
ENDBRANCH  27  28
ENDBRANCH  26  27
ENDBRANCH  25  26
ENDBRANCH  24  25
ENDBRANCH  23  24
ENDBRANCH   1  23
TORSDOF 33
ENDMDL
MODEL 5
REMARK VINA RESULT:      -6.4      1.901      4.548
REMARK  Name = *****
REMARK                            x       y       z     vdW  Elec       q    Type
REMARK                         _______ _______ _______ _____ _____    ______ ____
ROOT
ATOM      1  C   LIG    1       25.097 -25.866   4.796  0.00  0.00    +0.188 C 
ENDROOT
BRANCH   1   2
ATOM      2  C   LIG    1       26.172 -26.833   5.087  0.00  0.00    +0.188 C 
BRANCH   2   3
ATOM      3  O   LIG    1       26.038 -27.515   6.361  0.00  0.00    -0.375 OA
BRANCH   3   4
ATOM      4  C   LIG    1       24.750 -28.091   6.729  0.00  0.00    +0.188 C 
BRANCH   4   5
ATOM      5  C   LIG    1       24.277 -29.381   5.949  0.00  0.00    +0.188 C 
BRANCH   5   6
ATOM      6  O   LIG    1       23.564 -30.388   6.706  0.00  0.00    -0.375 OA
BRANCH   6   7
ATOM      7  C   LIG    1       24.187 -30.612   7.963  0.00  0.00    +0.188 C 
BRANCH   7   8
ATOM      8  C   LIG    1       23.290 -30.262   9.377  0.00  0.00    +0.188 C 
BRANCH   8   9
ATOM      9  O   LIG    1       22.172 -31.056   9.682  0.00  0.00    -0.375 OA
BRANCH   9  10
ATOM     10  C   LIG    1       21.708 -30.634  10.925  0.00  0.00    +0.188 C 
BRANCH  10  11
ATOM     11  C   LIG    1       22.750 -29.845  11.640  0.00  0.00    +0.188 C 
BRANCH  11  12
ATOM     12  O   LIG    1       22.468 -29.846  13.033  0.00  0.00    -0.375 OA
BRANCH  12  13
ATOM     13  C   LIG    1       21.308 -29.058  13.332  0.00  0.00    +0.188 C 
BRANCH  13  14
ATOM     14  C   LIG    1       21.505 -27.630  12.876  0.00  0.00    +0.188 C 
BRANCH  14  15
ATOM     15  O   LIG    1       22.203 -26.901  13.893  0.00  0.00    -0.375 OA
BRANCH  15  16
ATOM     16  C   LIG    1       23.526 -26.564  13.486  0.00  0.00    +0.188 C 
BRANCH  16  17
ATOM     17  C   LIG    1       24.625 -27.112  14.403  0.00  0.00    +0.188 C 
BRANCH  17  18
ATOM     18  O   LIG    1       25.946 -26.683  14.070  0.00  0.00    -0.375 OA
BRANCH  18  19
ATOM     19  C   LIG    1       26.378 -26.888  12.723  0.00  0.00    +0.188 C 
BRANCH  19  20
ATOM     20  C   LIG    1       26.472 -28.369  12.344  0.00  0.00    +0.187 C 
BRANCH  20  21
ATOM     21  O   LIG    1       25.891 -28.594  11.065  0.00  0.00    -0.381 OA
ATOM     22  C   LIG    1       26.873 -28.586  10.034  0.00  0.00    +0.194 C 
ENDBRANCH  20  21
ENDBRANCH  19  20
ENDBRANCH  18  19
ENDBRANCH  17  18
ENDBRANCH  16  17
ENDBRANCH  15  16
ENDBRANCH  14  15
ENDBRANCH  13  14
ENDBRANCH  12  13
ENDBRANCH  11  12
ENDBRANCH  10  11
ENDBRANCH   9  10
ENDBRANCH   8   9
ENDBRANCH   7   8
ENDBRANCH   6   7
ENDBRANCH   5   6
ENDBRANCH   4   5
ENDBRANCH   3   4
ENDBRANCH   2   3
ENDBRANCH   1   2
BRANCH   1  23
ATOM     23  O   LIG    1       25.163 -24.514   5.096  0.00  0.00    -0.375 OA
BRANCH  23  24
ATOM     24  C   LIG    1       24.960 -24.354   6.471  0.00  0.00    +0.188 C 
BRANCH  24  25
ATOM     25  C   LIG    1       23.475 -24.195   6.685  0.00  0.00    +0.188 C 
BRANCH  25  26
ATOM     26  O   LIG    1       22.981 -22.923   7.132  0.00  0.00    -0.374 OA
BRANCH  26  27
ATOM     27  C   LIG    1       23.299 -21.756   6.367  0.00  0.00    +0.201 C 
BRANCH  27  28
ATOM     28  C   LIG    1       24.273 -20.796   7.055  0.00  0.00    +0.260 C 
BRANCH  28  29
ATOM     29  O   LIG    1       25.679 -20.984   6.904  0.00  0.00    -0.459 OA
BRANCH  29  30
ATOM     30  C   LIG    1       26.366 -20.415   5.856  0.00  0.00    +0.339 C 
ATOM     31  O   LIG    1       25.911 -20.038   4.875  0.00  0.00    -0.245 OA
BRANCH  30  35
ATOM     32  C   LIG    1       30.399 -19.773   7.476  0.00  0.00    +0.027 A 
ATOM     33  C   LIG    1       29.574 -20.836   7.868  0.00  0.00    +0.024 A 
ATOM     34  C   LIG    1       28.318 -21.100   7.289  0.00  0.00    +0.017 A 
ATOM     35  C   LIG    1       27.832 -20.280   6.298  0.00  0.00    +0.059 A 
ATOM     36  C   LIG    1       28.731 -19.344   5.789  0.00  0.00    +0.017 A 
ATOM     37  C   LIG    1       29.961 -19.027   6.399  0.00  0.00    +0.024 A 
BRANCH  32  38
ATOM     38  N   LIG    1       31.528 -19.354   8.165  0.00  0.00    -0.344 N 
ATOM     39  H   LIG    1       31.957 -20.079   8.735  0.00  0.00    +0.146 HD
BRANCH  38  40
ATOM     40  C   LIG    1       31.636 -17.994   8.665  0.00  0.00    +0.101 C 
BRANCH  40  41
ATOM     41  C   LIG    1       30.383 -17.574   9.431  0.00  0.00    +0.018 C 
BRANCH  41  43
ATOM     42  C   LIG    1       31.506 -17.292  11.690  0.00  0.00    +0.004 C 
ATOM     43  C   LIG    1       30.691 -16.630  10.591  0.00  0.00    -0.002 C 
ENDBRANCH  41  43
ENDBRANCH  40  41
ENDBRANCH  38  40
ENDBRANCH  32  38
ENDBRANCH  30  35
ENDBRANCH  29  30
ENDBRANCH  28  29
ENDBRANCH  27  28
ENDBRANCH  26  27
ENDBRANCH  25  26
ENDBRANCH  24  25
ENDBRANCH  23  24
ENDBRANCH   1  23
TORSDOF 33
ENDMDL
MODEL 6
REMARK VINA RESULT:      -6.3      2.070      4.394
REMARK  Name = *****
REMARK                            x       y       z     vdW  Elec       q    Type
REMARK                         _______ _______ _______ _____ _____    ______ ____
ROOT
ATOM      1  C   LIG    1       25.378 -25.882   4.997  0.00  0.00    +0.188 C 
ENDROOT
BRANCH   1   2
ATOM      2  C   LIG    1       26.267 -26.694   5.849  0.00  0.00    +0.188 C 
BRANCH   2   3
ATOM      3  O   LIG    1       25.587 -27.712   6.628  0.00  0.00    -0.375 OA
BRANCH   3   4
ATOM      4  C   LIG    1       24.365 -28.312   6.105  0.00  0.00    +0.188 C 
BRANCH   4   5
ATOM      5  C   LIG    1       24.292 -29.889   6.051  0.00  0.00    +0.188 C 
BRANCH   5   6
ATOM      6  O   LIG    1       25.538 -30.603   5.873  0.00  0.00    -0.375 OA
BRANCH   6   7
ATOM      7  C   LIG    1       25.574 -31.770   6.682  0.00  0.00    +0.188 C 
BRANCH   7   8
ATOM      8  C   LIG    1       26.413 -31.688   8.171  0.00  0.00    +0.188 C 
BRANCH   8   9
ATOM      9  O   LIG    1       25.910 -30.858   9.185  0.00  0.00    -0.375 OA
BRANCH   9  10
ATOM     10  C   LIG    1       27.000 -30.178   9.724  0.00  0.00    +0.188 C 
BRANCH  10  11
ATOM     11  C   LIG    1       26.765 -28.707   9.716  0.00  0.00    +0.188 C 
BRANCH  11  12
ATOM     12  O   LIG    1       27.323 -28.134  10.891  0.00  0.00    -0.375 OA
BRANCH  12  13
ATOM     13  C   LIG    1       27.474 -29.113  11.928  0.00  0.00    +0.188 C 
BRANCH  13  14
ATOM     14  C   LIG    1       26.889 -28.605  13.226  0.00  0.00    +0.188 C 
BRANCH  14  15
ATOM     15  O   LIG    1       25.558 -29.115  13.375  0.00  0.00    -0.375 OA
BRANCH  15  16
ATOM     16  C   LIG    1       24.581 -28.089  13.230  0.00  0.00    +0.188 C 
BRANCH  16  17
ATOM     17  C   LIG    1       23.158 -28.519  13.600  0.00  0.00    +0.188 C 
BRANCH  17  18
ATOM     18  O   LIG    1       22.223 -28.472  12.522  0.00  0.00    -0.375 OA
BRANCH  18  19
ATOM     19  C   LIG    1       20.882 -28.092  12.837  0.00  0.00    +0.188 C 
BRANCH  19  20
ATOM     20  C   LIG    1       20.316 -28.844  14.045  0.00  0.00    +0.187 C 
BRANCH  20  21
ATOM     21  O   LIG    1       19.632 -27.948  14.914  0.00  0.00    -0.381 OA
ATOM     22  C   LIG    1       19.939 -26.590  14.614  0.00  0.00    +0.194 C 
ENDBRANCH  20  21
ENDBRANCH  19  20
ENDBRANCH  18  19
ENDBRANCH  17  18
ENDBRANCH  16  17
ENDBRANCH  15  16
ENDBRANCH  14  15
ENDBRANCH  13  14
ENDBRANCH  12  13
ENDBRANCH  11  12
ENDBRANCH  10  11
ENDBRANCH   9  10
ENDBRANCH   8   9
ENDBRANCH   7   8
ENDBRANCH   6   7
ENDBRANCH   5   6
ENDBRANCH   4   5
ENDBRANCH   3   4
ENDBRANCH   2   3
ENDBRANCH   1   2
BRANCH   1  23
ATOM     23  O   LIG    1       25.123 -24.534   5.199  0.00  0.00    -0.375 OA
BRANCH  23  24
ATOM     24  C   LIG    1       24.838 -24.335   6.554  0.00  0.00    +0.188 C 
BRANCH  24  25
ATOM     25  C   LIG    1       23.368 -24.010   6.655  0.00  0.00    +0.188 C 
BRANCH  25  26
ATOM     26  O   LIG    1       22.986 -22.672   7.008  0.00  0.00    -0.374 OA
BRANCH  26  27
ATOM     27  C   LIG    1       22.842 -21.702   5.966  0.00  0.00    +0.201 C 
BRANCH  27  28
ATOM     28  C   LIG    1       23.883 -20.580   5.999  0.00  0.00    +0.260 C 
BRANCH  28  29
ATOM     29  O   LIG    1       25.257 -20.894   6.219  0.00  0.00    -0.459 OA
BRANCH  29  30
ATOM     30  C   LIG    1       25.836 -20.732   7.457  0.00  0.00    +0.339 C 
ATOM     31  O   LIG    1       25.300 -20.796   8.467  0.00  0.00    -0.245 OA
BRANCH  30  35
ATOM     32  C   LIG    1       30.146 -19.935   7.148  0.00  0.00    +0.027 A 
ATOM     33  C   LIG    1       29.602 -20.894   8.015  0.00  0.00    +0.024 A 
ATOM     34  C   LIG    1       28.233 -21.217   8.055  0.00  0.00    +0.017 A 
ATOM     35  C   LIG    1       27.348 -20.565   7.229  0.00  0.00    +0.059 A 
ATOM     36  C   LIG    1       27.916 -19.754   6.250  0.00  0.00    +0.017 A 
ATOM     37  C   LIG    1       29.273 -19.372   6.238  0.00  0.00    +0.024 A 
BRANCH  32  38
ATOM     38  N   LIG    1       31.438 -19.437   7.233  0.00  0.00    -0.344 N 
ATOM     39  H   LIG    1       32.152 -20.079   6.899  0.00  0.00    +0.146 HD
BRANCH  38  40
ATOM     40  C   LIG    1       31.827 -18.552   8.319  0.00  0.00    +0.101 C 
BRANCH  40  41
ATOM     41  C   LIG    1       30.688 -17.614   8.715  0.00  0.00    +0.018 C 
BRANCH  41  43
ATOM     42  C   LIG    1       30.946 -16.707  11.072  0.00  0.00    +0.004 C 
ATOM     43  C   LIG    1       30.295 -17.755  10.184  0.00  0.00    -0.002 C 
ENDBRANCH  41  43
ENDBRANCH  40  41
ENDBRANCH  38  40
ENDBRANCH  32  38
ENDBRANCH  30  35
ENDBRANCH  29  30
ENDBRANCH  28  29
ENDBRANCH  27  28
ENDBRANCH  26  27
ENDBRANCH  25  26
ENDBRANCH  24  25
ENDBRANCH  23  24
ENDBRANCH   1  23
TORSDOF 33
ENDMDL
MODEL 7
REMARK VINA RESULT:      -6.3      2.840     10.910
REMARK  Name = *****
REMARK                            x       y       z     vdW  Elec       q    Type
REMARK                         _______ _______ _______ _____ _____    ______ ____
ROOT
ATOM      1  C   LIG    1       25.164 -30.180   5.720  0.00  0.00    +0.188 C 
ENDROOT
BRANCH   1   2
ATOM      2  C   LIG    1       24.296 -29.042   6.075  0.00  0.00    +0.188 C 
BRANCH   2   3
ATOM      3  O   LIG    1       24.996 -27.783   6.251  0.00  0.00    -0.375 OA
BRANCH   3   4
ATOM      4  C   LIG    1       25.530 -27.095   5.081  0.00  0.00    +0.188 C 
BRANCH   4   5
ATOM      5  C   LIG    1       25.136 -25.577   4.884  0.00  0.00    +0.188 C 
BRANCH   5   6
ATOM      6  O   LIG    1       25.150 -24.733   6.059  0.00  0.00    -0.375 OA
BRANCH   6   7
ATOM      7  C   LIG    1       23.828 -24.402   6.460  0.00  0.00    +0.188 C 
BRANCH   7   8
ATOM      8  C   LIG    1       23.537 -22.816   7.034  0.00  0.00    +0.188 C 
BRANCH   8   9
ATOM      9  O   LIG    1       22.831 -21.920   6.214  0.00  0.00    -0.375 OA
BRANCH   9  10
ATOM     10  C   LIG    1       23.653 -20.811   6.033  0.00  0.00    +0.188 C 
BRANCH  10  11
ATOM     11  C   LIG    1       24.554 -21.004   4.862  0.00  0.00    +0.188 C 
BRANCH  11  12
ATOM     12  O   LIG    1       25.737 -20.239   5.047  0.00  0.00    -0.375 OA
BRANCH  12  13
ATOM     13  C   LIG    1       26.422 -20.618   6.249  0.00  0.00    +0.188 C 
BRANCH  13  14
ATOM     14  C   LIG    1       27.846 -20.111   6.230  0.00  0.00    +0.188 C 
BRANCH  14  15
ATOM     15  O   LIG    1       28.011 -19.207   5.129  0.00  0.00    -0.375 OA
BRANCH  15  16
ATOM     16  C   LIG    1       29.175 -18.399   5.281  0.00  0.00    +0.188 C 
BRANCH  16  17
ATOM     17  C   LIG    1       30.159 -18.907   6.339  0.00  0.00    +0.188 C 
BRANCH  17  18
ATOM     18  O   LIG    1       30.280 -18.071   7.490  0.00  0.00    -0.375 OA
BRANCH  18  19
ATOM     19  C   LIG    1       30.155 -18.698   8.768  0.00  0.00    +0.188 C 
BRANCH  19  20
ATOM     20  C   LIG    1       31.501 -18.891   9.473  0.00  0.00    +0.187 C 
BRANCH  20  21
ATOM     21  O   LIG    1       32.093 -20.127   9.088  0.00  0.00    -0.381 OA
ATOM     22  C   LIG    1       31.126 -21.170   9.016  0.00  0.00    +0.194 C 
ENDBRANCH  20  21
ENDBRANCH  19  20
ENDBRANCH  18  19
ENDBRANCH  17  18
ENDBRANCH  16  17
ENDBRANCH  15  16
ENDBRANCH  14  15
ENDBRANCH  13  14
ENDBRANCH  12  13
ENDBRANCH  11  12
ENDBRANCH  10  11
ENDBRANCH   9  10
ENDBRANCH   8   9
ENDBRANCH   7   8
ENDBRANCH   6   7
ENDBRANCH   5   6
ENDBRANCH   4   5
ENDBRANCH   3   4
ENDBRANCH   2   3
ENDBRANCH   1   2
BRANCH   1  23
ATOM     23  O   LIG    1       25.061 -31.443   6.283  0.00  0.00    -0.375 OA
BRANCH  23  24
ATOM     24  C   LIG    1       24.016 -31.431   7.212  0.00  0.00    +0.188 C 
BRANCH  24  25
ATOM     25  C   LIG    1       24.438 -32.308   8.366  0.00  0.00    +0.188 C 
BRANCH  25  26
ATOM     26  O   LIG    1       25.388 -31.788   9.308  0.00  0.00    -0.374 OA
BRANCH  26  27
ATOM     27  C   LIG    1       25.313 -30.404   9.665  0.00  0.00    +0.201 C 
BRANCH  27  28
ATOM     28  C   LIG    1       26.462 -29.549   9.124  0.00  0.00    +0.260 C 
BRANCH  28  29
ATOM     29  O   LIG    1       27.124 -28.625   9.985  0.00  0.00    -0.459 OA
BRANCH  29  30
ATOM     30  C   LIG    1       27.681 -29.032  11.176  0.00  0.00    +0.339 C 
ATOM     31  O   LIG    1       28.565 -29.749  11.298  0.00  0.00    -0.245 OA
BRANCH  30  35
ATOM     32  C   LIG    1       25.244 -26.890  14.139  0.00  0.00    +0.027 A 
ATOM     33  C   LIG    1       25.476 -28.272  14.190  0.00  0.00    +0.024 A 
ATOM     34  C   LIG    1       26.328 -28.950  13.297  0.00  0.00    +0.017 A 
ATOM     35  C   LIG    1       26.967 -28.257  12.296  0.00  0.00    +0.059 A 
ATOM     36  C   LIG    1       26.878 -26.869  12.366  0.00  0.00    +0.017 A 
ATOM     37  C   LIG    1       25.982 -26.182  13.211  0.00  0.00    +0.024 A 
BRANCH  32  38
ATOM     38  N   LIG    1       24.254 -26.230  14.852  0.00  0.00    -0.344 N 
ATOM     39  H   LIG    1       24.553 -25.897  15.764  0.00  0.00    +0.146 HD
BRANCH  38  40
ATOM     40  C   LIG    1       22.860 -26.628  14.737  0.00  0.00    +0.101 C 
BRANCH  40  41
ATOM     41  C   LIG    1       22.327 -26.408  13.323  0.00  0.00    +0.018 C 
BRANCH  41  43
ATOM     42  C   LIG    1       22.284 -28.805  12.486  0.00  0.00    +0.004 C 
ATOM     43  C   LIG    1       21.466 -27.571  12.832  0.00  0.00    -0.002 C 
ENDBRANCH  41  43
ENDBRANCH  40  41
ENDBRANCH  38  40
ENDBRANCH  32  38
ENDBRANCH  30  35
ENDBRANCH  29  30
ENDBRANCH  28  29
ENDBRANCH  27  28
ENDBRANCH  26  27
ENDBRANCH  25  26
ENDBRANCH  24  25
ENDBRANCH  23  24
ENDBRANCH   1  23
TORSDOF 33
ENDMDL
MODEL 8
REMARK VINA RESULT:      -6.3      2.087      5.541
REMARK  Name = *****
REMARK                            x       y       z     vdW  Elec       q    Type
REMARK                         _______ _______ _______ _____ _____    ______ ____
ROOT
ATOM      1  C   LIG    1       25.791 -27.457   5.064  0.00  0.00    +0.188 C 
ENDROOT
BRANCH   1   2
ATOM      2  C   LIG    1       24.401 -27.694   5.495  0.00  0.00    +0.188 C 
BRANCH   2   3
ATOM      3  O   LIG    1       24.082 -29.084   5.760  0.00  0.00    -0.375 OA
BRANCH   3   4
ATOM      4  C   LIG    1       25.122 -30.096   5.607  0.00  0.00    +0.188 C 
BRANCH   4   5
ATOM      5  C   LIG    1       25.236 -31.201   6.730  0.00  0.00    +0.188 C 
BRANCH   5   6
ATOM      6  O   LIG    1       25.084 -30.767   8.103  0.00  0.00    -0.375 OA
BRANCH   6   7
ATOM      7  C   LIG    1       25.981 -29.707   8.401  0.00  0.00    +0.188 C 
BRANCH   7   8
ATOM      8  C   LIG    1       26.336 -29.396  10.046  0.00  0.00    +0.188 C 
BRANCH   8   9
ATOM      9  O   LIG    1       27.663 -29.112  10.408  0.00  0.00    -0.375 OA
BRANCH   9  10
ATOM     10  C   LIG    1       27.636 -28.709  11.741  0.00  0.00    +0.188 C 
BRANCH  10  11
ATOM     11  C   LIG    1       26.343 -28.045  12.069  0.00  0.00    +0.188 C 
BRANCH  11  12
ATOM     12  O   LIG    1       26.241 -27.881  13.477  0.00  0.00    -0.375 OA
BRANCH  12  13
ATOM     13  C   LIG    1       25.320 -26.836  13.816  0.00  0.00    +0.188 C 
BRANCH  13  14
ATOM     14  C   LIG    1       23.929 -27.178  13.331  0.00  0.00    +0.188 C 
BRANCH  14  15
ATOM     15  O   LIG    1       23.057 -27.318  14.460  0.00  0.00    -0.375 OA
BRANCH  15  16
ATOM     16  C   LIG    1       22.056 -28.306  14.233  0.00  0.00    +0.188 C 
BRANCH  16  17
ATOM     17  C   LIG    1       21.168 -28.034  13.015  0.00  0.00    +0.188 C 
BRANCH  17  18
ATOM     18  O   LIG    1       20.885 -29.184  12.217  0.00  0.00    -0.375 OA
BRANCH  18  19
ATOM     19  C   LIG    1       21.887 -30.201  12.159  0.00  0.00    +0.188 C 
BRANCH  19  20
ATOM     20  C   LIG    1       22.847 -30.027  10.979  0.00  0.00    +0.187 C 
BRANCH  20  21
ATOM     21  O   LIG    1       22.266 -30.537   9.784  0.00  0.00    -0.381 OA
ATOM     22  C   LIG    1       21.758 -31.854   9.969  0.00  0.00    +0.194 C 
ENDBRANCH  20  21
ENDBRANCH  19  20
ENDBRANCH  18  19
ENDBRANCH  17  18
ENDBRANCH  16  17
ENDBRANCH  15  16
ENDBRANCH  14  15
ENDBRANCH  13  14
ENDBRANCH  12  13
ENDBRANCH  11  12
ENDBRANCH  10  11
ENDBRANCH   9  10
ENDBRANCH   8   9
ENDBRANCH   7   8
ENDBRANCH   6   7
ENDBRANCH   5   6
ENDBRANCH   4   5
ENDBRANCH   3   4
ENDBRANCH   2   3
ENDBRANCH   1   2
BRANCH   1  23
ATOM     23  O   LIG    1       26.536 -26.341   5.414  0.00  0.00    -0.375 OA
BRANCH  23  24
ATOM     24  C   LIG    1       26.160 -25.942   6.701  0.00  0.00    +0.188 C 
BRANCH  24  25
ATOM     25  C   LIG    1       25.821 -24.473   6.629  0.00  0.00    +0.188 C 
BRANCH  25  26
ATOM     26  O   LIG    1       24.607 -24.083   5.970  0.00  0.00    -0.374 OA
BRANCH  26  27
ATOM     27  C   LIG    1       23.364 -24.279   6.651  0.00  0.00    +0.201 C 
BRANCH  27  28
ATOM     28  C   LIG    1       22.618 -22.985   6.989  0.00  0.00    +0.260 C 
BRANCH  28  29
ATOM     29  O   LIG    1       23.335 -21.873   7.524  0.00  0.00    -0.459 OA
BRANCH  29  30
ATOM     30  C   LIG    1       23.655 -20.787   6.740  0.00  0.00    +0.339 C 
ATOM     31  O   LIG    1       22.914 -20.047   6.278  0.00  0.00    -0.245 OA
BRANCH  30  35
ATOM     32  C   LIG    1       27.992 -20.084   6.756  0.00  0.00    +0.027 A 
ATOM     33  C   LIG    1       27.278 -20.503   7.887  0.00  0.00    +0.024 A 
ATOM     34  C   LIG    1       25.905 -20.817   7.867  0.00  0.00    +0.017 A 
ATOM     35  C   LIG    1       25.189 -20.697   6.699  0.00  0.00    +0.059 A 
ATOM     36  C   LIG    1       25.939 -20.461   5.549  0.00  0.00    +0.017 A 
ATOM     37  C   LIG    1       27.296 -20.083   5.562  0.00  0.00    +0.024 A 
BRANCH  32  38
ATOM     38  N   LIG    1       29.276 -19.560   6.783  0.00  0.00    -0.344 N 
ATOM     39  H   LIG    1       29.792 -19.684   5.916  0.00  0.00    +0.146 HD
BRANCH  38  40
ATOM     40  C   LIG    1       30.061 -19.572   8.007  0.00  0.00    +0.101 C 
BRANCH  40  41
ATOM     41  C   LIG    1       30.304 -18.159   8.533  0.00  0.00    +0.018 C 
BRANCH  41  43
ATOM     42  C   LIG    1       30.384 -17.095  10.837  0.00  0.00    +0.004 C 
ATOM     43  C   LIG    1       30.966 -18.150   9.910  0.00  0.00    -0.002 C 
ENDBRANCH  41  43
ENDBRANCH  40  41
ENDBRANCH  38  40
ENDBRANCH  32  38
ENDBRANCH  30  35
ENDBRANCH  29  30
ENDBRANCH  28  29
ENDBRANCH  27  28
ENDBRANCH  26  27
ENDBRANCH  25  26
ENDBRANCH  24  25
ENDBRANCH  23  24
ENDBRANCH   1  23
TORSDOF 33
ENDMDL
MODEL 9
REMARK VINA RESULT:      -6.2      1.513      2.007
REMARK  Name = *****
REMARK                            x       y       z     vdW  Elec       q    Type
REMARK                         _______ _______ _______ _____ _____    ______ ____
ROOT
ATOM      1  C   LIG    1       22.958 -23.312   6.807  0.00  0.00    +0.188 C 
ENDROOT
BRANCH   1   2
ATOM      2  C   LIG    1       23.592 -24.613   6.524  0.00  0.00    +0.188 C 
BRANCH   2   3
ATOM      3  O   LIG    1       25.018 -24.542   6.262  0.00  0.00    -0.375 OA
BRANCH   3   4
ATOM      4  C   LIG    1       25.876 -25.644   6.684  0.00  0.00    +0.188 C 
BRANCH   4   5
ATOM      5  C   LIG    1       26.388 -26.638   5.569  0.00  0.00    +0.188 C 
BRANCH   5   6
ATOM      6  O   LIG    1       25.392 -27.437   4.887  0.00  0.00    -0.375 OA
BRANCH   6   7
ATOM      7  C   LIG    1       24.578 -28.134   5.819  0.00  0.00    +0.188 C 
BRANCH   7   8
ATOM      8  C   LIG    1       24.650 -29.844   5.826  0.00  0.00    +0.188 C 
BRANCH   8   9
ATOM      9  O   LIG    1       23.600 -30.562   6.420  0.00  0.00    -0.375 OA
BRANCH   9  10
ATOM     10  C   LIG    1       23.753 -31.891   6.031  0.00  0.00    +0.188 C 
BRANCH  10  11
ATOM     11  C   LIG    1       25.177 -32.188   5.709  0.00  0.00    +0.188 C 
BRANCH  11  12
ATOM     12  O   LIG    1       25.573 -33.377   6.379  0.00  0.00    -0.375 OA
BRANCH  12  13
ATOM     13  C   LIG    1       25.703 -33.163   7.791  0.00  0.00    +0.188 C 
BRANCH  13  14
ATOM     14  C   LIG    1       26.834 -32.202   8.079  0.00  0.00    +0.188 C 
BRANCH  14  15
ATOM     15  O   LIG    1       26.611 -31.578   9.350  0.00  0.00    -0.375 OA
BRANCH  15  16
ATOM     16  C   LIG    1       25.661 -30.520   9.259  0.00  0.00    +0.188 C 
BRANCH  16  17
ATOM     17  C   LIG    1       26.269 -29.118   9.362  0.00  0.00    +0.188 C 
BRANCH  17  18
ATOM     18  O   LIG    1       27.559 -29.072   9.973  0.00  0.00    -0.375 OA
BRANCH  18  19
ATOM     19  C   LIG    1       27.605 -29.070  11.401  0.00  0.00    +0.188 C 
BRANCH  19  20
ATOM     20  C   LIG    1       26.280 -28.644  12.040  0.00  0.00    +0.187 C 
BRANCH  20  21
ATOM     21  O   LIG    1       26.242 -27.233  12.218  0.00  0.00    -0.381 OA
ATOM     22  C   LIG    1       27.184 -26.803  13.196  0.00  0.00    +0.194 C 
ENDBRANCH  20  21
ENDBRANCH  19  20
ENDBRANCH  18  19
ENDBRANCH  17  18
ENDBRANCH  16  17
ENDBRANCH  15  16
ENDBRANCH  14  15
ENDBRANCH  13  14
ENDBRANCH  12  13
ENDBRANCH  11  12
ENDBRANCH  10  11
ENDBRANCH   9  10
ENDBRANCH   8   9
ENDBRANCH   7   8
ENDBRANCH   6   7
ENDBRANCH   5   6
ENDBRANCH   4   5
ENDBRANCH   3   4
ENDBRANCH   2   3
ENDBRANCH   1   2
BRANCH   1  23
ATOM     23  O   LIG    1       22.633 -22.376   5.837  0.00  0.00    -0.375 OA
BRANCH  23  24
ATOM     24  C   LIG    1       23.181 -21.143   6.208  0.00  0.00    +0.188 C 
BRANCH  24  25
ATOM     25  C   LIG    1       23.530 -21.235   7.673  0.00  0.00    +0.188 C 
BRANCH  25  26
ATOM     26  O   LIG    1       24.453 -20.280   8.217  0.00  0.00    -0.374 OA
BRANCH  26  27
ATOM     27  C   LIG    1       25.658 -20.758   8.823  0.00  0.00    +0.201 C 
BRANCH  27  28
ATOM     28  C   LIG    1       26.169 -22.083   8.251  0.00  0.00    +0.260 C 
BRANCH  28  29
ATOM     29  O   LIG    1       27.142 -22.077   7.207  0.00  0.00    -0.459 OA
BRANCH  29  30
ATOM     30  C   LIG    1       27.386 -20.943   6.466  0.00  0.00    +0.339 C 
ATOM     31  O   LIG    1       26.662 -20.449   5.730  0.00  0.00    -0.245 OA
BRANCH  30  35
ATOM     32  C   LIG    1       31.106 -19.254   8.082  0.00  0.00    +0.027 A 
ATOM     33  C   LIG    1       30.657 -20.548   8.381  0.00  0.00    +0.024 A 
ATOM     34  C   LIG    1       29.514 -21.127   7.797  0.00  0.00    +0.017 A 
ATOM     35  C   LIG    1       28.762 -20.410   6.898  0.00  0.00    +0.059 A 
ATOM     36  C   LIG    1       29.314 -19.204   6.470  0.00  0.00    +0.017 A 
ATOM     37  C   LIG    1       30.418 -18.584   7.088  0.00  0.00    +0.024 A 
BRANCH  32  38
ATOM     38  N   LIG    1       32.087 -18.575   8.791  0.00  0.00    -0.344 N 
ATOM     39  H   LIG    1       32.485 -19.109   9.560  0.00  0.00    +0.146 HD
BRANCH  38  40
ATOM     40  C   LIG    1       32.011 -17.136   8.978  0.00  0.00    +0.101 C 
BRANCH  40  41
ATOM     41  C   LIG    1       32.596 -16.711  10.323  0.00  0.00    +0.018 C 
BRANCH  41  43
ATOM     42  C   LIG    1       32.113 -16.193  12.761  0.00  0.00    +0.004 C 
ATOM     43  C   LIG    1       31.529 -16.552  11.405  0.00  0.00    -0.002 C 
ENDBRANCH  41  43
ENDBRANCH  40  41
ENDBRANCH  38  40
ENDBRANCH  32  38
ENDBRANCH  30  35
ENDBRANCH  29  30
ENDBRANCH  28  29
ENDBRANCH  27  28
ENDBRANCH  26  27
ENDBRANCH  25  26
ENDBRANCH  24  25
ENDBRANCH  23  24
ENDBRANCH   1  23
TORSDOF 33
ENDMDL
