MODEL 1
REMARK VINA RESULT:      -6.9      0.000      0.000
REMARK  Name = *****
REMARK                            x       y       z     vdW  Elec       q    Type
REMARK                         _______ _______ _______ _____ _____    ______ ____
ROOT
ATOM      1  N   LIG    1       25.689 -29.039   7.439  0.00  0.00    -0.300 N 
ATOM      2  H   LIG    1       26.570 -28.529   7.435  0.00  0.00    +0.150 HD
ATOM      3  C   LIG    1       24.873 -28.862   6.336  0.00  0.00    +0.235 C 
ATOM      4  O   LIG    1       23.876 -29.556   6.156  0.00  0.00    -0.274 OA
ENDROOT
BRANCH   1  13
ATOM      5  C   LIG    1       25.093 -28.477  13.875  0.00  0.00    +0.042 C 
ATOM      6  C   LIG    1       25.265 -28.823  12.405  0.00  0.00    -0.034 C 
ATOM      7  C   LIG    1       26.616 -28.307  11.925  0.00  0.00    +0.103 C 
ATOM      8  S   LIG    1       26.913 -28.343  10.142  0.00  0.00    -0.131 S 
ATOM      9  C   LIG    1       26.031 -29.894   9.869  0.00  0.00    +0.169 C 
ATOM     10  N   LIG    1       24.666 -29.714  10.320  0.00  0.00    -0.249 N 
ATOM     11  C   LIG    1       24.075 -30.077   9.168  0.00  0.00    +0.244 C 
ATOM     12  O   LIG    1       22.889 -30.199   8.918  0.00  0.00    -0.273 OA
ATOM     13  CA  LIG    1       25.454 -30.114   8.433  0.00  0.00    +0.191 C 
ATOM     14  CA  LIG    1       24.348 -29.461  11.625  0.00  0.00    +0.122 C 
BRANCH  14  15
ATOM     15  C   LIG    1       23.020 -29.926  12.188  0.00  0.00    +0.351 C 
ATOM     16  O   LIG    1       22.896 -30.928  12.878  0.00  0.00    -0.244 OA
BRANCH  15  17
ATOM     17  OXT LIG    1       21.931 -29.207  11.859  0.00  0.00    -0.476 OA
ATOM     18  HXT LIG    1       21.642 -28.493  12.468  0.00  0.00    +0.295 HD
ENDBRANCH  15  17
ENDBRANCH  14  15
ENDBRANCH   1  13
BRANCH   3  19
ATOM     19  CA  LIG    1       25.297 -27.703   5.383  0.00  0.00    +0.168 C 
BRANCH  19  20
ATOM     20  C   LIG    1       25.050 -26.323   5.979  0.00  0.00    -0.022 A 
ATOM     21  C   LIG    1       26.113 -25.542   6.462  0.00  0.00    +0.009 A 
ATOM     22  C   LIG    1       25.888 -24.267   6.986  0.00  0.00    +0.045 A 
ATOM     23  C   LIG    1       24.601 -23.750   7.016  0.00  0.00    +0.117 A 
ATOM     24  C   LIG    1       23.527 -24.498   6.547  0.00  0.00    +0.045 A 
ATOM     25  C   LIG    1       23.750 -25.781   6.029  0.00  0.00    +0.009 A 
BRANCH  23  26
ATOM     26  O   LIG    1       24.437 -22.493   7.516  0.00  0.00    -0.507 OA
ATOM     27  H   LIG    1       25.190 -22.284   8.092  0.00  0.00    +0.292 HD
ENDBRANCH  23  26
ENDBRANCH  19  20
BRANCH  19  28
ATOM     28  N   LIG    1       26.725 -27.864   4.995  0.00  0.00    -0.316 NA
ATOM     29  H1  LIG    1       26.760 -28.511   4.205  0.00  0.00    +0.119 HD
ATOM     30  H2  LIG    1       27.049 -26.980   4.604  0.00  0.00    +0.119 HD
ENDBRANCH  19  28
ENDBRANCH   3  19
TORSDOF 7
ENDMDL
MODEL 2
REMARK VINA RESULT:      -6.9      3.850      8.681
REMARK  Name = *****
REMARK                            x       y       z     vdW  Elec       q    Type
REMARK                         _______ _______ _______ _____ _____    ______ ____
ROOT
ATOM      1  N   LIG    1       25.875 -24.079   6.932  0.00  0.00    -0.300 N 
ATOM      2  H   LIG    1       26.809 -24.154   7.328  0.00  0.00    +0.150 HD
ATOM      3  C   LIG    1       25.216 -25.269   6.684  0.00  0.00    +0.235 C 
ATOM      4  O   LIG    1       24.029 -25.294   6.371  0.00  0.00    -0.274 OA
ENDROOT
BRANCH   1  13
ATOM      5  C   LIG    1       28.205 -18.348   4.977  0.00  0.00    +0.042 C 
ATOM      6  C   LIG    1       27.500 -19.574   5.532  0.00  0.00    -0.034 C 
ATOM      7  C   LIG    1       28.321 -20.145   6.682  0.00  0.00    +0.103 C 
ATOM      8  S   LIG    1       27.830 -21.770   7.303  0.00  0.00    -0.131 S 
ATOM      9  C   LIG    1       26.060 -21.491   7.088  0.00  0.00    +0.169 C 
ATOM     10  N   LIG    1       25.823 -21.207   5.687  0.00  0.00    -0.249 N 
ATOM     11  C   LIG    1       24.905 -22.168   5.488  0.00  0.00    +0.244 C 
ATOM     12  O   LIG    1       24.252 -22.413   4.490  0.00  0.00    -0.273 OA
ATOM     13  CA  LIG    1       25.179 -22.769   6.905  0.00  0.00    +0.191 C 
ATOM     14  CA  LIG    1       26.338 -20.105   5.061  0.00  0.00    +0.122 C 
BRANCH  14  15
ATOM     15  C   LIG    1       25.596 -19.475   3.899  0.00  0.00    +0.351 C 
ATOM     16  O   LIG    1       25.025 -18.396   3.970  0.00  0.00    -0.244 OA
BRANCH  15  17
ATOM     17  OXT LIG    1       25.539 -20.182   2.755  0.00  0.00    -0.476 OA
ATOM     18  HXT LIG    1       26.036 -19.849   1.976  0.00  0.00    +0.295 HD
ENDBRANCH  15  17
ENDBRANCH  14  15
ENDBRANCH   1  13
BRANCH   3  19
ATOM     19  CA  LIG    1       26.104 -26.547   6.791  0.00  0.00    +0.168 C 
BRANCH  19  20
ATOM     20  C   LIG    1       25.322 -27.834   6.568  0.00  0.00    -0.022 A 
ATOM     21  C   LIG    1       24.868 -28.193   5.288  0.00  0.00    +0.009 A 
ATOM     22  C   LIG    1       24.172 -29.385   5.080  0.00  0.00    +0.045 A 
ATOM     23  C   LIG    1       23.938 -30.243   6.144  0.00  0.00    +0.117 A 
ATOM     24  C   LIG    1       24.373 -29.918   7.424  0.00  0.00    +0.045 A 
ATOM     25  C   LIG    1       25.064 -28.717   7.636  0.00  0.00    +0.009 A 
BRANCH  23  26
ATOM     26  O   LIG    1       23.274 -31.405   5.886  0.00  0.00    -0.507 OA
ATOM     27  H   LIG    1       23.896 -32.041   5.496  0.00  0.00    +0.292 HD
ENDBRANCH  23  26
ENDBRANCH  19  20
BRANCH  19  28
ATOM     28  N   LIG    1       27.247 -26.449   5.843  0.00  0.00    -0.316 NA
ATOM     29  H1  LIG    1       27.152 -27.207   5.165  0.00  0.00    +0.119 HD
ATOM     30  H2  LIG    1       27.126 -25.604   5.286  0.00  0.00    +0.119 HD
ENDBRANCH  19  28
ENDBRANCH   3  19
TORSDOF 7
ENDMDL
MODEL 3
REMARK VINA RESULT:      -6.8      2.882      4.246
REMARK  Name = *****
REMARK                            x       y       z     vdW  Elec       q    Type
REMARK                         _______ _______ _______ _____ _____    ______ ____
ROOT
ATOM      1  N   LIG    1       24.451 -26.627   6.668  0.00  0.00    -0.300 N 
ATOM      2  H   LIG    1       24.272 -26.620   7.670  0.00  0.00    +0.150 HD
ATOM      3  C   LIG    1       24.347 -25.411   6.018  0.00  0.00    +0.235 C 
ATOM      4  O   LIG    1       24.708 -25.271   4.853  0.00  0.00    -0.274 OA
ENDROOT
BRANCH   1  13
ATOM      5  C   LIG    1       26.229 -32.207   9.460  0.00  0.00    +0.042 C 
ATOM      6  C   LIG    1       25.939 -30.963   8.637  0.00  0.00    -0.034 C 
ATOM      7  C   LIG    1       26.675 -29.777   9.247  0.00  0.00    +0.103 C 
ATOM      8  S   LIG    1       26.245 -28.140   8.613  0.00  0.00    -0.131 S 
ATOM      9  C   LIG    1       26.016 -28.688   6.909  0.00  0.00    +0.169 C 
ATOM     10  N   LIG    1       24.982 -29.703   6.905  0.00  0.00    -0.249 N 
ATOM     11  C   LIG    1       24.186 -29.108   6.000  0.00  0.00    +0.244 C 
ATOM     12  O   LIG    1       23.149 -29.512   5.505  0.00  0.00    -0.273 OA
ATOM     13  CA  LIG    1       25.065 -27.816   6.028  0.00  0.00    +0.191 C 
ATOM     14  CA  LIG    1       25.124 -30.902   7.547  0.00  0.00    +0.122 C 
BRANCH  14  15
ATOM     15  C   LIG    1       24.419 -32.135   7.019  0.00  0.00    +0.351 C 
ATOM     16  O   LIG    1       24.977 -32.996   6.353  0.00  0.00    -0.244 OA
BRANCH  15  17
ATOM     17  OXT LIG    1       23.101 -32.241   7.271  0.00  0.00    -0.476 OA
ATOM     18  HXT LIG    1       22.484 -32.309   6.510  0.00  0.00    +0.295 HD
ENDBRANCH  15  17
ENDBRANCH  14  15
ENDBRANCH   1  13
BRANCH   3  19
ATOM     19  CA  LIG    1       23.706 -24.267   6.862  0.00  0.00    +0.168 C 
BRANCH  19  20
ATOM     20  C   LIG    1       24.683 -23.144   7.182  0.00  0.00    -0.022 A 
ATOM     21  C   LIG    1       24.225 -21.874   7.572  0.00  0.00    +0.009 A 
ATOM     22  C   LIG    1       25.123 -20.852   7.888  0.00  0.00    +0.045 A 
ATOM     23  C   LIG    1       26.488 -21.091   7.837  0.00  0.00    +0.117 A 
ATOM     24  C   LIG    1       26.975 -22.337   7.454  0.00  0.00    +0.045 A 
ATOM     25  C   LIG    1       26.075 -23.360   7.128  0.00  0.00    +0.009 A 
BRANCH  23  26
ATOM     26  O   LIG    1       27.323 -20.069   8.176  0.00  0.00    -0.507 OA
ATOM     27  H   LIG    1       27.491 -20.106   9.132  0.00  0.00    +0.292 HD
ENDBRANCH  23  26
ENDBRANCH  19  20
BRANCH  19  28
ATOM     28  N   LIG    1       22.502 -23.738   6.165  0.00  0.00    -0.316 NA
ATOM     29  H1  LIG    1       21.708 -23.839   6.799  0.00  0.00    +0.119 HD
ATOM     30  H2  LIG    1       22.610 -22.730   6.064  0.00  0.00    +0.119 HD
ENDBRANCH  19  28
ENDBRANCH   3  19
TORSDOF 7
ENDMDL
MODEL 4
REMARK VINA RESULT:      -6.7      2.784      4.095
REMARK  Name = *****
REMARK                            x       y       z     vdW  Elec       q    Type
REMARK                         _______ _______ _______ _____ _____    ______ ____
ROOT
ATOM      1  N   LIG    1       24.682 -26.689   6.723  0.00  0.00    -0.300 N 
ATOM      2  H   LIG    1       24.601 -26.592   7.733  0.00  0.00    +0.150 HD
ATOM      3  C   LIG    1       24.542 -25.530   5.982  0.00  0.00    +0.235 C 
ATOM      4  O   LIG    1       24.790 -25.501   4.779  0.00  0.00    -0.274 OA
ENDROOT
BRANCH   1  13
ATOM      5  C   LIG    1       25.852 -32.327   9.713  0.00  0.00    +0.042 C 
ATOM      6  C   LIG    1       25.703 -31.085   8.850  0.00  0.00    -0.034 C 
ATOM      7  C   LIG    1       26.526 -29.954   9.453  0.00  0.00    +0.103 C 
ATOM      8  S   LIG    1       26.268 -28.303   8.764  0.00  0.00    -0.131 S 
ATOM      9  C   LIG    1       26.042 -28.877   7.068  0.00  0.00    +0.169 C 
ATOM     10  N   LIG    1       24.919 -29.793   7.056  0.00  0.00    -0.249 N 
ATOM     11  C   LIG    1       24.210 -29.154   6.110  0.00  0.00    +0.244 C 
ATOM     12  O   LIG    1       23.156 -29.476   5.591  0.00  0.00    -0.273 OA
ATOM     13  CA  LIG    1       25.202 -27.947   6.134  0.00  0.00    +0.191 C 
ATOM     14  CA  LIG    1       24.931 -30.981   7.732  0.00  0.00    +0.122 C 
BRANCH  14  15
ATOM     15  C   LIG    1       24.132 -32.160   7.212  0.00  0.00    +0.351 C 
ATOM     16  O   LIG    1       23.017 -32.450   7.622  0.00  0.00    -0.244 OA
BRANCH  15  17
ATOM     17  OXT LIG    1       24.722 -32.937   6.285  0.00  0.00    -0.476 OA
ATOM     18  HXT LIG    1       25.539 -32.607   5.851  0.00  0.00    +0.295 HD
ENDBRANCH  15  17
ENDBRANCH  14  15
ENDBRANCH   1  13
BRANCH   3  19
ATOM     19  CA  LIG    1       24.012 -24.299   6.780  0.00  0.00    +0.168 C 
BRANCH  19  20
ATOM     20  C   LIG    1       24.948 -23.100   6.715  0.00  0.00    -0.022 A 
ATOM     21  C   LIG    1       26.148 -23.078   7.446  0.00  0.00    +0.009 A 
ATOM     22  C   LIG    1       27.018 -21.988   7.367  0.00  0.00    +0.045 A 
ATOM     23  C   LIG    1       26.709 -20.916   6.542  0.00  0.00    +0.117 A 
ATOM     24  C   LIG    1       25.529 -20.906   5.806  0.00  0.00    +0.045 A 
ATOM     25  C   LIG    1       24.651 -21.996   5.892  0.00  0.00    +0.009 A 
BRANCH  23  26
ATOM     26  O   LIG    1       27.601 -19.887   6.482  0.00  0.00    -0.507 OA
ATOM     27  H   LIG    1       28.500 -20.248   6.555  0.00  0.00    +0.292 HD
ENDBRANCH  23  26
ENDBRANCH  19  20
BRANCH  19  28
ATOM     28  N   LIG    1       22.650 -23.935   6.302  0.00  0.00    -0.316 NA
ATOM     29  H1  LIG    1       21.992 -24.139   7.055  0.00  0.00    +0.119 HD
ATOM     30  H2  LIG    1       22.608 -22.921   6.206  0.00  0.00    +0.119 HD
ENDBRANCH  19  28
ENDBRANCH   3  19
TORSDOF 7
ENDMDL
MODEL 5
REMARK VINA RESULT:      -6.5      3.445      6.446
REMARK  Name = *****
REMARK                            x       y       z     vdW  Elec       q    Type
REMARK                         _______ _______ _______ _____ _____    ______ ____
ROOT
ATOM      1  N   LIG    1       25.843 -29.751  11.104  0.00  0.00    -0.300 N 
ATOM      2  H   LIG    1       25.372 -30.493  11.618  0.00  0.00    +0.150 HD
ATOM      3  C   LIG    1       26.098 -28.586  11.805  0.00  0.00    +0.235 C 
ATOM      4  O   LIG    1       26.808 -27.699  11.340  0.00  0.00    -0.274 OA
ENDROOT
BRANCH   1  13
ATOM      5  C   LIG    1       23.273 -32.959   6.084  0.00  0.00    +0.042 C 
ATOM      6  C   LIG    1       24.069 -32.238   7.159  0.00  0.00    -0.034 C 
ATOM      7  C   LIG    1       24.138 -33.115   8.403  0.00  0.00    +0.103 C 
ATOM      8  S   LIG    1       24.779 -32.345   9.907  0.00  0.00    -0.131 S 
ATOM      9  C   LIG    1       26.011 -31.339   9.054  0.00  0.00    +0.169 C 
ATOM     10  N   LIG    1       25.313 -30.490   8.109  0.00  0.00    -0.249 N 
ATOM     11  C   LIG    1       25.806 -29.323   8.557  0.00  0.00    +0.244 C 
ATOM     12  O   LIG    1       25.641 -28.200   8.117  0.00  0.00    -0.273 OA
ATOM     13  CA  LIG    1       26.460 -30.034   9.786  0.00  0.00    +0.191 C 
ATOM     14  CA  LIG    1       24.608 -30.991   7.050  0.00  0.00    +0.122 C 
BRANCH  14  15
ATOM     15  C   LIG    1       24.475 -30.184   5.774  0.00  0.00    +0.351 C 
ATOM     16  O   LIG    1       25.405 -29.983   5.006  0.00  0.00    -0.244 OA
BRANCH  15  17
ATOM     17  OXT LIG    1       23.274 -29.633   5.521  0.00  0.00    -0.476 OA
ATOM     18  HXT LIG    1       22.882 -29.757   4.629  0.00  0.00    +0.295 HD
ENDBRANCH  15  17
ENDBRANCH  14  15
ENDBRANCH   1  13
BRANCH   3  19
ATOM     19  CA  LIG    1       25.386 -28.481  13.188  0.00  0.00    +0.168 C 
BRANCH  19  20
ATOM     20  C   LIG    1       23.936 -28.029  13.078  0.00  0.00    -0.022 A 
ATOM     21  C   LIG    1       22.930 -28.919  12.664  0.00  0.00    +0.009 A 
ATOM     22  C   LIG    1       21.597 -28.510  12.586  0.00  0.00    +0.045 A 
ATOM     23  C   LIG    1       21.250 -27.214  12.938  0.00  0.00    +0.117 A 
ATOM     24  C   LIG    1       22.221 -26.309  13.351  0.00  0.00    +0.045 A 
ATOM     25  C   LIG    1       23.561 -26.715  13.421  0.00  0.00    +0.009 A 
BRANCH  23  26
ATOM     26  O   LIG    1       19.933 -26.871  12.867  0.00  0.00    -0.507 OA
ATOM     27  H   LIG    1       19.809 -26.257  12.125  0.00  0.00    +0.292 HD
ENDBRANCH  23  26
ENDBRANCH  19  20
BRANCH  19  28
ATOM     28  N   LIG    1       25.483 -29.781  13.907  0.00  0.00    -0.316 NA
ATOM     29  H1  LIG    1       25.034 -29.666  14.816  0.00  0.00    +0.119 HD
ATOM     30  H2  LIG    1       24.892 -30.456  13.423  0.00  0.00    +0.119 HD
ENDBRANCH  19  28
ENDBRANCH   3  19
TORSDOF 7
ENDMDL
MODEL 6
REMARK VINA RESULT:      -6.4      5.382      9.183
REMARK  Name = *****
REMARK                            x       y       z     vdW  Elec       q    Type
REMARK                         _______ _______ _______ _____ _____    ______ ____
ROOT
ATOM      1  N   LIG    1       24.700 -21.565   5.851  0.00  0.00    -0.300 N 
ATOM      2  H   LIG    1       25.153 -22.148   5.149  0.00  0.00    +0.150 HD
ATOM      3  C   LIG    1       23.685 -22.159   6.579  0.00  0.00    +0.235 C 
ATOM      4  O   LIG    1       23.191 -21.609   7.560  0.00  0.00    -0.274 OA
ENDROOT
BRANCH   1  13
ATOM      5  C   LIG    1       30.787 -20.387   7.762  0.00  0.00    +0.042 C 
ATOM      6  C   LIG    1       29.313 -20.466   7.400  0.00  0.00    -0.034 C 
ATOM      7  C   LIG    1       28.625 -21.465   8.321  0.00  0.00    +0.103 C 
ATOM      8  S   LIG    1       26.936 -21.942   7.887  0.00  0.00    -0.131 S 
ATOM      9  C   LIG    1       26.462 -20.307   7.288  0.00  0.00    +0.169 C 
ATOM     10  N   LIG    1       27.360 -19.953   6.207  0.00  0.00    -0.249 N 
ATOM     11  C   LIG    1       26.408 -19.709   5.290  0.00  0.00    +0.244 C 
ATOM     12  O   LIG    1       26.526 -19.296   4.151  0.00  0.00    -0.273 OA
ATOM     13  CA  LIG    1       25.301 -20.267   6.243  0.00  0.00    +0.191 C 
ATOM     14  CA  LIG    1       28.704 -19.782   6.391  0.00  0.00    +0.122 C 
BRANCH  14  15
ATOM     15  C   LIG    1       29.475 -18.817   5.514  0.00  0.00    +0.351 C 
ATOM     16  O   LIG    1       30.697 -18.773   5.473  0.00  0.00    -0.244 OA
BRANCH  15  17
ATOM     17  OXT LIG    1       28.755 -17.942   4.787  0.00  0.00    -0.476 OA
ATOM     18  HXT LIG    1       28.236 -17.257   5.262  0.00  0.00    +0.295 HD
ENDBRANCH  15  17
ENDBRANCH  14  15
ENDBRANCH   1  13
BRANCH   3  19
ATOM     19  CA  LIG    1       23.204 -23.538   6.033  0.00  0.00    +0.168 C 
BRANCH  19  20
ATOM     20  C   LIG    1       24.334 -24.549   5.892  0.00  0.00    -0.022 A 
ATOM     21  C   LIG    1       24.627 -25.139   4.652  0.00  0.00    +0.009 A 
ATOM     22  C   LIG    1       25.678 -26.048   4.518  0.00  0.00    +0.045 A 
ATOM     23  C   LIG    1       26.462 -26.364   5.619  0.00  0.00    +0.117 A 
ATOM     24  C   LIG    1       26.198 -25.799   6.861  0.00  0.00    +0.045 A 
ATOM     25  C   LIG    1       25.137 -24.893   6.998  0.00  0.00    +0.009 A 
BRANCH  23  26
ATOM     26  O   LIG    1       27.490 -27.239   5.432  0.00  0.00    -0.507 OA
ATOM     27  H   LIG    1       27.462 -27.565   4.518  0.00  0.00    +0.292 HD
ENDBRANCH  23  26
ENDBRANCH  19  20
BRANCH  19  28
ATOM     28  N   LIG    1       22.119 -24.073   6.900  0.00  0.00    -0.316 NA
ATOM     29  H1  LIG    1       21.667 -24.837   6.395  0.00  0.00    +0.119 HD
ATOM     30  H2  LIG    1       22.550 -24.530   7.703  0.00  0.00    +0.119 HD
ENDBRANCH  19  28
ENDBRANCH   3  19
TORSDOF 7
ENDMDL
MODEL 7
REMARK VINA RESULT:      -6.3      6.344      9.236
REMARK  Name = *****
REMARK                            x       y       z     vdW  Elec       q    Type
REMARK                         _______ _______ _______ _____ _____    ______ ____
ROOT
ATOM      1  N   LIG    1       27.829 -20.858   7.685  0.00  0.00    -0.300 N 
ATOM      2  H   LIG    1       27.366 -20.079   7.220  0.00  0.00    +0.150 HD
ATOM      3  C   LIG    1       29.151 -20.661   8.041  0.00  0.00    +0.235 C 
ATOM      4  O   LIG    1       29.751 -21.461   8.754  0.00  0.00    -0.274 OA
ENDROOT
BRANCH   1  13
ATOM      5  C   LIG    1       21.817 -22.618   5.998  0.00  0.00    +0.042 C 
ATOM      6  C   LIG    1       23.196 -22.336   6.569  0.00  0.00    -0.034 C 
ATOM      7  C   LIG    1       23.223 -20.923   7.138  0.00  0.00    +0.103 C 
ATOM      8  S   LIG    1       24.841 -20.264   7.603  0.00  0.00    -0.131 S 
ATOM      9  C   LIG    1       25.481 -21.837   8.212  0.00  0.00    +0.169 C 
ATOM     10  N   LIG    1       25.431 -22.789   7.121  0.00  0.00    -0.249 N 
ATOM     11  C   LIG    1       26.728 -23.135   7.160  0.00  0.00    +0.244 C 
ATOM     12  O   LIG    1       27.320 -23.976   6.507  0.00  0.00    -0.273 OA
ATOM     13  CA  LIG    1       27.034 -22.003   8.192  0.00  0.00    +0.191 C 
ATOM     14  CA  LIG    1       24.257 -23.191   6.547  0.00  0.00    +0.122 C 
BRANCH  14  15
ATOM     15  C   LIG    1       24.140 -24.577   5.944  0.00  0.00    +0.351 C 
ATOM     16  O   LIG    1       23.581 -25.509   6.503  0.00  0.00    -0.244 OA
BRANCH  15  17
ATOM     17  OXT LIG    1       24.732 -24.776   4.751  0.00  0.00    -0.476 OA
ATOM     18  HXT LIG    1       25.043 -23.992   4.249  0.00  0.00    +0.295 HD
ENDBRANCH  15  17
ENDBRANCH  14  15
ENDBRANCH   1  13
BRANCH   3  19
ATOM     19  CA  LIG    1       29.812 -19.385   7.436  0.00  0.00    +0.168 C 
BRANCH  19  20
ATOM     20  C   LIG    1       30.435 -18.481   8.492  0.00  0.00    -0.022 A 
ATOM     21  C   LIG    1       31.751 -18.010   8.357  0.00  0.00    +0.009 A 
ATOM     22  C   LIG    1       32.313 -17.162   9.314  0.00  0.00    +0.045 A 
ATOM     23  C   LIG    1       31.560 -16.759  10.407  0.00  0.00    +0.117 A 
ATOM     24  C   LIG    1       30.254 -17.208  10.571  0.00  0.00    +0.045 A 
ATOM     25  C   LIG    1       29.693 -18.067   9.616  0.00  0.00    +0.009 A 
BRANCH  23  26
ATOM     26  O   LIG    1       32.146 -15.913  11.301  0.00  0.00    -0.507 OA
ATOM     27  H   LIG    1       31.468 -15.592  11.919  0.00  0.00    +0.292 HD
ENDBRANCH  23  26
ENDBRANCH  19  20
BRANCH  19  28
ATOM     28  N   LIG    1       30.819 -19.775   6.412  0.00  0.00    -0.316 NA
ATOM     29  H1  LIG    1       30.313 -20.047   5.568  0.00  0.00    +0.119 HD
ATOM     30  H2  LIG    1       31.330 -18.937   6.134  0.00  0.00    +0.119 HD
ENDBRANCH  19  28
ENDBRANCH   3  19
TORSDOF 7
ENDMDL
MODEL 8
REMARK VINA RESULT:      -6.1      2.943      4.312
REMARK  Name = *****
REMARK                            x       y       z     vdW  Elec       q    Type
REMARK                         _______ _______ _______ _____ _____    ______ ____
ROOT
ATOM      1  N   LIG    1       25.179 -27.648   6.873  0.00  0.00    -0.300 N 
ATOM      2  H   LIG    1       26.190 -27.560   6.953  0.00  0.00    +0.150 HD
ATOM      3  C   LIG    1       24.542 -26.707   6.086  0.00  0.00    +0.235 C 
ATOM      4  O   LIG    1       23.357 -26.817   5.782  0.00  0.00    -0.274 OA
ENDROOT
BRANCH   1  13
ATOM      5  C   LIG    1       26.982 -33.814   5.967  0.00  0.00    +0.042 C 
ATOM      6  C   LIG    1       26.362 -32.452   6.232  0.00  0.00    -0.034 C 
ATOM      7  C   LIG    1       26.138 -31.738   4.906  0.00  0.00    +0.103 C 
ATOM      8  S   LIG    1       25.686 -29.990   4.989  0.00  0.00    -0.131 S 
ATOM      9  C   LIG    1       24.667 -30.163   6.469  0.00  0.00    +0.169 C 
ATOM     10  N   LIG    1       25.506 -30.692   7.526  0.00  0.00    -0.249 N 
ATOM     11  C   LIG    1       25.262 -29.717   8.418  0.00  0.00    +0.244 C 
ATOM     12  O   LIG    1       25.641 -29.618   9.571  0.00  0.00    -0.273 OA
ATOM     13  CA  LIG    1       24.497 -28.879   7.343  0.00  0.00    +0.191 C 
ATOM     14  CA  LIG    1       26.081 -31.931   7.459  0.00  0.00    +0.122 C 
BRANCH  14  15
ATOM     15  C   LIG    1       26.353 -32.712   8.730  0.00  0.00    +0.351 C 
ATOM     16  O   LIG    1       25.686 -33.674   9.084  0.00  0.00    -0.244 OA
BRANCH  15  17
ATOM     17  OXT LIG    1       27.356 -32.275   9.513  0.00  0.00    -0.476 OA
ATOM     18  HXT LIG    1       28.092 -32.893   9.717  0.00  0.00    +0.295 HD
ENDBRANCH  15  17
ENDBRANCH  14  15
ENDBRANCH   1  13
BRANCH   3  19
ATOM     19  CA  LIG    1       25.428 -25.496   5.661  0.00  0.00    +0.168 C 
BRANCH  19  20
ATOM     20  C   LIG    1       24.979 -24.182   6.286  0.00  0.00    -0.022 A 
ATOM     21  C   LIG    1       25.913 -23.205   6.669  0.00  0.00    +0.009 A 
ATOM     22  C   LIG    1       25.499 -21.991   7.220  0.00  0.00    +0.045 A 
ATOM     23  C   LIG    1       24.146 -21.730   7.379  0.00  0.00    +0.117 A 
ATOM     24  C   LIG    1       23.195 -22.676   7.011  0.00  0.00    +0.045 A 
ATOM     25  C   LIG    1       23.610 -23.898   6.466  0.00  0.00    +0.009 A 
BRANCH  23  26
ATOM     26  O   LIG    1       23.792 -20.522   7.900  0.00  0.00    -0.507 OA
ATOM     27  H   LIG    1       24.586 -19.968   7.975  0.00  0.00    +0.292 HD
ENDBRANCH  23  26
ENDBRANCH  19  20
BRANCH  19  28
ATOM     28  N   LIG    1       26.854 -25.775   5.983  0.00  0.00    -0.316 NA
ATOM     29  H1  LIG    1       26.974 -25.652   6.989  0.00  0.00    +0.119 HD
ATOM     30  H2  LIG    1       27.024 -26.769   5.834  0.00  0.00    +0.119 HD
ENDBRANCH  19  28
ENDBRANCH   3  19
TORSDOF 7
ENDMDL
MODEL 9
REMARK VINA RESULT:      -6.0      2.116      2.876
REMARK  Name = *****
REMARK                            x       y       z     vdW  Elec       q    Type
REMARK                         _______ _______ _______ _____ _____    ______ ____
ROOT
ATOM      1  N   LIG    1       24.495 -30.607   9.489  0.00  0.00    -0.300 N 
ATOM      2  H   LIG    1       25.412 -30.167   9.531  0.00  0.00    +0.150 HD
ATOM      3  C   LIG    1       24.117 -31.121   8.262  0.00  0.00    +0.235 C 
ATOM      4  O   LIG    1       23.115 -31.820   8.138  0.00  0.00    -0.274 OA
ENDROOT
BRANCH   1  13
ATOM      5  C   LIG    1       22.939 -26.582  14.333  0.00  0.00    +0.042 C 
ATOM      6  C   LIG    1       23.260 -27.687  13.341  0.00  0.00    -0.034 C 
ATOM      7  C   LIG    1       24.768 -27.749  13.132  0.00  0.00    +0.103 C 
ATOM      8  S   LIG    1       25.359 -28.787  11.776  0.00  0.00    -0.131 S 
ATOM      9  C   LIG    1       24.104 -30.065  12.000  0.00  0.00    +0.169 C 
ATOM     10  N   LIG    1       22.805 -29.441  11.852  0.00  0.00    -0.249 N 
ATOM     11  C   LIG    1       22.351 -30.259  10.888  0.00  0.00    +0.244 C 
ATOM     12  O   LIG    1       21.253 -30.293  10.362  0.00  0.00    -0.273 OA
ATOM     13  CA  LIG    1       23.760 -30.920  10.738  0.00  0.00    +0.191 C 
ATOM     14  CA  LIG    1       22.349 -28.477  12.707  0.00  0.00    +0.122 C 
BRANCH  14  15
ATOM     15  C   LIG    1       20.863 -28.332  12.968  0.00  0.00    +0.351 C 
ATOM     16  O   LIG    1       20.201 -29.166  13.570  0.00  0.00    -0.244 OA
BRANCH  15  17
ATOM     17  OXT LIG    1       20.256 -27.243  12.459  0.00  0.00    -0.476 OA
ATOM     18  HXT LIG    1       19.293 -27.290  12.274  0.00  0.00    +0.295 HD
ENDBRANCH  15  17
ENDBRANCH  14  15
ENDBRANCH   1  13
BRANCH   3  19
ATOM     19  CA  LIG    1       25.031 -30.709   7.067  0.00  0.00    +0.168 C 
BRANCH  19  20
ATOM     20  C   LIG    1       25.050 -29.206   6.823  0.00  0.00    -0.022 A 
ATOM     21  C   LIG    1       25.914 -28.367   7.547  0.00  0.00    +0.009 A 
ATOM     22  C   LIG    1       25.948 -26.992   7.307  0.00  0.00    +0.045 A 
ATOM     23  C   LIG    1       25.134 -26.441   6.328  0.00  0.00    +0.117 A 
ATOM     24  C   LIG    1       24.268 -27.244   5.594  0.00  0.00    +0.045 A 
ATOM     25  C   LIG    1       24.226 -28.623   5.841  0.00  0.00    +0.009 A 
BRANCH  23  26
ATOM     26  O   LIG    1       25.221 -25.098   6.115  0.00  0.00    -0.507 OA
ATOM     27  H   LIG    1       24.348 -24.765   5.853  0.00  0.00    +0.292 HD
ENDBRANCH  23  26
ENDBRANCH  19  20
BRANCH  19  28
ATOM     28  N   LIG    1       26.408 -31.230   7.281  0.00  0.00    -0.316 NA
ATOM     29  H1  LIG    1       27.042 -30.430   7.297  0.00  0.00    +0.119 HD
ATOM     30  H2  LIG    1       26.462 -31.606   8.227  0.00  0.00    +0.119 HD
ENDBRANCH  19  28
ENDBRANCH   3  19
TORSDOF 7
ENDMDL
