MODEL 1
REMARK VINA RESULT:      -5.6      0.000      0.000
REMARK  Name = *****
REMARK                            x       y       z     vdW  Elec       q    Type
REMARK                         _______ _______ _______ _____ _____    ______ ____
ROOT
ATOM      1  C   LIG    1       22.338 -18.617   4.495  0.00  0.00    +0.084 C 
ATOM      2  C   LIG    1       21.029 -18.562   3.687  0.00  0.00    +0.027 C 
ENDROOT
BRANCH   1   3
ATOM      3  N   LIG    1       23.159 -17.482   3.958  0.00  0.00    -0.308 NA
ATOM      4  H   LIG    1       24.126 -17.819   3.913  0.00  0.00    +0.122 HD
BRANCH   3   6
ATOM      5  C   LIG    1       21.970 -16.135   5.686  0.00  0.00    +0.024 C 
ATOM      6  C   LIG    1       23.159 -16.229   4.730  0.00  0.00    +0.051 C 
BRANCH   6   7
ATOM      7  C   LIG    1       23.211 -14.976   3.803  0.00  0.00    +0.023 C 
BRANCH   7   8
ATOM      8  C   LIG    1       23.902 -13.728   4.376  0.00  0.00    +0.036 C 
BRANCH   8   9
ATOM      9  C   LIG    1       25.399 -13.713   4.114  0.00  0.00    -0.047 A 
ATOM     10  C   LIG    1       26.305 -13.363   5.126  0.00  0.00    +0.003 A 
ATOM     11  C   LIG    1       27.684 -13.377   4.886  0.00  0.00    +0.000 A 
ATOM     12  C   LIG    1       28.174 -13.733   3.631  0.00  0.00    +0.000 A 
ATOM     13  C   LIG    1       27.284 -14.068   2.613  0.00  0.00    +0.000 A 
ATOM     14  C   LIG    1       25.907 -14.056   2.852  0.00  0.00    +0.003 A 
ENDBRANCH   8   9
ENDBRANCH   7   8
ENDBRANCH   6   7
ENDBRANCH   3   6
ENDBRANCH   1   3
BRANCH   1  15
ATOM     15  C   LIG    1       22.997 -20.040   4.407  0.00  0.00    +0.161 C 
BRANCH  15  16
ATOM     16  C   LIG    1       24.331 -20.220   5.140  0.00  0.00    -0.018 A 
ATOM     17  C   LIG    1       25.538 -19.862   4.522  0.00  0.00    +0.010 A 
ATOM     18  C   LIG    1       26.769 -20.086   5.148  0.00  0.00    +0.046 A 
ATOM     19  C   LIG    1       26.809 -20.670   6.417  0.00  0.00    +0.117 A 
ATOM     20  C   LIG    1       25.633 -21.012   7.062  0.00  0.00    +0.046 A 
ATOM     21  C   LIG    1       24.402 -20.786   6.435  0.00  0.00    +0.010 A 
BRANCH  19  22
ATOM     22  O   LIG    1       28.024 -20.886   6.980  0.00  0.00    -0.507 OA
ATOM     23  H   LIG    1       28.721 -20.715   6.325  0.00  0.00    +0.292 HD
ENDBRANCH  19  22
ENDBRANCH  15  16
BRANCH  15  24
ATOM     24  O   LIG    1       22.050 -21.031   4.824  0.00  0.00    -0.386 OA
ATOM     25  H   LIG    1       21.371 -21.086   4.129  0.00  0.00    +0.210 HD
ENDBRANCH  15  24
ENDBRANCH   1  15
TORSDOF 9
ENDMDL
MODEL 2
REMARK VINA RESULT:      -4.8      2.635      6.008
REMARK  Name = *****
REMARK                            x       y       z     vdW  Elec       q    Type
REMARK                         _______ _______ _______ _____ _____    ______ ____
ROOT
ATOM      1  C   LIG    1       24.095 -13.367   3.917  0.00  0.00    +0.084 C 
ATOM      2  C   LIG    1       23.867 -12.019   4.624  0.00  0.00    +0.027 C 
ENDROOT
BRANCH   1   3
ATOM      3  N   LIG    1       23.853 -14.396   4.982  0.00  0.00    -0.308 NA
ATOM      4  H   LIG    1       24.669 -15.016   4.977  0.00  0.00    +0.122 HD
BRANCH   3   6
ATOM      5  C   LIG    1       21.960 -15.488   6.181  0.00  0.00    +0.024 C 
ATOM      6  C   LIG    1       22.653 -15.237   4.843  0.00  0.00    +0.051 C 
BRANCH   6   7
ATOM      7  C   LIG    1       22.972 -16.590   4.134  0.00  0.00    +0.023 C 
BRANCH   7   8
ATOM      8  C   LIG    1       22.096 -17.792   4.525  0.00  0.00    +0.036 C 
BRANCH   8   9
ATOM      9  C   LIG    1       22.893 -19.078   4.664  0.00  0.00    -0.047 A 
ATOM     10  C   LIG    1       23.953 -19.368   3.792  0.00  0.00    +0.003 A 
ATOM     11  C   LIG    1       24.699 -20.542   3.942  0.00  0.00    +0.000 A 
ATOM     12  C   LIG    1       24.392 -21.445   4.958  0.00  0.00    +0.000 A 
ATOM     13  C   LIG    1       23.332 -21.176   5.821  0.00  0.00    +0.000 A 
ATOM     14  C   LIG    1       22.587 -20.003   5.673  0.00  0.00    +0.003 A 
ENDBRANCH   8   9
ENDBRANCH   7   8
ENDBRANCH   6   7
ENDBRANCH   3   6
ENDBRANCH   1   3
BRANCH   1  15
ATOM     15  C   LIG    1       25.506 -13.414   3.229  0.00  0.00    +0.161 C 
BRANCH  15  16
ATOM     16  C   LIG    1       26.383 -14.628   3.553  0.00  0.00    -0.018 A 
ATOM     17  C   LIG    1       26.027 -15.906   3.101  0.00  0.00    +0.010 A 
ATOM     18  C   LIG    1       26.778 -17.035   3.449  0.00  0.00    +0.046 A 
ATOM     19  C   LIG    1       27.910 -16.897   4.255  0.00  0.00    +0.117 A 
ATOM     20  C   LIG    1       28.300 -15.644   4.697  0.00  0.00    +0.046 A 
ATOM     21  C   LIG    1       27.550 -14.516   4.347  0.00  0.00    +0.010 A 
BRANCH  19  22
ATOM     22  O   LIG    1       28.599 -18.019   4.582  0.00  0.00    -0.507 OA
ATOM     23  H   LIG    1       28.558 -18.652   3.846  0.00  0.00    +0.292 HD
ENDBRANCH  19  22
ENDBRANCH  15  16
BRANCH  15  24
ATOM     24  O   LIG    1       25.350 -13.262   1.813  0.00  0.00    -0.386 OA
ATOM     25  H   LIG    1       26.140 -13.650   1.396  0.00  0.00    +0.210 HD
ENDBRANCH  15  24
ENDBRANCH   1  15
TORSDOF 9
ENDMDL
MODEL 3
REMARK VINA RESULT:      -4.2      3.072      7.730
REMARK  Name = *****
REMARK                            x       y       z     vdW  Elec       q    Type
REMARK                         _______ _______ _______ _____ _____    ______ ____
ROOT
ATOM      1  C   LIG    1       27.065 -16.652   3.341  0.00  0.00    +0.084 C 
ATOM      2  C   LIG    1       25.780 -17.122   4.046  0.00  0.00    +0.027 C 
ENDROOT
BRANCH   1   3
ATOM      3  N   LIG    1       28.092 -17.685   3.703  0.00  0.00    -0.308 NA
ATOM      4  H   LIG    1       28.014 -18.429   3.003  0.00  0.00    +0.122 HD
BRANCH   3   6
ATOM      5  C   LIG    1       29.262 -18.174   5.849  0.00  0.00    +0.024 C 
ATOM      6  C   LIG    1       27.978 -18.309   5.031  0.00  0.00    +0.051 C 
BRANCH   6   7
ATOM      7  C   LIG    1       27.550 -19.805   4.935  0.00  0.00    +0.023 C 
BRANCH   7   8
ATOM      8  C   LIG    1       26.859 -20.402   6.172  0.00  0.00    +0.036 C 
BRANCH   8   9
ATOM      9  C   LIG    1       25.369 -20.616   5.966  0.00  0.00    -0.047 A 
ATOM     10  C   LIG    1       24.809 -20.609   4.679  0.00  0.00    +0.003 A 
ATOM     11  C   LIG    1       23.441 -20.833   4.495  0.00  0.00    +0.000 A 
ATOM     12  C   LIG    1       22.612 -21.060   5.593  0.00  0.00    +0.000 A 
ATOM     13  C   LIG    1       23.152 -21.054   6.877  0.00  0.00    +0.000 A 
ATOM     14  C   LIG    1       24.520 -20.832   7.062  0.00  0.00    +0.003 A 
ENDBRANCH   8   9
ENDBRANCH   7   8
ENDBRANCH   6   7
ENDBRANCH   3   6
ENDBRANCH   1   3
BRANCH   1  15
ATOM     15  C   LIG    1       27.417 -15.172   3.732  0.00  0.00    +0.161 C 
BRANCH  15  16
ATOM     16  C   LIG    1       26.313 -14.130   3.524  0.00  0.00    -0.018 A 
ATOM     17  C   LIG    1       25.549 -13.675   4.608  0.00  0.00    +0.010 A 
ATOM     18  C   LIG    1       24.490 -12.779   4.425  0.00  0.00    +0.046 A 
ATOM     19  C   LIG    1       24.183 -12.316   3.143  0.00  0.00    +0.117 A 
ATOM     20  C   LIG    1       24.935 -12.729   2.056  0.00  0.00    +0.046 A 
ATOM     21  C   LIG    1       25.995 -13.625   2.241  0.00  0.00    +0.010 A 
BRANCH  19  22
ATOM     22  O   LIG    1       23.138 -11.461   3.007  0.00  0.00    -0.507 OA
ATOM     23  H   LIG    1       23.233 -10.730   3.641  0.00  0.00    +0.292 HD
ENDBRANCH  19  22
ENDBRANCH  15  16
BRANCH  15  24
ATOM     24  O   LIG    1       27.901 -15.139   5.081  0.00  0.00    -0.386 OA
ATOM     25  H   LIG    1       28.003 -14.202   5.324  0.00  0.00    +0.210 HD
ENDBRANCH  15  24
ENDBRANCH   1  15
TORSDOF 9
ENDMDL
MODEL 4
REMARK VINA RESULT:      -4.0      2.139      3.867
REMARK  Name = *****
REMARK                            x       y       z     vdW  Elec       q    Type
REMARK                         _______ _______ _______ _____ _____    ______ ____
ROOT
ATOM      1  C   LIG    1       23.639 -14.967   4.231  0.00  0.00    +0.084 C 
ATOM      2  C   LIG    1       23.893 -14.153   5.512  0.00  0.00    +0.027 C 
ENDROOT
BRANCH   1   3
ATOM      3  N   LIG    1       23.364 -13.935   3.178  0.00  0.00    -0.308 NA
ATOM      4  H   LIG    1       23.186 -14.448   2.309  0.00  0.00    +0.122 HD
BRANCH   3   6
ATOM      5  C   LIG    1       23.866 -11.592   2.490  0.00  0.00    +0.024 C 
ATOM      6  C   LIG    1       24.425 -12.952   2.906  0.00  0.00    +0.051 C 
BRANCH   6   7
ATOM      7  C   LIG    1       25.439 -13.472   1.842  0.00  0.00    +0.023 C 
BRANCH   7   8
ATOM      8  C   LIG    1       26.604 -14.328   2.364  0.00  0.00    +0.036 C 
BRANCH   8   9
ATOM      9  C   LIG    1       27.359 -13.661   3.502  0.00  0.00    -0.047 A 
ATOM     10  C   LIG    1       28.453 -12.821   3.247  0.00  0.00    +0.003 A 
ATOM     11  C   LIG    1       29.127 -12.188   4.298  0.00  0.00    +0.000 A 
ATOM     12  C   LIG    1       28.722 -12.393   5.616  0.00  0.00    +0.000 A 
ATOM     13  C   LIG    1       27.646 -13.237   5.884  0.00  0.00    +0.000 A 
ATOM     14  C   LIG    1       26.971 -13.868   4.834  0.00  0.00    +0.003 A 
ENDBRANCH   8   9
ENDBRANCH   7   8
ENDBRANCH   6   7
ENDBRANCH   3   6
ENDBRANCH   1   3
BRANCH   1  15
ATOM     15  C   LIG    1       22.509 -16.036   4.454  0.00  0.00    +0.161 C 
BRANCH  15  16
ATOM     16  C   LIG    1       22.920 -17.504   4.304  0.00  0.00    -0.018 A 
ATOM     17  C   LIG    1       22.092 -18.529   4.782  0.00  0.00    +0.010 A 
ATOM     18  C   LIG    1       22.484 -19.870   4.718  0.00  0.00    +0.046 A 
ATOM     19  C   LIG    1       23.720 -20.208   4.162  0.00  0.00    +0.117 A 
ATOM     20  C   LIG    1       24.550 -19.220   3.659  0.00  0.00    +0.046 A 
ATOM     21  C   LIG    1       24.155 -17.879   3.723  0.00  0.00    +0.010 A 
BRANCH  19  22
ATOM     22  O   LIG    1       24.069 -21.519   4.135  0.00  0.00    -0.507 OA
ATOM     23  H   LIG    1       23.898 -21.882   3.249  0.00  0.00    +0.292 HD
ENDBRANCH  19  22
ENDBRANCH  15  16
BRANCH  15  24
ATOM     24  O   LIG    1       21.884 -15.809   5.723  0.00  0.00    -0.386 OA
ATOM     25  H   LIG    1       22.537 -15.357   6.286  0.00  0.00    +0.210 HD
ENDBRANCH  15  24
ENDBRANCH   1  15
TORSDOF 9
ENDMDL
MODEL 5
REMARK VINA RESULT:      -3.8      3.033      7.170
REMARK  Name = *****
REMARK                            x       y       z     vdW  Elec       q    Type
REMARK                         _______ _______ _______ _____ _____    ______ ____
ROOT
ATOM      1  C   LIG    1       26.198 -16.967   3.296  0.00  0.00    +0.084 C 
ATOM      2  C   LIG    1       25.293 -18.199   3.469  0.00  0.00    +0.027 C 
ENDROOT
BRANCH   1   3
ATOM      3  N   LIG    1       27.576 -17.463   3.622  0.00  0.00    -0.308 NA
ATOM      4  H   LIG    1       27.844 -18.096   2.862  0.00  0.00    +0.122 HD
BRANCH   3   6
ATOM      5  C   LIG    1       29.143 -18.014   5.481  0.00  0.00    +0.024 C 
ATOM      6  C   LIG    1       27.745 -18.191   4.890  0.00  0.00    +0.051 C 
BRANCH   6   7
ATOM      7  C   LIG    1       27.407 -19.706   4.738  0.00  0.00    +0.023 C 
BRANCH   7   8
ATOM      8  C   LIG    1       26.885 -20.422   5.995  0.00  0.00    +0.036 C 
BRANCH   8   9
ATOM      9  C   LIG    1       25.397 -20.719   5.926  0.00  0.00    -0.047 A 
ATOM     10  C   LIG    1       24.582 -20.594   7.062  0.00  0.00    +0.003 A 
ATOM     11  C   LIG    1       23.208 -20.844   6.984  0.00  0.00    +0.000 A 
ATOM     12  C   LIG    1       22.631 -21.229   5.776  0.00  0.00    +0.000 A 
ATOM     13  C   LIG    1       23.431 -21.371   4.644  0.00  0.00    +0.000 A 
ATOM     14  C   LIG    1       24.804 -21.120   4.720  0.00  0.00    +0.003 A 
ENDBRANCH   8   9
ENDBRANCH   7   8
ENDBRANCH   6   7
ENDBRANCH   3   6
ENDBRANCH   1   3
BRANCH   1  15
ATOM     15  C   LIG    1       25.684 -15.760   4.161  0.00  0.00    +0.161 C 
BRANCH  15  16
ATOM     16  C   LIG    1       26.652 -14.586   4.339  0.00  0.00    -0.018 A 
ATOM     17  C   LIG    1       27.521 -14.216   3.303  0.00  0.00    +0.010 A 
ATOM     18  C   LIG    1       28.460 -13.193   3.474  0.00  0.00    +0.046 A 
ATOM     19  C   LIG    1       28.538 -12.515   4.693  0.00  0.00    +0.117 A 
ATOM     20  C   LIG    1       27.677 -12.842   5.726  0.00  0.00    +0.046 A 
ATOM     21  C   LIG    1       26.736 -13.865   5.553  0.00  0.00    +0.010 A 
BRANCH  19  22
ATOM     22  O   LIG    1       29.475 -11.542   4.822  0.00  0.00    -0.507 OA
ATOM     23  H   LIG    1       29.816 -11.538   5.732  0.00  0.00    +0.292 HD
ENDBRANCH  19  22
ENDBRANCH  15  16
BRANCH  15  24
ATOM     24  O   LIG    1       24.425 -15.309   3.647  0.00  0.00    -0.386 OA
ATOM     25  H   LIG    1       24.485 -14.342   3.553  0.00  0.00    +0.210 HD
ENDBRANCH  15  24
ENDBRANCH   1  15
TORSDOF 9
ENDMDL
MODEL 6
REMARK VINA RESULT:      -3.7      1.546      2.735
REMARK  Name = *****
REMARK                            x       y       z     vdW  Elec       q    Type
REMARK                         _______ _______ _______ _____ _____    ______ ____
ROOT
ATOM      1  C   LIG    1       22.817 -16.006   4.732  0.00  0.00    +0.084 C 
ATOM      2  C   LIG    1       21.740 -15.695   5.786  0.00  0.00    +0.027 C 
ENDROOT
BRANCH   1   3
ATOM      3  N   LIG    1       22.828 -14.801   3.838  0.00  0.00    -0.308 NA
ATOM      4  H   LIG    1       22.597 -15.135   2.897  0.00  0.00    +0.122 HD
BRANCH   3   6
ATOM      5  C   LIG    1       23.869 -12.607   3.277  0.00  0.00    +0.024 C 
ATOM      6  C   LIG    1       24.087 -14.045   3.746  0.00  0.00    +0.051 C 
BRANCH   6   7
ATOM      7  C   LIG    1       25.129 -14.762   2.834  0.00  0.00    +0.023 C 
BRANCH   7   8
ATOM      8  C   LIG    1       26.400 -15.285   3.523  0.00  0.00    +0.036 C 
BRANCH   8   9
ATOM      9  C   LIG    1       27.282 -14.167   4.055  0.00  0.00    -0.047 A 
ATOM     10  C   LIG    1       27.122 -13.681   5.361  0.00  0.00    +0.003 A 
ATOM     11  C   LIG    1       27.955 -12.670   5.853  0.00  0.00    +0.000 A 
ATOM     12  C   LIG    1       28.952 -12.127   5.046  0.00  0.00    +0.000 A 
ATOM     13  C   LIG    1       29.112 -12.590   3.742  0.00  0.00    +0.000 A 
ATOM     14  C   LIG    1       28.281 -13.601   3.249  0.00  0.00    +0.003 A 
ENDBRANCH   8   9
ENDBRANCH   7   8
ENDBRANCH   6   7
ENDBRANCH   3   6
ENDBRANCH   1   3
BRANCH   1  15
ATOM     15  C   LIG    1       22.536 -17.380   4.024  0.00  0.00    +0.161 C 
BRANCH  15  16
ATOM     16  C   LIG    1       23.486 -18.532   4.370  0.00  0.00    -0.018 A 
ATOM     17  C   LIG    1       23.134 -19.479   5.341  0.00  0.00    +0.010 A 
ATOM     18  C   LIG    1       24.019 -20.495   5.719  0.00  0.00    +0.046 A 
ATOM     19  C   LIG    1       25.278 -20.581   5.119  0.00  0.00    +0.117 A 
ATOM     20  C   LIG    1       25.644 -19.674   4.139  0.00  0.00    +0.046 A 
ATOM     21  C   LIG    1       24.757 -18.660   3.761  0.00  0.00    +0.010 A 
BRANCH  19  22
ATOM     22  O   LIG    1       26.112 -21.571   5.528  0.00  0.00    -0.507 OA
ATOM     23  H   LIG    1       26.188 -21.551   6.496  0.00  0.00    +0.292 HD
ENDBRANCH  19  22
ENDBRANCH  15  16
BRANCH  15  24
ATOM     24  O   LIG    1       21.173 -17.760   4.247  0.00  0.00    -0.386 OA
ATOM     25  H   LIG    1       20.754 -17.038   4.747  0.00  0.00    +0.210 HD
ENDBRANCH  15  24
ENDBRANCH   1  15
TORSDOF 9
ENDMDL
MODEL 7
REMARK VINA RESULT:      -3.7      2.100      4.656
REMARK  Name = *****
REMARK                            x       y       z     vdW  Elec       q    Type
REMARK                         _______ _______ _______ _____ _____    ______ ____
ROOT
ATOM      1  C   LIG    1       26.052 -20.747   5.907  0.00  0.00    +0.084 C 
ATOM      2  C   LIG    1       25.037 -20.825   7.062  0.00  0.00    +0.027 C 
ENDROOT
BRANCH   1   3
ATOM      3  N   LIG    1       26.805 -19.473   6.153  0.00  0.00    -0.308 NA
ATOM      4  H   LIG    1       26.196 -18.711   5.839  0.00  0.00    +0.122 HD
BRANCH   3   6
ATOM      5  C   LIG    1       29.281 -19.619   6.396  0.00  0.00    +0.024 C 
ATOM      6  C   LIG    1       28.101 -19.318   5.473  0.00  0.00    +0.051 C 
BRANCH   6   7
ATOM      7  C   LIG    1       28.256 -17.902   4.837  0.00  0.00    +0.023 C 
BRANCH   7   8
ATOM      8  C   LIG    1       27.221 -17.513   3.769  0.00  0.00    +0.036 C 
BRANCH   8   9
ATOM      9  C   LIG    1       26.905 -16.027   3.772  0.00  0.00    -0.047 A 
ATOM     10  C   LIG    1       27.876 -15.083   4.138  0.00  0.00    +0.003 A 
ATOM     11  C   LIG    1       27.585 -13.714   4.114  0.00  0.00    +0.000 A 
ATOM     12  C   LIG    1       26.321 -13.272   3.730  0.00  0.00    +0.000 A 
ATOM     13  C   LIG    1       25.343 -14.200   3.378  0.00  0.00    +0.000 A 
ATOM     14  C   LIG    1       25.632 -15.567   3.401  0.00  0.00    +0.003 A 
ENDBRANCH   8   9
ENDBRANCH   7   8
ENDBRANCH   6   7
ENDBRANCH   3   6
ENDBRANCH   1   3
BRANCH   1  15
ATOM     15  C   LIG    1       25.334 -20.860   4.514  0.00  0.00    +0.161 C 
BRANCH  15  16
ATOM     16  C   LIG    1       23.991 -20.134   4.378  0.00  0.00    -0.018 A 
ATOM     17  C   LIG    1       22.789 -20.800   4.657  0.00  0.00    +0.010 A 
ATOM     18  C   LIG    1       21.552 -20.175   4.469  0.00  0.00    +0.046 A 
ATOM     19  C   LIG    1       21.500 -18.859   4.003  0.00  0.00    +0.117 A 
ATOM     20  C   LIG    1       22.671 -18.168   3.742  0.00  0.00    +0.046 A 
ATOM     21  C   LIG    1       23.908 -18.794   3.932  0.00  0.00    +0.010 A 
BRANCH  19  22
ATOM     22  O   LIG    1       20.279 -18.296   3.818  0.00  0.00    -0.507 OA
ATOM     23  H   LIG    1       20.371 -17.330   3.770  0.00  0.00    +0.292 HD
ENDBRANCH  19  22
ENDBRANCH  15  16
BRANCH  15  24
ATOM     24  O   LIG    1       26.238 -20.455   3.479  0.00  0.00    -0.386 OA
ATOM     25  H   LIG    1       26.888 -21.172   3.373  0.00  0.00    +0.210 HD
ENDBRANCH  15  24
ENDBRANCH   1  15
TORSDOF 9
ENDMDL
MODEL 8
REMARK VINA RESULT:      -3.5      2.512      5.576
REMARK  Name = *****
REMARK                            x       y       z     vdW  Elec       q    Type
REMARK                         _______ _______ _______ _____ _____    ______ ____
ROOT
ATOM      1  C   LIG    1       26.290 -13.753   4.299  0.00  0.00    +0.084 C 
ATOM      2  C   LIG    1       27.165 -13.256   5.464  0.00  0.00    +0.027 C 
ENDROOT
BRANCH   1   3
ATOM      3  N   LIG    1       25.113 -14.404   4.963  0.00  0.00    -0.308 NA
ATOM      4  H   LIG    1       25.481 -15.205   5.486  0.00  0.00    +0.122 HD
BRANCH   3   6
ATOM      5  C   LIG    1       23.329 -13.768   3.342  0.00  0.00    +0.024 C 
ATOM      6  C   LIG    1       24.038 -14.898   4.088  0.00  0.00    +0.051 C 
BRANCH   6   7
ATOM      7  C   LIG    1       23.003 -15.763   4.872  0.00  0.00    +0.023 C 
BRANCH   7   8
ATOM      8  C   LIG    1       22.232 -16.815   4.059  0.00  0.00    +0.036 C 
BRANCH   8   9
ATOM      9  C   LIG    1       22.681 -18.235   4.359  0.00  0.00    -0.047 A 
ATOM     10  C   LIG    1       22.489 -18.800   5.629  0.00  0.00    +0.003 A 
ATOM     11  C   LIG    1       22.881 -20.117   5.890  0.00  0.00    +0.000 A 
ATOM     12  C   LIG    1       23.477 -20.885   4.891  0.00  0.00    +0.000 A 
ATOM     13  C   LIG    1       23.688 -20.331   3.630  0.00  0.00    +0.000 A 
ATOM     14  C   LIG    1       23.295 -19.015   3.367  0.00  0.00    +0.003 A 
ENDBRANCH   8   9
ENDBRANCH   7   8
ENDBRANCH   6   7
ENDBRANCH   3   6
ENDBRANCH   1   3
BRANCH   1  15
ATOM     15  C   LIG    1       27.115 -14.664   3.321  0.00  0.00    +0.161 C 
BRANCH  15  16
ATOM     16  C   LIG    1       27.222 -16.146   3.696  0.00  0.00    -0.018 A 
ATOM     17  C   LIG    1       26.271 -17.068   3.239  0.00  0.00    +0.010 A 
ATOM     18  C   LIG    1       26.313 -18.411   3.631  0.00  0.00    +0.046 A 
ATOM     19  C   LIG    1       27.323 -18.854   4.489  0.00  0.00    +0.117 A 
ATOM     20  C   LIG    1       28.290 -17.972   4.938  0.00  0.00    +0.046 A 
ATOM     21  C   LIG    1       28.248 -16.629   4.543  0.00  0.00    +0.010 A 
BRANCH  19  22
ATOM     22  O   LIG    1       27.317 -20.160   4.857  0.00  0.00    -0.507 OA
ATOM     23  H   LIG    1       27.790 -20.261   5.701  0.00  0.00    +0.292 HD
ENDBRANCH  19  22
ENDBRANCH  15  16
BRANCH  15  24
ATOM     24  O   LIG    1       26.609 -14.512   1.989  0.00  0.00    -0.386 OA
ATOM     25  H   LIG    1       26.376 -13.573   1.878  0.00  0.00    +0.210 HD
ENDBRANCH  15  24
ENDBRANCH   1  15
TORSDOF 9
ENDMDL
MODEL 9
REMARK VINA RESULT:      -3.3      2.657      6.791
REMARK  Name = *****
REMARK                            x       y       z     vdW  Elec       q    Type
REMARK                         _______ _______ _______ _____ _____    ______ ____
ROOT
ATOM      1  C   LIG    1       27.294 -19.107   5.183  0.00  0.00    +0.084 C 
ATOM      2  C   LIG    1       28.220 -20.042   5.982  0.00  0.00    +0.027 C 
ENDROOT
BRANCH   1   3
ATOM      3  N   LIG    1       26.499 -20.026   4.304  0.00  0.00    -0.308 NA
ATOM      4  H   LIG    1       25.897 -19.429   3.728  0.00  0.00    +0.122 HD
BRANCH   3   6
ATOM      5  C   LIG    1       24.561 -21.572   4.040  0.00  0.00    +0.024 C 
ATOM      6  C   LIG    1       25.637 -21.015   4.971  0.00  0.00    +0.051 C 
BRANCH   6   7
ATOM      7  C   LIG    1       24.989 -20.440   6.268  0.00  0.00    +0.023 C 
BRANCH   7   8
ATOM      8  C   LIG    1       23.493 -20.728   6.473  0.00  0.00    +0.036 C 
BRANCH   8   9
ATOM      9  C   LIG    1       22.610 -19.967   5.498  0.00  0.00    -0.047 A 
ATOM     10  C   LIG    1       22.800 -18.596   5.270  0.00  0.00    +0.003 A 
ATOM     11  C   LIG    1       22.000 -17.908   4.352  0.00  0.00    +0.000 A 
ATOM     12  C   LIG    1       20.995 -18.577   3.655  0.00  0.00    +0.000 A 
ATOM     13  C   LIG    1       20.786 -19.936   3.884  0.00  0.00    +0.000 A 
ATOM     14  C   LIG    1       21.586 -20.625   4.800  0.00  0.00    +0.003 A 
ENDBRANCH   8   9
ENDBRANCH   7   8
ENDBRANCH   6   7
ENDBRANCH   3   6
ENDBRANCH   1   3
BRANCH   1  15
ATOM     15  C   LIG    1       28.118 -17.993   4.442  0.00  0.00    +0.161 C 
BRANCH  15  16
ATOM     16  C   LIG    1       27.355 -16.719   4.064  0.00  0.00    -0.018 A 
ATOM     17  C   LIG    1       26.027 -16.787   3.622  0.00  0.00    +0.010 A 
ATOM     18  C   LIG    1       25.340 -15.641   3.206  0.00  0.00    +0.046 A 
ATOM     19  C   LIG    1       25.978 -14.398   3.233  0.00  0.00    +0.117 A 
ATOM     20  C   LIG    1       27.281 -14.296   3.688  0.00  0.00    +0.046 A 
ATOM     21  C   LIG    1       27.967 -15.443   4.106  0.00  0.00    +0.010 A 
BRANCH  19  22
ATOM     22  O   LIG    1       25.281 -13.316   2.805  0.00  0.00    -0.507 OA
ATOM     23  H   LIG    1       24.519 -13.168   3.390  0.00  0.00    +0.292 HD
ENDBRANCH  19  22
ENDBRANCH  15  16
BRANCH  15  24
ATOM     24  O   LIG    1       29.289 -17.680   5.205  0.00  0.00    -0.386 OA
ATOM     25  H   LIG    1       29.554 -16.776   4.960  0.00  0.00    +0.210 HD
ENDBRANCH  15  24
ENDBRANCH   1  15
TORSDOF 9
ENDMDL
