MODEL 1
REMARK VINA RESULT:      -7.8      0.000      0.000
REMARK  Name = *****
REMARK                            x       y       z     vdW  Elec       q    Type
REMARK                         _______ _______ _______ _____ _____    ______ ____
ROOT
ATOM      1  C   LIG    1       29.247 -18.996   6.319  0.00  0.00    +0.214 C 
ATOM      2  N   LIG    1       29.230 -18.985   7.685  0.00  0.00    -0.302 N 
ATOM      3  H   LIG    1       28.504 -19.538   8.126  0.00  0.00    +0.149 HD
ATOM      4  O   LIG    1       30.157 -18.500   5.640  0.00  0.00    -0.276 OA
ENDROOT
BRANCH   1   5
ATOM      5  C   LIG    1       28.039 -19.654   5.693  0.00  0.00    +0.096 C 
BRANCH   5   6
ATOM      6  C   LIG    1       27.439 -20.721   6.607  0.00  0.00    +0.009 C 
BRANCH   6   7
ATOM      7  C   LIG    1       25.950 -20.899   6.309  0.00  0.00    +0.000 C 
BRANCH   7   8
ATOM      8  C   LIG    1       25.080 -20.774   7.562  0.00  0.00    +0.000 C 
BRANCH   8   9
ATOM      9  C   LIG    1       23.582 -20.710   7.240  0.00  0.00    +0.000 C 
BRANCH   9  10
ATOM     10  C   LIG    1       23.153 -21.630   6.089  0.00  0.00    +0.000 C 
BRANCH  10  11
ATOM     11  C   LIG    1       22.280 -20.874   5.087  0.00  0.00    +0.004 C 
BRANCH  11  12
ATOM     12  C   LIG    1       22.493 -19.358   5.134  0.00  0.00    +0.026 C 
BRANCH  12  14
ATOM     13  C   LIG    1       24.494 -19.160   3.633  0.00  0.00    +0.004 C 
ATOM     14  C   LIG    1       23.205 -18.903   3.891  0.00  0.00    -0.035 C 
ENDBRANCH  12  14
ENDBRANCH  11  12
ENDBRANCH  10  11
ENDBRANCH   9  10
ENDBRANCH   8   9
ENDBRANCH   7   8
ENDBRANCH   6   7
ENDBRANCH   5   6
ENDBRANCH   1   5
BRANCH   2  15
ATOM     15  C   LIG    1       30.370 -18.575   8.520  0.00  0.00    +0.182 C 
BRANCH  15  16
ATOM     16  C   LIG    1       31.148 -19.818   8.996  0.00  0.00    +0.327 C 
ATOM     17  O   LIG    1       32.348 -19.835   9.240  0.00  0.00    -0.249 OA
BRANCH  16  18
ATOM     18  O   LIG    1       30.300 -20.908   9.066  0.00  0.00    -0.467 OA
ATOM     19  C   LIG    1       30.956 -22.167   9.206  0.00  0.00    +0.280 C 
ENDBRANCH  16  18
ENDBRANCH  15  16
BRANCH  15  20
ATOM     20  C   LIG    1       29.940 -17.703   9.708  0.00  0.00    +0.036 C 
BRANCH  20  21
ATOM     21  C   LIG    1       30.950 -16.656  10.249  0.00  0.00    -0.015 C 
ATOM     22  C   LIG    1       32.133 -16.395   9.318  0.00  0.00    +0.007 C 
ATOM     23  C   LIG    1       31.513 -17.101  11.605  0.00  0.00    +0.007 C 
ENDBRANCH  20  21
ENDBRANCH  15  20
ENDBRANCH   2  15
TORSDOF 14
ENDMDL
MODEL 2
REMARK VINA RESULT:      -7.7      1.236      1.539
REMARK  Name = *****
REMARK                            x       y       z     vdW  Elec       q    Type
REMARK                         _______ _______ _______ _____ _____    ______ ____
ROOT
ATOM      1  C   LIG    1       28.437 -19.691   6.814  0.00  0.00    +0.214 C 
ATOM      2  N   LIG    1       28.931 -19.449   8.064  0.00  0.00    -0.302 N 
ATOM      3  H   LIG    1       28.586 -20.050   8.804  0.00  0.00    +0.149 HD
ATOM      4  O   LIG    1       28.871 -19.150   5.788  0.00  0.00    -0.276 OA
ENDROOT
BRANCH   1   5
ATOM      5  C   LIG    1       27.287 -20.673   6.785  0.00  0.00    +0.096 C 
BRANCH   5   6
ATOM      6  C   LIG    1       26.505 -20.666   8.097  0.00  0.00    +0.009 C 
BRANCH   6   7
ATOM      7  C   LIG    1       25.934 -22.056   8.382  0.00  0.00    +0.000 C 
BRANCH   7   8
ATOM      8  C   LIG    1       25.983 -22.974   7.159  0.00  0.00    +0.000 C 
BRANCH   8   9
ATOM      9  C   LIG    1       24.639 -23.657   6.876  0.00  0.00    +0.000 C 
BRANCH   9  10
ATOM     10  C   LIG    1       23.433 -22.711   6.950  0.00  0.00    +0.000 C 
BRANCH  10  11
ATOM     11  C   LIG    1       23.473 -21.689   5.813  0.00  0.00    +0.004 C 
BRANCH  11  12
ATOM     12  C   LIG    1       23.067 -20.282   6.260  0.00  0.00    +0.026 C 
BRANCH  12  14
ATOM     13  C   LIG    1       23.379 -19.249   3.995  0.00  0.00    +0.004 C 
ATOM     14  C   LIG    1       22.617 -19.477   5.073  0.00  0.00    -0.035 C 
ENDBRANCH  12  14
ENDBRANCH  11  12
ENDBRANCH  10  11
ENDBRANCH   9  10
ENDBRANCH   8   9
ENDBRANCH   7   8
ENDBRANCH   6   7
ENDBRANCH   5   6
ENDBRANCH   1   5
BRANCH   2  15
ATOM     15  C   LIG    1       30.160 -18.685   8.331  0.00  0.00    +0.182 C 
BRANCH  15  16
ATOM     16  C   LIG    1       31.397 -19.562   8.046  0.00  0.00    +0.327 C 
ATOM     17  O   LIG    1       31.967 -19.629   6.965  0.00  0.00    -0.249 OA
BRANCH  16  18
ATOM     18  O   LIG    1       31.736 -20.280   9.178  0.00  0.00    -0.467 OA
ATOM     19  C   LIG    1       31.379 -21.661   9.137  0.00  0.00    +0.280 C 
ENDBRANCH  16  18
ENDBRANCH  15  16
BRANCH  15  20
ATOM     20  C   LIG    1       30.199 -18.120   9.758  0.00  0.00    +0.036 C 
BRANCH  20  21
ATOM     21  C   LIG    1       30.840 -16.723   9.973  0.00  0.00    -0.015 C 
ATOM     22  C   LIG    1       32.185 -16.542   9.268  0.00  0.00    +0.007 C 
ATOM     23  C   LIG    1       31.057 -16.454  11.467  0.00  0.00    +0.007 C 
ENDBRANCH  20  21
ENDBRANCH  15  20
ENDBRANCH   2  15
TORSDOF 14
ENDMDL
MODEL 3
REMARK VINA RESULT:      -7.4      2.883      8.000
REMARK  Name = *****
REMARK                            x       y       z     vdW  Elec       q    Type
REMARK                         _______ _______ _______ _____ _____    ______ ____
ROOT
ATOM      1  C   LIG    1       25.889 -20.827   8.276  0.00  0.00    +0.214 C 
ATOM      2  N   LIG    1       25.114 -20.864   7.152  0.00  0.00    -0.302 N 
ATOM      3  H   LIG    1       25.590 -20.684   6.275  0.00  0.00    +0.149 HD
ATOM      4  O   LIG    1       25.491 -21.174   9.396  0.00  0.00    -0.276 OA
ENDROOT
BRANCH   1   5
ATOM      5  C   LIG    1       27.287 -20.301   8.043  0.00  0.00    +0.096 C 
BRANCH   5   6
ATOM      6  C   LIG    1       28.058 -21.165   7.046  0.00  0.00    +0.009 C 
BRANCH   6   7
ATOM      7  C   LIG    1       28.741 -20.285   5.999  0.00  0.00    +0.000 C 
BRANCH   7   8
ATOM      8  C   LIG    1       29.426 -19.063   6.613  0.00  0.00    +0.000 C 
BRANCH   8   9
ATOM      9  C   LIG    1       30.921 -19.287   6.873  0.00  0.00    +0.000 C 
BRANCH   9  10
ATOM     10  C   LIG    1       31.419 -18.686   8.194  0.00  0.00    +0.000 C 
BRANCH  10  11
ATOM     11  C   LIG    1       30.280 -17.988   8.937  0.00  0.00    +0.004 C 
BRANCH  11  12
ATOM     12  C   LIG    1       30.749 -16.780   9.752  0.00  0.00    +0.026 C 
BRANCH  12  14
ATOM     13  C   LIG    1       33.013 -15.793  10.202  0.00  0.00    +0.004 C 
ATOM     14  C   LIG    1       32.167 -16.436   9.387  0.00  0.00    -0.035 C 
ENDBRANCH  12  14
ENDBRANCH  11  12
ENDBRANCH  10  11
ENDBRANCH   9  10
ENDBRANCH   8   9
ENDBRANCH   7   8
ENDBRANCH   6   7
ENDBRANCH   5   6
ENDBRANCH   1   5
BRANCH   2  15
ATOM     15  C   LIG    1       23.792 -21.506   7.084  0.00  0.00    +0.182 C 
BRANCH  15  16
ATOM     16  C   LIG    1       23.947 -22.992   6.700  0.00  0.00    +0.327 C 
ATOM     17  O   LIG    1       23.078 -23.842   6.845  0.00  0.00    -0.249 OA
BRANCH  16  18
ATOM     18  O   LIG    1       25.219 -23.222   6.209  0.00  0.00    -0.467 OA
ATOM     19  C   LIG    1       25.856 -24.390   6.725  0.00  0.00    +0.280 C 
ENDBRANCH  16  18
ENDBRANCH  15  16
BRANCH  15  20
ATOM     20  C   LIG    1       22.839 -20.783   6.121  0.00  0.00    +0.036 C 
BRANCH  20  21
ATOM     21  C   LIG    1       23.458 -19.850   5.046  0.00  0.00    -0.015 C 
ATOM     22  C   LIG    1       22.489 -18.800   4.503  0.00  0.00    +0.007 C 
ATOM     23  C   LIG    1       23.974 -20.668   3.855  0.00  0.00    +0.007 C 
ENDBRANCH  20  21
ENDBRANCH  15  20
ENDBRANCH   2  15
TORSDOF 14
ENDMDL
MODEL 4
REMARK VINA RESULT:      -6.7      3.048      8.335
REMARK  Name = *****
REMARK                            x       y       z     vdW  Elec       q    Type
REMARK                         _______ _______ _______ _____ _____    ______ ____
ROOT
ATOM      1  C   LIG    1       26.503 -20.417   5.505  0.00  0.00    +0.214 C 
ATOM      2  N   LIG    1       26.624 -21.484   6.350  0.00  0.00    -0.302 N 
ATOM      3  H   LIG    1       27.470 -21.517   6.909  0.00  0.00    +0.149 HD
ATOM      4  O   LIG    1       25.469 -20.153   4.876  0.00  0.00    -0.276 OA
ENDROOT
BRANCH   1   5
ATOM      5  C   LIG    1       27.758 -19.583   5.383  0.00  0.00    +0.096 C 
BRANCH   5   6
ATOM      6  C   LIG    1       28.805 -19.982   6.421  0.00  0.00    +0.009 C 
BRANCH   6   7
ATOM      7  C   LIG    1       29.867 -18.889   6.551  0.00  0.00    +0.000 C 
BRANCH   7   8
ATOM      8  C   LIG    1       31.166 -19.401   7.175  0.00  0.00    +0.000 C 
BRANCH   8   9
ATOM      9  C   LIG    1       31.719 -18.458   8.251  0.00  0.00    +0.000 C 
BRANCH   9  10
ATOM     10  C   LIG    1       30.647 -17.605   8.942  0.00  0.00    +0.000 C 
BRANCH  10  11
ATOM     11  C   LIG    1       30.679 -17.815  10.456  0.00  0.00    +0.004 C 
BRANCH  11  12
ATOM     12  C   LIG    1       30.946 -16.522  11.232  0.00  0.00    +0.026 C 
BRANCH  12  14
ATOM     13  C   LIG    1       32.285 -15.866  13.251  0.00  0.00    +0.004 C 
ATOM     14  C   LIG    1       31.862 -16.802  12.392  0.00  0.00    -0.035 C 
ENDBRANCH  12  14
ENDBRANCH  11  12
ENDBRANCH  10  11
ENDBRANCH   9  10
ENDBRANCH   8   9
ENDBRANCH   7   8
ENDBRANCH   6   7
ENDBRANCH   5   6
ENDBRANCH   1   5
BRANCH   2  15
ATOM     15  C   LIG    1       25.497 -22.327   6.779  0.00  0.00    +0.182 C 
BRANCH  15  16
ATOM     16  C   LIG    1       24.744 -21.649   7.943  0.00  0.00    +0.327 C 
ATOM     17  O   LIG    1       25.285 -21.094   8.890  0.00  0.00    -0.249 OA
BRANCH  16  18
ATOM     18  O   LIG    1       23.380 -21.798   7.772  0.00  0.00    -0.467 OA
ATOM     19  C   LIG    1       22.954 -21.870   6.412  0.00  0.00    +0.280 C 
ENDBRANCH  16  18
ENDBRANCH  15  16
BRANCH  15  20
ATOM     20  C   LIG    1       25.941 -23.747   7.159  0.00  0.00    +0.036 C 
BRANCH  20  21
ATOM     21  C   LIG    1       25.181 -24.943   6.527  0.00  0.00    -0.015 C 
ATOM     22  C   LIG    1       25.824 -26.302   6.800  0.00  0.00    +0.007 C 
ATOM     23  C   LIG    1       25.077 -24.773   5.006  0.00  0.00    +0.007 C 
ENDBRANCH  20  21
ENDBRANCH  15  20
ENDBRANCH   2  15
TORSDOF 14
ENDMDL
MODEL 5
REMARK VINA RESULT:      -6.7      5.485      8.274
REMARK  Name = *****
REMARK                            x       y       z     vdW  Elec       q    Type
REMARK                         _______ _______ _______ _____ _____    ______ ____
ROOT
ATOM      1  C   LIG    1       24.744 -23.722   6.160  0.00  0.00    +0.214 C 
ATOM      2  N   LIG    1       24.658 -22.847   7.205  0.00  0.00    -0.302 N 
ATOM      3  H   LIG    1       24.680 -23.255   8.133  0.00  0.00    +0.149 HD
ATOM      4  O   LIG    1       24.885 -23.372   4.981  0.00  0.00    -0.276 OA
ENDROOT
BRANCH   1   5
ATOM      5  C   LIG    1       24.631 -25.175   6.564  0.00  0.00    +0.096 C 
BRANCH   5   6
ATOM      6  C   LIG    1       25.984 -25.881   6.520  0.00  0.00    +0.009 C 
BRANCH   6   7
ATOM      7  C   LIG    1       25.913 -27.109   5.611  0.00  0.00    +0.000 C 
BRANCH   7   8
ATOM      8  C   LIG    1       24.496 -27.675   5.496  0.00  0.00    +0.000 C 
BRANCH   8   9
ATOM      9  C   LIG    1       24.382 -29.105   6.038  0.00  0.00    +0.000 C 
BRANCH   9  10
ATOM     10  C   LIG    1       24.521 -29.205   7.563  0.00  0.00    +0.000 C 
BRANCH  10  11
ATOM     11  C   LIG    1       25.313 -30.452   7.955  0.00  0.00    +0.004 C 
BRANCH  11  12
ATOM     12  C   LIG    1       26.370 -30.176   9.028  0.00  0.00    +0.026 C 
BRANCH  12  14
ATOM     13  C   LIG    1       26.728 -28.203  10.537  0.00  0.00    +0.004 C 
ATOM     14  C   LIG    1       26.414 -28.705   9.336  0.00  0.00    -0.035 C 
ENDBRANCH  12  14
ENDBRANCH  11  12
ENDBRANCH  10  11
ENDBRANCH   9  10
ENDBRANCH   8   9
ENDBRANCH   7   8
ENDBRANCH   6   7
ENDBRANCH   5   6
ENDBRANCH   1   5
BRANCH   2  15
ATOM     15  C   LIG    1       24.926 -21.404   7.095  0.00  0.00    +0.182 C 
BRANCH  15  16
ATOM     16  C   LIG    1       25.832 -20.946   8.257  0.00  0.00    +0.327 C 
ATOM     17  O   LIG    1       25.657 -21.242   9.432  0.00  0.00    -0.249 OA
BRANCH  16  18
ATOM     18  O   LIG    1       26.838 -20.128   7.777  0.00  0.00    -0.467 OA
ATOM     19  C   LIG    1       27.406 -20.547   6.537  0.00  0.00    +0.280 C 
ENDBRANCH  16  18
ENDBRANCH  15  16
BRANCH  15  20
ATOM     20  C   LIG    1       23.637 -20.572   7.039  0.00  0.00    +0.036 C 
BRANCH  20  21
ATOM     21  C   LIG    1       23.135 -20.098   5.649  0.00  0.00    -0.015 C 
ATOM     22  C   LIG    1       22.075 -21.007   5.027  0.00  0.00    +0.007 C 
ATOM     23  C   LIG    1       24.303 -19.998   4.659  0.00  0.00    +0.007 C 
ENDBRANCH  20  21
ENDBRANCH  15  20
ENDBRANCH   2  15
TORSDOF 14
ENDMDL
MODEL 6
REMARK VINA RESULT:      -6.7      3.015      8.371
REMARK  Name = *****
REMARK                            x       y       z     vdW  Elec       q    Type
REMARK                         _______ _______ _______ _____ _____    ______ ____
ROOT
ATOM      1  C   LIG    1       26.959 -21.759   7.663  0.00  0.00    +0.214 C 
ATOM      2  N   LIG    1       26.363 -22.030   6.464  0.00  0.00    -0.302 N 
ATOM      3  H   LIG    1       26.962 -21.984   5.647  0.00  0.00    +0.149 HD
ATOM      4  O   LIG    1       26.405 -21.923   8.758  0.00  0.00    -0.276 OA
ENDROOT
BRANCH   1   5
ATOM      5  C   LIG    1       28.365 -21.216   7.542  0.00  0.00    +0.096 C 
BRANCH   5   6
ATOM      6  C   LIG    1       28.467 -20.148   6.455  0.00  0.00    +0.009 C 
BRANCH   6   7
ATOM      7  C   LIG    1       29.829 -19.455   6.518  0.00  0.00    +0.000 C 
BRANCH   7   8
ATOM      8  C   LIG    1       30.494 -19.587   7.890  0.00  0.00    +0.000 C 
BRANCH   8   9
ATOM      9  C   LIG    1       30.428 -18.291   8.708  0.00  0.00    +0.000 C 
BRANCH   9  10
ATOM     10  C   LIG    1       31.691 -18.013   9.534  0.00  0.00    +0.000 C 
BRANCH  10  11
ATOM     11  C   LIG    1       32.157 -16.569   9.343  0.00  0.00    +0.004 C 
BRANCH  11  12
ATOM     12  C   LIG    1       32.706 -15.943  10.628  0.00  0.00    +0.026 C 
BRANCH  12  14
ATOM     13  C   LIG    1       32.099 -16.038  13.061  0.00  0.00    +0.004 C 
ATOM     14  C   LIG    1       31.781 -16.239  11.776  0.00  0.00    -0.035 C 
ENDBRANCH  12  14
ENDBRANCH  11  12
ENDBRANCH  10  11
ENDBRANCH   9  10
ENDBRANCH   8   9
ENDBRANCH   7   8
ENDBRANCH   6   7
ENDBRANCH   5   6
ENDBRANCH   1   5
BRANCH   2  15
ATOM     15  C   LIG    1       25.080 -22.737   6.324  0.00  0.00    +0.182 C 
BRANCH  15  16
ATOM     16  C   LIG    1       25.327 -24.192   5.875  0.00  0.00    +0.327 C 
ATOM     17  O   LIG    1       25.063 -24.630   4.763  0.00  0.00    -0.249 OA
BRANCH  16  18
ATOM     18  O   LIG    1       25.849 -24.926   6.924  0.00  0.00    -0.467 OA
ATOM     19  C   LIG    1       26.028 -26.315   6.648  0.00  0.00    +0.280 C 
ENDBRANCH  16  18
ENDBRANCH  15  16
BRANCH  15  20
ATOM     20  C   LIG    1       24.119 -22.018   5.366  0.00  0.00    +0.036 C 
BRANCH  20  21
ATOM     21  C   LIG    1       23.000 -21.136   5.981  0.00  0.00    -0.015 C 
ATOM     22  C   LIG    1       22.756 -19.828   5.228  0.00  0.00    +0.007 C 
ATOM     23  C   LIG    1       23.332 -20.781   7.436  0.00  0.00    +0.007 C 
ENDBRANCH  20  21
ENDBRANCH  15  20
ENDBRANCH   2  15
TORSDOF 14
ENDMDL
MODEL 7
REMARK VINA RESULT:      -6.5      6.866      9.261
REMARK  Name = *****
REMARK                            x       y       z     vdW  Elec       q    Type
REMARK                         _______ _______ _______ _____ _____    ______ ____
ROOT
ATOM      1  C   LIG    1       25.776 -26.358   5.676  0.00  0.00    +0.214 C 
ATOM      2  N   LIG    1       25.003 -27.189   6.437  0.00  0.00    -0.302 N 
ATOM      3  H   LIG    1       24.028 -26.928   6.532  0.00  0.00    +0.149 HD
ATOM      4  O   LIG    1       26.939 -26.619   5.340  0.00  0.00    -0.276 OA
ENDROOT
BRANCH   1   5
ATOM      5  C   LIG    1       25.093 -25.065   5.290  0.00  0.00    +0.096 C 
BRANCH   5   6
ATOM      6  C   LIG    1       24.717 -24.235   6.516  0.00  0.00    +0.009 C 
BRANCH   6   7
ATOM      7  C   LIG    1       25.888 -23.345   6.933  0.00  0.00    +0.000 C 
BRANCH   7   8
ATOM      8  C   LIG    1       25.486 -22.287   7.962  0.00  0.00    +0.000 C 
BRANCH   8   9
ATOM      9  C   LIG    1       24.982 -20.991   7.314  0.00  0.00    +0.000 C 
BRANCH   9  10
ATOM     10  C   LIG    1       23.453 -20.871   7.272  0.00  0.00    +0.000 C 
BRANCH  10  11
ATOM     11  C   LIG    1       22.947 -20.873   5.829  0.00  0.00    +0.004 C 
BRANCH  11  12
ATOM     12  C   LIG    1       23.945 -20.255   4.846  0.00  0.00    +0.026 C 
BRANCH  12  14
ATOM     13  C   LIG    1       22.249 -18.443   4.474  0.00  0.00    +0.004 C 
ATOM     14  C   LIG    1       23.266 -19.192   4.028  0.00  0.00    -0.035 C 
ENDBRANCH  12  14
ENDBRANCH  11  12
ENDBRANCH  10  11
ENDBRANCH   9  10
ENDBRANCH   8   9
ENDBRANCH   7   8
ENDBRANCH   6   7
ENDBRANCH   5   6
ENDBRANCH   1   5
BRANCH   2  15
ATOM     15  C   LIG    1       25.369 -28.573   6.777  0.00  0.00    +0.182 C 
BRANCH  15  16
ATOM     16  C   LIG    1       24.605 -29.558   5.869  0.00  0.00    +0.327 C 
ATOM     17  O   LIG    1       23.393 -29.728   5.893  0.00  0.00    -0.249 OA
BRANCH  16  18
ATOM     18  O   LIG    1       25.495 -30.240   5.059  0.00  0.00    -0.467 OA
ATOM     19  C   LIG    1       25.413 -31.662   5.149  0.00  0.00    +0.280 C 
ENDBRANCH  16  18
ENDBRANCH  15  16
BRANCH  15  20
ATOM     20  C   LIG    1       25.135 -28.892   8.260  0.00  0.00    +0.036 C 
BRANCH  20  21
ATOM     21  C   LIG    1       25.367 -30.350   8.738  0.00  0.00    -0.015 C 
ATOM     22  C   LIG    1       24.369 -30.824   9.794  0.00  0.00    +0.007 C 
ATOM     23  C   LIG    1       26.776 -30.507   9.325  0.00  0.00    +0.007 C 
ENDBRANCH  20  21
ENDBRANCH  15  20
ENDBRANCH   2  15
TORSDOF 14
ENDMDL
MODEL 8
REMARK VINA RESULT:      -6.4      3.525      8.739
REMARK  Name = *****
REMARK                            x       y       z     vdW  Elec       q    Type
REMARK                         _______ _______ _______ _____ _____    ______ ____
ROOT
ATOM      1  C   LIG    1       26.295 -21.755   6.947  0.00  0.00    +0.214 C 
ATOM      2  N   LIG    1       25.486 -22.834   7.166  0.00  0.00    -0.302 N 
ATOM      3  H   LIG    1       25.609 -23.312   8.052  0.00  0.00    +0.149 HD
ATOM      4  O   LIG    1       26.163 -20.981   5.990  0.00  0.00    -0.276 OA
ENDROOT
BRANCH   1   5
ATOM      5  C   LIG    1       27.394 -21.592   7.973  0.00  0.00    +0.096 C 
BRANCH   5   6
ATOM      6  C   LIG    1       28.142 -20.272   7.796  0.00  0.00    +0.009 C 
BRANCH   6   7
ATOM      7  C   LIG    1       29.507 -20.517   7.152  0.00  0.00    +0.000 C 
BRANCH   7   8
ATOM      8  C   LIG    1       30.163 -19.228   6.653  0.00  0.00    +0.000 C 
BRANCH   8   9
ATOM      9  C   LIG    1       31.497 -18.933   7.350  0.00  0.00    +0.000 C 
BRANCH   9  10
ATOM     10  C   LIG    1       31.483 -19.203   8.861  0.00  0.00    +0.000 C 
BRANCH  10  11
ATOM     11  C   LIG    1       31.764 -17.920   9.644  0.00  0.00    +0.004 C 
BRANCH  11  12
ATOM     12  C   LIG    1       30.599 -17.504  10.547  0.00  0.00    +0.026 C 
BRANCH  12  14
ATOM     13  C   LIG    1       31.988 -16.534  12.398  0.00  0.00    +0.004 C 
ATOM     14  C   LIG    1       31.035 -16.398  11.467  0.00  0.00    -0.035 C 
ENDBRANCH  12  14
ENDBRANCH  11  12
ENDBRANCH  10  11
ENDBRANCH   9  10
ENDBRANCH   8   9
ENDBRANCH   7   8
ENDBRANCH   6   7
ENDBRANCH   5   6
ENDBRANCH   1   5
BRANCH   2  15
ATOM     15  C   LIG    1       24.243 -23.096   6.423  0.00  0.00    +0.182 C 
BRANCH  15  16
ATOM     16  C   LIG    1       23.175 -22.048   6.798  0.00  0.00    +0.327 C 
ATOM     17  O   LIG    1       22.940 -21.674   7.940  0.00  0.00    -0.249 OA
BRANCH  16  18
ATOM     18  O   LIG    1       22.505 -21.631   5.663  0.00  0.00    -0.467 OA
ATOM     19  C   LIG    1       22.678 -20.252   5.341  0.00  0.00    +0.280 C 
ENDBRANCH  16  18
ENDBRANCH  15  16
BRANCH  15  20
ATOM     20  C   LIG    1       23.720 -24.522   6.643  0.00  0.00    +0.036 C 
BRANCH  20  21
ATOM     21  C   LIG    1       24.505 -25.695   5.998  0.00  0.00    -0.015 C 
ATOM     22  C   LIG    1       25.691 -26.182   6.830  0.00  0.00    +0.007 C 
ATOM     23  C   LIG    1       25.039 -25.292   4.617  0.00  0.00    +0.007 C 
ENDBRANCH  20  21
ENDBRANCH  15  20
ENDBRANCH   2  15
TORSDOF 14
ENDMDL
MODEL 9
REMARK VINA RESULT:      -6.4      5.443      8.139
REMARK  Name = *****
REMARK                            x       y       z     vdW  Elec       q    Type
REMARK                         _______ _______ _______ _____ _____    ______ ____
ROOT
ATOM      1  C   LIG    1       23.833 -22.849   6.689  0.00  0.00    +0.214 C 
ATOM      2  N   LIG    1       24.565 -22.236   5.713  0.00  0.00    -0.302 N 
ATOM      3  H   LIG    1       24.833 -22.815   4.925  0.00  0.00    +0.149 HD
ATOM      4  O   LIG    1       23.302 -22.245   7.631  0.00  0.00    -0.276 OA
ENDROOT
BRANCH   1   5
ATOM      5  C   LIG    1       23.737 -24.350   6.535  0.00  0.00    +0.096 C 
BRANCH   5   6
ATOM      6  C   LIG    1       25.114 -25.011   6.564  0.00  0.00    +0.009 C 
BRANCH   6   7
ATOM      7  C   LIG    1       25.409 -25.682   5.222  0.00  0.00    +0.000 C 
BRANCH   7   8
ATOM      8  C   LIG    1       26.037 -27.068   5.383  0.00  0.00    +0.000 C 
BRANCH   8   9
ATOM      9  C   LIG    1       25.030 -28.204   5.162  0.00  0.00    +0.000 C 
BRANCH   9  10
ATOM     10  C   LIG    1       24.240 -28.588   6.420  0.00  0.00    +0.000 C 
BRANCH  10  11
ATOM     11  C   LIG    1       24.885 -29.784   7.122  0.00  0.00    +0.004 C 
BRANCH  11  12
ATOM     12  C   LIG    1       25.074 -29.564   8.625  0.00  0.00    +0.026 C 
BRANCH  12  14
ATOM     13  C   LIG    1       26.720 -28.348  10.079  0.00  0.00    +0.004 C 
ATOM     14  C   LIG    1       26.240 -28.644   8.864  0.00  0.00    -0.035 C 
ENDBRANCH  12  14
ENDBRANCH  11  12
ENDBRANCH  10  11
ENDBRANCH   9  10
ENDBRANCH   8   9
ENDBRANCH   7   8
ENDBRANCH   6   7
ENDBRANCH   5   6
ENDBRANCH   1   5
BRANCH   2  15
ATOM     15  C   LIG    1       24.645 -20.777   5.537  0.00  0.00    +0.182 C 
BRANCH  15  16
ATOM     16  C   LIG    1       23.872 -20.355   4.271  0.00  0.00    +0.327 C 
ATOM     17  O   LIG    1       24.359 -20.289   3.150  0.00  0.00    -0.249 OA
BRANCH  16  18
ATOM     18  O   LIG    1       22.570 -20.030   4.600  0.00  0.00    -0.467 OA
ATOM     19  C   LIG    1       22.277 -18.634   4.564  0.00  0.00    +0.280 C 
ENDBRANCH  16  18
ENDBRANCH  15  16
BRANCH  15  20
ATOM     20  C   LIG    1       26.095 -20.273   5.494  0.00  0.00    +0.036 C 
BRANCH  20  21
ATOM     21  C   LIG    1       27.071 -20.761   6.598  0.00  0.00    -0.015 C 
ATOM     22  C   LIG    1       26.593 -20.476   8.021  0.00  0.00    +0.007 C 
ATOM     23  C   LIG    1       28.447 -20.105   6.429  0.00  0.00    +0.007 C 
ENDBRANCH  20  21
ENDBRANCH  15  20
ENDBRANCH   2  15
TORSDOF 14
ENDMDL
