MODEL 1
REMARK VINA RESULT:      -8.6      0.000      0.000
REMARK  Name = *****
REMARK                            x       y       z     vdW  Elec       q    Type
REMARK                         _______ _______ _______ _____ _____    ______ ____
ROOT
ATOM      1  C   LIG    1       25.618 -20.734   5.379  0.00  0.00    +0.005 C 
ATOM      2  C   LIG    1       26.677 -19.939   5.155  0.00  0.00    +0.006 C 
ENDROOT
BRANCH   2   3
ATOM      3  C   LIG    1       27.940 -19.968   5.914  0.00  0.00    -0.022 A 
ATOM      4  C   LIG    1       28.187 -20.889   6.944  0.00  0.00    +0.057 A 
ATOM      5  C   LIG    1       29.391 -20.806   7.618  0.00  0.00    +0.167 A 
ATOM      6  O   LIG    1       29.786 -21.614   8.638  0.00  0.00    -0.453 OA
ATOM      7  C   LIG    1       31.076 -21.047   8.949  0.00  0.00    +0.466 C 
ATOM      8  O   LIG    1       31.437 -19.939   8.099  0.00  0.00    -0.453 OA
ATOM      9  C   LIG    1       30.331 -19.852   7.313  0.00  0.00    +0.166 A 
ATOM     10  C   LIG    1       30.124 -18.926   6.316  0.00  0.00    +0.050 A 
ATOM     11  C   LIG    1       28.913 -18.985   5.618  0.00  0.00    +0.012 A 
ENDBRANCH   2   3
BRANCH   1  12
ATOM     12  C   LIG    1       24.321 -20.756   4.597  0.00  0.00    +0.143 C 
BRANCH  12  14
ATOM     13  C   LIG    1       22.507 -19.015   5.078  0.00  0.00    +0.013 C 
ATOM     14  C   LIG    1       23.038 -20.420   5.430  0.00  0.00    -0.008 C 
ATOM     15  C   LIG    1       21.927 -21.440   5.103  0.00  0.00    +0.013 C 
ATOM     16  C   LIG    1       23.308 -20.478   6.948  0.00  0.00    +0.013 C 
ENDBRANCH  12  14
BRANCH  12  17
ATOM     17  O   LIG    1       24.169 -22.019   3.947  0.00  0.00    -0.387 OA
ATOM     18  H   LIG    1       24.880 -22.597   4.269  0.00  0.00    +0.210 HD
ENDBRANCH  12  17
ENDBRANCH   1  12
TORSDOF 4
ENDMDL
MODEL 2
REMARK VINA RESULT:      -8.5      1.407      2.404
REMARK  Name = *****
REMARK                            x       y       z     vdW  Elec       q    Type
REMARK                         _______ _______ _______ _____ _____    ______ ____
ROOT
ATOM      1  C   LIG    1       26.318 -21.135   6.458  0.00  0.00    +0.005 C 
ATOM      2  C   LIG    1       27.346 -20.336   6.133  0.00  0.00    +0.006 C 
ENDROOT
BRANCH   2   3
ATOM      3  C   LIG    1       28.557 -20.130   6.947  0.00  0.00    -0.022 A 
ATOM      4  C   LIG    1       29.205 -18.890   7.044  0.00  0.00    +0.057 A 
ATOM      5  C   LIG    1       30.357 -18.813   7.805  0.00  0.00    +0.167 A 
ATOM      6  O   LIG    1       31.106 -17.694   8.000  0.00  0.00    -0.453 OA
ATOM      7  C   LIG    1       32.164 -18.219   8.831  0.00  0.00    +0.466 C 
ATOM      8  O   LIG    1       32.014 -19.621   9.136  0.00  0.00    -0.453 OA
ATOM      9  C   LIG    1       30.876 -19.909   8.451  0.00  0.00    +0.166 A 
ATOM     10  C   LIG    1       30.274 -21.144   8.375  0.00  0.00    +0.050 A 
ATOM     11  C   LIG    1       29.108 -21.252   7.610  0.00  0.00    +0.012 A 
ENDBRANCH   2   3
BRANCH   1  12
ATOM     12  C   LIG    1       25.077 -21.397   5.629  0.00  0.00    +0.143 C 
BRANCH  12  14
ATOM     13  C   LIG    1       22.944 -22.523   6.484  0.00  0.00    +0.013 C 
ATOM     14  C   LIG    1       23.720 -21.194   6.384  0.00  0.00    -0.008 C 
ATOM     15  C   LIG    1       23.996 -20.700   7.821  0.00  0.00    +0.013 C 
ATOM     16  C   LIG    1       22.823 -20.151   5.686  0.00  0.00    +0.013 C 
ENDBRANCH  12  14
BRANCH  12  17
ATOM     17  O   LIG    1       25.137 -22.709   5.069  0.00  0.00    -0.387 OA
ATOM     18  H   LIG    1       25.931 -22.750   4.513  0.00  0.00    +0.210 HD
ENDBRANCH  12  17
ENDBRANCH   1  12
TORSDOF 4
ENDMDL
MODEL 3
REMARK VINA RESULT:      -8.4      1.085      1.526
REMARK  Name = *****
REMARK                            x       y       z     vdW  Elec       q    Type
REMARK                         _______ _______ _______ _____ _____    ______ ____
ROOT
ATOM      1  C   LIG    1       25.595 -20.300   5.000  0.00  0.00    +0.005 C 
ATOM      2  C   LIG    1       26.490 -20.805   5.865  0.00  0.00    +0.006 C 
ENDROOT
BRANCH   2   3
ATOM      3  C   LIG    1       27.719 -20.126   6.313  0.00  0.00    -0.022 A 
ATOM      4  C   LIG    1       28.262 -20.305   7.594  0.00  0.00    +0.057 A 
ATOM      5  C   LIG    1       29.398 -19.592   7.927  0.00  0.00    +0.167 A 
ATOM      6  O   LIG    1       30.047 -19.646   9.122  0.00  0.00    -0.453 OA
ATOM      7  C   LIG    1       31.109 -18.694   8.895  0.00  0.00    +0.466 C 
ATOM      8  O   LIG    1       31.092 -18.117   7.574  0.00  0.00    -0.453 OA
ATOM      9  C   LIG    1       29.993 -18.720   7.048  0.00  0.00    +0.166 A 
ATOM     10  C   LIG    1       29.488 -18.511   5.785  0.00  0.00    +0.050 A 
ATOM     11  C   LIG    1       28.337 -19.219   5.421  0.00  0.00    +0.012 A 
ENDBRANCH   2   3
BRANCH   1  12
ATOM     12  C   LIG    1       24.306 -20.955   4.548  0.00  0.00    +0.143 C 
BRANCH  12  14
ATOM     13  C   LIG    1       21.837 -21.436   5.024  0.00  0.00    +0.013 C 
ATOM     14  C   LIG    1       23.023 -20.494   5.319  0.00  0.00    -0.008 C 
ATOM     15  C   LIG    1       23.290 -20.535   6.839  0.00  0.00    +0.013 C 
ATOM     16  C   LIG    1       22.613 -19.055   4.945  0.00  0.00    +0.013 C 
ENDBRANCH  12  14
BRANCH  12  17
ATOM     17  O   LIG    1       24.436 -22.375   4.613  0.00  0.00    -0.387 OA
ATOM     18  H   LIG    1       23.826 -22.752   3.958  0.00  0.00    +0.210 HD
ENDBRANCH  12  17
ENDBRANCH   1  12
TORSDOF 4
ENDMDL
MODEL 4
REMARK VINA RESULT:      -8.2      2.174      3.093
REMARK  Name = *****
REMARK                            x       y       z     vdW  Elec       q    Type
REMARK                         _______ _______ _______ _____ _____    ______ ____
ROOT
ATOM      1  C   LIG    1       26.385 -21.734   6.886  0.00  0.00    +0.005 C 
ATOM      2  C   LIG    1       27.289 -20.826   6.484  0.00  0.00    +0.006 C 
ENDROOT
BRANCH   2   3
ATOM      3  C   LIG    1       28.527 -20.479   7.205  0.00  0.00    -0.022 A 
ATOM      4  C   LIG    1       29.081 -19.190   7.186  0.00  0.00    +0.057 A 
ATOM      5  C   LIG    1       30.267 -18.980   7.865  0.00  0.00    +0.167 A 
ATOM      6  O   LIG    1       30.936 -17.798   7.944  0.00  0.00    -0.453 OA
ATOM      7  C   LIG    1       32.080 -18.188   8.734  0.00  0.00    +0.466 C 
ATOM      8  O   LIG    1       32.059 -19.574   9.130  0.00  0.00    -0.453 OA
ATOM      9  C   LIG    1       30.908 -19.990   8.539  0.00  0.00    +0.166 A 
ATOM     10  C   LIG    1       30.402 -21.269   8.576  0.00  0.00    +0.050 A 
ATOM     11  C   LIG    1       29.204 -21.512   7.895  0.00  0.00    +0.012 A 
ENDBRANCH   2   3
BRANCH   1  12
ATOM     12  C   LIG    1       25.123 -22.140   6.153  0.00  0.00    +0.143 C 
BRANCH  12  14
ATOM     13  C   LIG    1       24.898 -24.342   4.869  0.00  0.00    +0.013 C 
ATOM     14  C   LIG    1       24.762 -23.661   6.246  0.00  0.00    -0.008 C 
ATOM     15  C   LIG    1       25.734 -24.365   7.219  0.00  0.00    +0.013 C 
ATOM     16  C   LIG    1       23.326 -23.881   6.765  0.00  0.00    +0.013 C 
ENDBRANCH  12  14
BRANCH  12  17
ATOM     17  O   LIG    1       25.208 -21.737   4.786  0.00  0.00    -0.387 OA
ATOM     18  H   LIG    1       25.952 -22.217   4.388  0.00  0.00    +0.210 HD
ENDBRANCH  12  17
ENDBRANCH   1  12
TORSDOF 4
ENDMDL
MODEL 5
REMARK VINA RESULT:      -8.2      2.193      2.625
REMARK  Name = *****
REMARK                            x       y       z     vdW  Elec       q    Type
REMARK                         _______ _______ _______ _____ _____    ______ ____
ROOT
ATOM      1  C   LIG    1       26.105 -21.824   6.345  0.00  0.00    +0.005 C 
ATOM      2  C   LIG    1       26.558 -20.612   5.987  0.00  0.00    +0.006 C 
ENDROOT
BRANCH   2   3
ATOM      3  C   LIG    1       27.837 -20.019   6.415  0.00  0.00    -0.022 A 
ATOM      4  C   LIG    1       28.396 -20.250   7.681  0.00  0.00    +0.057 A 
ATOM      5  C   LIG    1       29.582 -19.615   7.996  0.00  0.00    +0.167 A 
ATOM      6  O   LIG    1       30.252 -19.726   9.175  0.00  0.00    -0.453 OA
ATOM      7  C   LIG    1       31.367 -18.840   8.937  0.00  0.00    +0.466 C 
ATOM      8  O   LIG    1       31.357 -18.244   7.624  0.00  0.00    -0.453 OA
ATOM      9  C   LIG    1       30.212 -18.770   7.115  0.00  0.00    +0.166 A 
ATOM     10  C   LIG    1       29.693 -18.511   5.867  0.00  0.00    +0.050 A 
ATOM     11  C   LIG    1       28.491 -19.139   5.521  0.00  0.00    +0.012 A 
ENDBRANCH   2   3
BRANCH   1  12
ATOM     12  C   LIG    1       24.814 -22.478   5.896  0.00  0.00    +0.143 C 
BRANCH  12  14
ATOM     13  C   LIG    1       23.308 -24.401   6.659  0.00  0.00    +0.013 C 
ATOM     14  C   LIG    1       24.720 -24.017   6.171  0.00  0.00    -0.008 C 
ATOM     15  C   LIG    1       24.994 -24.794   4.865  0.00  0.00    +0.013 C 
ATOM     16  C   LIG    1       25.748 -24.477   7.225  0.00  0.00    +0.013 C 
ENDBRANCH  12  14
BRANCH  12  17
ATOM     17  O   LIG    1       24.595 -22.211   4.510  0.00  0.00    -0.387 OA
ATOM     18  H   LIG    1       25.029 -21.367   4.306  0.00  0.00    +0.210 HD
ENDBRANCH  12  17
ENDBRANCH   1  12
TORSDOF 4
ENDMDL
MODEL 6
REMARK VINA RESULT:      -7.5      5.758      7.355
REMARK  Name = *****
REMARK                            x       y       z     vdW  Elec       q    Type
REMARK                         _______ _______ _______ _____ _____    ______ ____
ROOT
ATOM      1  C   LIG    1       25.133 -23.797   6.214  0.00  0.00    +0.005 C 
ATOM      2  C   LIG    1       25.054 -24.931   5.499  0.00  0.00    +0.006 C 
ENDROOT
BRANCH   2   3
ATOM      3  C   LIG    1       25.109 -26.295   6.055  0.00  0.00    -0.022 A 
ATOM      4  C   LIG    1       24.261 -27.326   5.623  0.00  0.00    +0.057 A 
ATOM      5  C   LIG    1       24.368 -28.559   6.237  0.00  0.00    +0.167 A 
ATOM      6  O   LIG    1       23.624 -29.660   5.942  0.00  0.00    -0.453 OA
ATOM      7  C   LIG    1       24.148 -30.605   6.899  0.00  0.00    +0.466 C 
ATOM      8  O   LIG    1       25.205 -30.066   7.720  0.00  0.00    -0.453 OA
ATOM      9  C   LIG    1       25.266 -28.792   7.250  0.00  0.00    +0.166 A 
ATOM     10  C   LIG    1       26.110 -27.806   7.708  0.00  0.00    +0.050 A 
ATOM     11  C   LIG    1       26.022 -26.546   7.105  0.00  0.00    +0.012 A 
ENDBRANCH   2   3
BRANCH   1  12
ATOM     12  C   LIG    1       25.045 -22.383   5.679  0.00  0.00    +0.143 C 
BRANCH  12  14
ATOM     13  C   LIG    1       23.524 -20.324   5.707  0.00  0.00    +0.013 C 
ATOM     14  C   LIG    1       24.233 -21.385   6.573  0.00  0.00    -0.008 C 
ATOM     15  C   LIG    1       23.149 -22.157   7.356  0.00  0.00    +0.013 C 
ATOM     16  C   LIG    1       25.136 -20.664   7.595  0.00  0.00    +0.013 C 
ENDBRANCH  12  14
BRANCH  12  17
ATOM     17  O   LIG    1       24.513 -22.399   4.353  0.00  0.00    -0.387 OA
ATOM     18  H   LIG    1       25.172 -21.987   3.772  0.00  0.00    +0.210 HD
ENDBRANCH  12  17
ENDBRANCH   1  12
TORSDOF 4
ENDMDL
MODEL 7
REMARK VINA RESULT:      -7.5      2.327      6.771
REMARK  Name = *****
REMARK                            x       y       z     vdW  Elec       q    Type
REMARK                         _______ _______ _______ _____ _____    ______ ____
ROOT
ATOM      1  C   LIG    1       28.649 -19.980   6.821  0.00  0.00    +0.005 C 
ATOM      2  C   LIG    1       28.181 -21.164   7.247  0.00  0.00    +0.006 C 
ENDROOT
BRANCH   2   3
ATOM      3  C   LIG    1       26.769 -21.583   7.217  0.00  0.00    -0.022 A 
ATOM      4  C   LIG    1       26.374 -22.905   6.963  0.00  0.00    +0.057 A 
ATOM      5  C   LIG    1       25.022 -23.185   6.920  0.00  0.00    +0.167 A 
ATOM      6  O   LIG    1       24.472 -24.407   6.683  0.00  0.00    -0.453 OA
ATOM      7  C   LIG    1       23.065 -24.084   6.729  0.00  0.00    +0.466 C 
ATOM      8  O   LIG    1       22.803 -22.696   7.017  0.00  0.00    -0.453 OA
ATOM      9  C   LIG    1       24.070 -22.212   7.108  0.00  0.00    +0.166 A 
ATOM     10  C   LIG    1       24.416 -20.903   7.352  0.00  0.00    +0.050 A 
ATOM     11  C   LIG    1       25.779 -20.590   7.400  0.00  0.00    +0.012 A 
ENDBRANCH   2   3
BRANCH   1  12
ATOM     12  C   LIG    1       30.097 -19.532   6.805  0.00  0.00    +0.143 C 
BRANCH  12  14
ATOM     13  C   LIG    1       31.135 -20.485   8.942  0.00  0.00    +0.013 C 
ATOM     14  C   LIG    1       30.703 -19.198   8.210  0.00  0.00    -0.008 C 
ATOM     15  C   LIG    1       31.956 -18.312   8.037  0.00  0.00    +0.013 C 
ATOM     16  C   LIG    1       29.701 -18.437   9.103  0.00  0.00    +0.013 C 
ENDBRANCH  12  14
BRANCH  12  17
ATOM     17  O   LIG    1       30.248 -18.416   5.927  0.00  0.00    -0.387 OA
ATOM     18  H   LIG    1       31.199 -18.287   5.784  0.00  0.00    +0.210 HD
ENDBRANCH  12  17
ENDBRANCH   1  12
TORSDOF 4
ENDMDL
MODEL 8
REMARK VINA RESULT:      -7.5      2.160      2.881
REMARK  Name = *****
REMARK                            x       y       z     vdW  Elec       q    Type
REMARK                         _______ _______ _______ _____ _____    ______ ____
ROOT
ATOM      1  C   LIG    1       26.464 -20.320   7.356  0.00  0.00    +0.005 C 
ATOM      2  C   LIG    1       27.714 -20.788   7.500  0.00  0.00    +0.006 C 
ENDROOT
BRANCH   2   3
ATOM      3  C   LIG    1       28.912 -19.961   7.736  0.00  0.00    -0.022 A 
ATOM      4  C   LIG    1       29.001 -19.037   8.788  0.00  0.00    +0.057 A 
ATOM      5  C   LIG    1       30.155 -18.285   8.899  0.00  0.00    +0.167 A 
ATOM      6  O   LIG    1       30.402 -17.346   9.853  0.00  0.00    -0.453 OA
ATOM      7  C   LIG    1       31.712 -16.891   9.451  0.00  0.00    +0.466 C 
ATOM      8  O   LIG    1       32.229 -17.578   8.294  0.00  0.00    -0.453 OA
ATOM      9  C   LIG    1       31.196 -18.414   8.012  0.00  0.00    +0.166 A 
ATOM     10  C   LIG    1       31.144 -19.303   6.962  0.00  0.00    +0.050 A 
ATOM     11  C   LIG    1       29.987 -20.077   6.825  0.00  0.00    +0.012 A 
ENDBRANCH   2   3
BRANCH   1  12
ATOM     12  C   LIG    1       25.209 -21.143   7.149  0.00  0.00    +0.143 C 
BRANCH  12  14
ATOM     13  C   LIG    1       23.179 -20.474   5.741  0.00  0.00    +0.013 C 
ATOM     14  C   LIG    1       24.600 -21.071   5.707  0.00  0.00    -0.008 C 
ATOM     15  C   LIG    1       25.475 -20.158   4.821  0.00  0.00    +0.013 C 
ATOM     16  C   LIG    1       24.535 -22.461   5.041  0.00  0.00    +0.013 C 
ENDBRANCH  12  14
BRANCH  12  17
ATOM     17  O   LIG    1       24.225 -20.777   8.117  0.00  0.00    -0.387 OA
ATOM     18  H   LIG    1       23.391 -21.198   7.855  0.00  0.00    +0.210 HD
ENDBRANCH  12  17
ENDBRANCH   1  12
TORSDOF 4
ENDMDL
MODEL 9
REMARK VINA RESULT:      -7.3      2.432      7.017
REMARK  Name = *****
REMARK                            x       y       z     vdW  Elec       q    Type
REMARK                         _______ _______ _______ _____ _____    ______ ____
ROOT
ATOM      1  C   LIG    1       29.717 -18.978   8.030  0.00  0.00    +0.005 C 
ATOM      2  C   LIG    1       28.920 -20.050   8.156  0.00  0.00    +0.006 C 
ENDROOT
BRANCH   2   3
ATOM      3  C   LIG    1       27.615 -20.225   7.494  0.00  0.00    -0.022 A 
ATOM      4  C   LIG    1       26.442 -20.541   8.197  0.00  0.00    +0.057 A 
ATOM      5  C   LIG    1       25.277 -20.720   7.476  0.00  0.00    +0.167 A 
ATOM      6  O   LIG    1       24.060 -21.031   7.999  0.00  0.00    -0.453 OA
ATOM      7  C   LIG    1       23.264 -21.116   6.798  0.00  0.00    +0.466 C 
ATOM      8  O   LIG    1       24.005 -20.829   5.594  0.00  0.00    -0.453 OA
ATOM      9  C   LIG    1       25.244 -20.607   6.107  0.00  0.00    +0.166 A 
ATOM     10  C   LIG    1       26.373 -20.307   5.380  0.00  0.00    +0.050 A 
ATOM     11  C   LIG    1       27.568 -20.121   6.084  0.00  0.00    +0.012 A 
ENDBRANCH   2   3
BRANCH   1  12
ATOM     12  C   LIG    1       31.078 -18.782   8.667  0.00  0.00    +0.143 C 
BRANCH  12  14
ATOM     13  C   LIG    1       32.563 -16.930   9.624  0.00  0.00    +0.013 C 
ATOM     14  C   LIG    1       31.170 -17.591   9.680  0.00  0.00    -0.008 C 
ATOM     15  C   LIG    1       30.124 -16.517   9.313  0.00  0.00    +0.013 C 
ATOM     16  C   LIG    1       30.898 -18.046  11.129  0.00  0.00    +0.013 C 
ENDBRANCH  12  14
BRANCH  12  17
ATOM     17  O   LIG    1       32.072 -18.642   7.651  0.00  0.00    -0.387 OA
ATOM     18  H   LIG    1       32.934 -18.800   8.067  0.00  0.00    +0.210 HD
ENDBRANCH  12  17
ENDBRANCH   1  12
TORSDOF 4
ENDMDL
