MODEL 1
REMARK VINA RESULT:       6.3      0.000      0.000
REMARK  Name = *****
REMARK                            x       y       z     vdW  Elec       q    Type
REMARK                         _______ _______ _______ _____ _____    ______ ____
ROOT
ATOM      1  C   LIG    1       22.098 -19.334   4.373  0.00  0.00    +0.121 C 
ENDROOT
BRANCH   1   2
ATOM      2  C   LIG    1       23.509 -19.266   3.744  0.00  0.00    +0.024 A 
ATOM      3  C   LIG    1       24.128 -20.403   3.198  0.00  0.00    +0.130 A 
ATOM      4  F   LIG    1       23.472 -21.571   3.169  0.00  0.00    -0.205 F 
ATOM      5  C   LIG    1       25.437 -20.372   2.692  0.00  0.00    +0.041 A 
ATOM      6  C   LIG    1       26.158 -19.181   2.697  0.00  0.00    +0.041 A 
ATOM      7  C   LIG    1       25.562 -18.041   3.213  0.00  0.00    +0.124 A 
ATOM      8  F   LIG    1       26.239 -16.884   3.210  0.00  0.00    -0.205 F 
ATOM      9  C   LIG    1       24.270 -18.077   3.742  0.00  0.00    +0.047 A 
ENDBRANCH   1   2
BRANCH   1  11
ATOM     10  C   LIG    1       20.876 -17.764   2.665  0.00  0.00    +0.018 C 
ATOM     11  C   LIG    1       21.287 -17.990   4.138  0.00  0.00    +0.080 C 
BRANCH  11  12
ATOM     12  C   LIG    1       22.035 -16.758   4.631  0.00  0.00    +0.085 A 
ATOM     13  S   LIG    1       21.351 -15.799   5.893  0.00  0.00    -0.080 S 
ATOM     14  C   LIG    1       22.721 -14.773   5.844  0.00  0.00    +0.075 A 
ATOM     15  C   LIG    1       23.596 -15.178   4.854  0.00  0.00    +0.078 A 
ATOM     16  N   LIG    1       23.190 -16.320   4.172  0.00  0.00    -0.244 NA
BRANCH  15  17
ATOM     17  C   LIG    1       24.842 -14.486   4.513  0.00  0.00    +0.001 A 
ATOM     18  C   LIG    1       25.204 -14.308   3.169  0.00  0.00    +0.011 A 
ATOM     19  C   LIG    1       26.385 -13.638   2.821  0.00  0.00    +0.019 A 
ATOM     20  C   LIG    1       27.228 -13.133   3.816  0.00  0.00    +0.052 A 
ATOM     21  C   LIG    1       26.877 -13.298   5.157  0.00  0.00    +0.019 A 
ATOM     22  C   LIG    1       25.697 -13.967   5.500  0.00  0.00    +0.011 A 
BRANCH  20  23
ATOM     23  C   LIG    1       28.440 -12.458   3.470  0.00  0.00    +0.099 C 
ATOM     24  N   LIG    1       29.436 -11.912   3.199  0.00  0.00    -0.191 NA
ENDBRANCH  20  23
ENDBRANCH  15  17
ENDBRANCH  11  12
ENDBRANCH   1  11
BRANCH   1  25
ATOM     25  O   LIG    1       21.326 -20.412   3.790  0.00  0.00    -0.381 OA
ATOM     26  H   LIG    1       21.204 -20.224   2.843  0.00  0.00    +0.211 HD
ENDBRANCH   1  25
BRANCH   1  27
ATOM     27  C   LIG    1       22.109 -19.647   5.906  0.00  0.00    +0.185 C 
BRANCH  27  28
ATOM     28  N   LIG    1       23.363 -20.192   6.390  0.00  0.00    -0.249 N 
ATOM     29  N   LIG    1       24.339 -19.388   6.848  0.00  0.00    -0.158 NA
ATOM     30  C   LIG    1       25.324 -20.265   7.062  0.00  0.00    +0.244 A 
ATOM     31  N   LIG    1       25.004 -21.569   6.815  0.00  0.00    -0.223 NA
ATOM     32  C   LIG    1       23.752 -21.497   6.428  0.00  0.00    +0.219 A 
ENDBRANCH  27  28
ENDBRANCH   1  27
TORSDOF 8
ENDMDL
MODEL 2
REMARK VINA RESULT:       6.6      2.976      7.002
REMARK  Name = *****
REMARK                            x       y       z     vdW  Elec       q    Type
REMARK                         _______ _______ _______ _____ _____    ______ ____
ROOT
ATOM      1  C   LIG    1       27.326 -14.239   3.430  0.00  0.00    +0.121 C 
ENDROOT
BRANCH   1   2
ATOM      2  C   LIG    1       27.156 -15.757   3.669  0.00  0.00    +0.024 A 
ATOM      3  C   LIG    1       27.985 -16.461   4.559  0.00  0.00    +0.130 A 
ATOM      4  F   LIG    1       28.918 -15.805   5.262  0.00  0.00    -0.205 F 
ATOM      5  C   LIG    1       27.889 -17.851   4.729  0.00  0.00    +0.041 A 
ATOM      6  C   LIG    1       26.934 -18.576   4.023  0.00  0.00    +0.041 A 
ATOM      7  C   LIG    1       26.092 -17.901   3.153  0.00  0.00    +0.124 A 
ATOM      8  F   LIG    1       25.156 -18.584   2.479  0.00  0.00    -0.205 F 
ATOM      9  C   LIG    1       26.204 -16.523   2.962  0.00  0.00    +0.047 A 
ENDBRANCH   1   2
BRANCH   1  11
ATOM     10  C   LIG    1       27.158 -13.171   5.818  0.00  0.00    +0.018 C 
ATOM     11  C   LIG    1       26.465 -13.384   4.453  0.00  0.00    +0.080 C 
BRANCH  11  12
ATOM     12  C   LIG    1       25.082 -13.975   4.694  0.00  0.00    +0.085 A 
ATOM     13  S   LIG    1       23.834 -12.975   5.341  0.00  0.00    -0.080 S 
ATOM     14  C   LIG    1       22.743 -14.291   5.250  0.00  0.00    +0.075 A 
ATOM     15  C   LIG    1       23.385 -15.422   4.782  0.00  0.00    +0.078 A 
ATOM     16  N   LIG    1       24.723 -15.222   4.462  0.00  0.00    -0.244 NA
BRANCH  15  17
ATOM     17  C   LIG    1       22.751 -16.735   4.632  0.00  0.00    +0.001 A 
ATOM     18  C   LIG    1       21.526 -16.853   3.957  0.00  0.00    +0.011 A 
ATOM     19  C   LIG    1       20.909 -18.101   3.792  0.00  0.00    +0.019 A 
ATOM     20  C   LIG    1       21.509 -19.256   4.302  0.00  0.00    +0.052 A 
ATOM     21  C   LIG    1       22.731 -19.154   4.970  0.00  0.00    +0.019 A 
ATOM     22  C   LIG    1       23.343 -17.907   5.132  0.00  0.00    +0.011 A 
BRANCH  20  23
ATOM     23  C   LIG    1       20.881 -20.532   4.148  0.00  0.00    +0.099 C 
ATOM     24  N   LIG    1       20.357 -21.568   4.025  0.00  0.00    -0.191 NA
ENDBRANCH  20  23
ENDBRANCH  15  17
ENDBRANCH  11  12
ENDBRANCH   1  11
BRANCH   1  25
ATOM     25  O   LIG    1       28.710 -13.844   3.594  0.00  0.00    -0.381 OA
ATOM     26  H   LIG    1       28.964 -14.000   4.521  0.00  0.00    +0.211 HD
ENDBRANCH   1  25
BRANCH   1  27
ATOM     27  C   LIG    1       26.964 -13.789   1.975  0.00  0.00    +0.185 C 
BRANCH  27  28
ATOM     28  N   LIG    1       25.721 -13.047   1.876  0.00  0.00    -0.249 N 
ATOM     29  N   LIG    1       25.713 -11.703   1.872  0.00  0.00    -0.158 NA
ATOM     30  C   LIG    1       24.403 -11.447   1.896  0.00  0.00    +0.244 A 
ATOM     31  N   LIG    1       23.595 -12.547   1.862  0.00  0.00    -0.223 NA
ATOM     32  C   LIG    1       24.453 -13.540   1.814  0.00  0.00    +0.219 A 
ENDBRANCH  27  28
ENDBRANCH   1  27
TORSDOF 8
ENDMDL
