MODEL 1
REMARK VINA RESULT:       4.7      0.000      0.000
REMARK  Name = *****
REMARK                            x       y       z     vdW  Elec       q    Type
REMARK                         _______ _______ _______ _____ _____    ______ ____
ROOT
ATOM      1  C   LIG    1       25.599 -12.828   4.094  0.00  0.00    +0.132 C 
ATOM      2  C   LIG    1       25.181 -14.150   4.821  0.00  0.00    +0.014 C 
ATOM      3  C   LIG    1       26.059 -15.239   4.123  0.00  0.00    +0.002 C 
ATOM      4  C   LIG    1       25.383 -16.052   2.986  0.00  0.00    -0.003 C 
ATOM      5  C   LIG    1       23.951 -16.494   3.332  0.00  0.00    -0.000 C 
ATOM      6  C   LIG    1       23.121 -15.237   3.601  0.00  0.00    +0.005 C 
ATOM      7  C   LIG    1       23.914 -17.562   4.465  0.00  0.00    +0.019 C 
ATOM      8  C   LIG    1       24.837 -18.730   4.140  0.00  0.00    -0.063 C 
ATOM      9  C   LIG    1       24.496 -20.017   4.324  0.00  0.00    +0.045 C 
ATOM     10  C   LIG    1       23.217 -20.386   4.974  0.00  0.00    +0.156 C 
ATOM     11  O   LIG    1       22.918 -21.572   5.094  0.00  0.00    -0.293 OA
ATOM     12  C   LIG    1       22.389 -19.279   5.573  0.00  0.00    +0.079 C 
ATOM     13  C   LIG    1       26.218 -18.383   3.636  0.00  0.00    +0.031 C 
ATOM     14  C   LIG    1       22.464 -18.034   4.705  0.00  0.00    +0.016 C 
ATOM     15  C   LIG    1       26.203 -17.290   2.570  0.00  0.00    +0.008 C 
ATOM     16  C   LIG    1       27.302 -14.495   3.574  0.00  0.00    +0.008 C 
ATOM     17  C   LIG    1       23.642 -14.422   4.775  0.00  0.00    +0.011 C 
ATOM     18  C   LIG    1       27.094 -13.002   3.806  0.00  0.00    +0.049 C 
ENDROOT
BRANCH   1  20
ATOM     19  C   LIG    1       24.284 -12.327   1.812  0.00  0.00    +0.007 C 
ATOM     20  C   LIG    1       24.894 -12.568   2.819  0.00  0.00    -0.070 C 
ENDBRANCH   1  20
BRANCH   1  21
ATOM     21  O   LIG    1       25.395 -11.698   4.933  0.00  0.00    -0.376 OA
ATOM     22  H   LIG    1       25.390 -10.914   4.358  0.00  0.00    +0.211 HD
ENDBRANCH   1  21
BRANCH   2  23
ATOM     23  C   LIG    1       25.494 -14.111   6.372  0.00  0.00    +0.007 C 
ATOM     24  C   LIG    1       26.867 -13.680   6.865  0.00  0.00    +0.004 C 
ENDBRANCH   2  23
TORSDOF 3
ENDMDL
MODEL 2
REMARK VINA RESULT:       5.5      1.676      6.426
REMARK  Name = *****
REMARK                            x       y       z     vdW  Elec       q    Type
REMARK                         _______ _______ _______ _____ _____    ______ ____
ROOT
ATOM      1  C   LIG    1       22.424 -20.050   4.506  0.00  0.00    +0.132 C 
ATOM      2  C   LIG    1       22.485 -18.654   3.802  0.00  0.00    +0.014 C 
ATOM      3  C   LIG    1       23.978 -18.541   3.352  0.00  0.00    +0.002 C 
ATOM      4  C   LIG    1       24.925 -17.734   4.281  0.00  0.00    -0.003 C 
ATOM      5  C   LIG    1       24.297 -16.426   4.789  0.00  0.00    -0.000 C 
ATOM      6  C   LIG    1       23.028 -16.779   5.565  0.00  0.00    +0.005 C 
ATOM      7  C   LIG    1       24.103 -15.377   3.653  0.00  0.00    +0.019 C 
ATOM      8  C   LIG    1       25.403 -15.160   2.887  0.00  0.00    -0.063 C 
ATOM      9  C   LIG    1       25.854 -13.947   2.525  0.00  0.00    +0.045 C 
ATOM     10  C   LIG    1       25.043 -12.728   2.750  0.00  0.00    +0.156 C 
ATOM     11  O   LIG    1       25.501 -11.630   2.440  0.00  0.00    -0.293 OA
ATOM     12  C   LIG    1       23.632 -12.905   3.244  0.00  0.00    +0.079 C 
ATOM     13  C   LIG    1       26.170 -16.398   2.488  0.00  0.00    +0.031 C 
ATOM     14  C   LIG    1       23.559 -14.055   4.235  0.00  0.00    +0.016 C 
ATOM     15  C   LIG    1       26.281 -17.417   3.619  0.00  0.00    +0.008 C 
ATOM     16  C   LIG    1       24.490 -19.997   3.209  0.00  0.00    +0.008 C 
ATOM     17  C   LIG    1       21.985 -17.481   4.708  0.00  0.00    +0.011 C 
ATOM     18  C   LIG    1       23.389 -20.929   3.702  0.00  0.00    +0.049 C 
ENDROOT
BRANCH   1  20
ATOM     19  C   LIG    1       23.233 -20.076   7.062  0.00  0.00    +0.007 C 
ATOM     20  C   LIG    1       22.844 -20.053   5.925  0.00  0.00    -0.070 C 
ENDBRANCH   1  20
BRANCH   1  21
ATOM     21  O   LIG    1       21.111 -20.593   4.449  0.00  0.00    -0.376 OA
ATOM     22  H   LIG    1       20.933 -20.999   5.314  0.00  0.00    +0.211 HD
ENDBRANCH   1  21
BRANCH   2  23
ATOM     23  C   LIG    1       21.529 -18.569   2.544  0.00  0.00    +0.007 C 
ATOM     24  C   LIG    1       20.075 -18.155   2.714  0.00  0.00    +0.004 C 
ENDBRANCH   2  23
TORSDOF 3
ENDMDL
MODEL 3
REMARK VINA RESULT:       5.6      1.381      6.415
REMARK  Name = *****
REMARK                            x       y       z     vdW  Elec       q    Type
REMARK                         _______ _______ _______ _____ _____    ______ ____
ROOT
ATOM      1  C   LIG    1       23.593 -20.321   4.468  0.00  0.00    +0.132 C 
ATOM      2  C   LIG    1       24.537 -19.172   4.957  0.00  0.00    +0.014 C 
ATOM      3  C   LIG    1       23.633 -17.900   4.864  0.00  0.00    +0.002 C 
ATOM      4  C   LIG    1       23.790 -17.026   3.591  0.00  0.00    -0.003 C 
ATOM      5  C   LIG    1       25.258 -16.813   3.185  0.00  0.00    -0.000 C 
ATOM      6  C   LIG    1       25.881 -18.185   2.923  0.00  0.00    +0.005 C 
ATOM      7  C   LIG    1       26.033 -15.921   4.201  0.00  0.00    +0.019 C 
ATOM      8  C   LIG    1       25.288 -14.617   4.457  0.00  0.00    -0.063 C 
ATOM      9  C   LIG    1       25.893 -13.418   4.515  0.00  0.00    +0.045 C 
ATOM     10  C   LIG    1       27.368 -13.298   4.445  0.00  0.00    +0.156 C 
ATOM     11  O   LIG    1       27.887 -12.185   4.463  0.00  0.00    -0.293 OA
ATOM     12  C   LIG    1       28.177 -14.569   4.475  0.00  0.00    +0.079 C 
ATOM     13  C   LIG    1       23.802 -14.722   4.706  0.00  0.00    +0.031 C 
ATOM     14  C   LIG    1       27.470 -15.665   3.697  0.00  0.00    +0.016 C 
ATOM     15  C   LIG    1       23.100 -15.653   3.720  0.00  0.00    +0.008 C 
ATOM     16  C   LIG    1       22.173 -18.406   4.983  0.00  0.00    +0.008 C 
ATOM     17  C   LIG    1       25.873 -19.083   4.151  0.00  0.00    +0.011 C 
ATOM     18  C   LIG    1       22.207 -19.930   4.991  0.00  0.00    +0.049 C 
ENDROOT
BRANCH   1  20
ATOM     19  C   LIG    1       23.470 -20.678   1.814  0.00  0.00    +0.007 C 
ATOM     20  C   LIG    1       23.521 -20.488   3.000  0.00  0.00    -0.070 C 
ENDBRANCH   1  20
BRANCH   1  21
ATOM     21  O   LIG    1       23.985 -21.572   5.021  0.00  0.00    -0.376 OA
ATOM     22  H   LIG    1       24.744 -21.887   4.502  0.00  0.00    +0.211 HD
ENDBRANCH   1  21
BRANCH   2  23
ATOM     23  C   LIG    1       25.027 -19.384   6.446  0.00  0.00    +0.007 C 
ATOM     24  C   LIG    1       26.192 -20.316   6.742  0.00  0.00    +0.004 C 
ENDBRANCH   2  23
TORSDOF 3
ENDMDL
MODEL 4
REMARK VINA RESULT:       6.1      1.542      6.382
REMARK  Name = *****
REMARK                            x       y       z     vdW  Elec       q    Type
REMARK                         _______ _______ _______ _____ _____    ______ ____
ROOT
ATOM      1  C   LIG    1       24.776 -20.695   4.662  0.00  0.00    +0.132 C 
ATOM      2  C   LIG    1       25.180 -19.206   4.924  0.00  0.00    +0.014 C 
ATOM      3  C   LIG    1       23.820 -18.520   5.275  0.00  0.00    +0.002 C 
ATOM      4  C   LIG    1       23.104 -17.766   4.122  0.00  0.00    -0.003 C 
ATOM      5  C   LIG    1       24.063 -16.915   3.273  0.00  0.00    -0.000 C 
ATOM      6  C   LIG    1       25.117 -17.847   2.673  0.00  0.00    +0.005 C 
ATOM      7  C   LIG    1       24.632 -15.695   4.057  0.00  0.00    +0.019 C 
ATOM      8  C   LIG    1       23.506 -14.882   4.685  0.00  0.00    -0.063 C 
ATOM      9  C   LIG    1       23.463 -13.539   4.662  0.00  0.00    +0.045 C 
ATOM     10  C   LIG    1       24.586 -12.743   4.115  0.00  0.00    +0.156 C 
ATOM     11  O   LIG    1       24.499 -11.519   4.075  0.00  0.00    -0.293 OA
ATOM     12  C   LIG    1       25.847 -13.477   3.738  0.00  0.00    +0.079 C 
ATOM     13  C   LIG    1       22.429 -15.657   5.405  0.00  0.00    +0.031 C 
ATOM     14  C   LIG    1       25.511 -14.829   3.130  0.00  0.00    +0.016 C 
ATOM     15  C   LIG    1       21.948 -16.875   4.619  0.00  0.00    +0.008 C 
ATOM     16  C   LIG    1       22.905 -19.644   5.822  0.00  0.00    +0.008 C 
ATOM     17  C   LIG    1       25.952 -18.555   3.730  0.00  0.00    +0.011 C 
ATOM     18  C   LIG    1       23.643 -20.968   5.658  0.00  0.00    +0.049 C 
ENDROOT
BRANCH   1  20
ATOM     19  C   LIG    1       23.842 -21.197   2.200  0.00  0.00    +0.007 C 
ATOM     20  C   LIG    1       24.288 -20.978   3.293  0.00  0.00    -0.070 C 
ENDBRANCH   1  20
BRANCH   1  21
ATOM     21  O   LIG    1       25.867 -21.572   4.916  0.00  0.00    -0.376 OA
ATOM     22  H   LIG    1       25.489 -22.444   5.123  0.00  0.00    +0.211 HD
ENDBRANCH   1  21
BRANCH   2  23
ATOM     23  C   LIG    1       26.192 -19.058   6.131  0.00  0.00    +0.007 C 
ATOM     24  C   LIG    1       27.638 -19.504   5.976  0.00  0.00    +0.004 C 
ENDBRANCH   2  23
TORSDOF 3
ENDMDL
MODEL 5
REMARK VINA RESULT:       7.2      1.310      1.740
REMARK  Name = *****
REMARK                            x       y       z     vdW  Elec       q    Type
REMARK                         _______ _______ _______ _____ _____    ______ ____
ROOT
ATOM      1  C   LIG    1       24.458 -12.396   4.436  0.00  0.00    +0.132 C 
ATOM      2  C   LIG    1       24.201 -13.890   4.825  0.00  0.00    +0.014 C 
ATOM      3  C   LIG    1       25.620 -14.539   4.722  0.00  0.00    +0.002 C 
ATOM      4  C   LIG    1       25.946 -15.293   3.405  0.00  0.00    -0.003 C 
ATOM      5  C   LIG    1       24.788 -16.179   2.917  0.00  0.00    -0.000 C 
ATOM      6  C   LIG    1       23.571 -15.282   2.684  0.00  0.00    +0.005 C 
ATOM      7  C   LIG    1       24.536 -17.400   3.852  0.00  0.00    +0.019 C 
ATOM      8  C   LIG    1       25.826 -18.177   4.087  0.00  0.00    -0.063 C 
ATOM      9  C   LIG    1       25.897 -19.519   4.062  0.00  0.00    +0.045 C 
ATOM     10  C   LIG    1       24.679 -20.349   3.912  0.00  0.00    +0.156 C 
ATOM     11  O   LIG    1       24.782 -21.572   3.855  0.00  0.00    -0.293 OA
ATOM     12  C   LIG    1       23.345 -19.651   3.958  0.00  0.00    +0.079 C 
ATOM     13  C   LIG    1       27.057 -17.365   4.415  0.00  0.00    +0.031 C 
ATOM     14  C   LIG    1       23.429 -18.301   3.265  0.00  0.00    +0.016 C 
ATOM     15  C   LIG    1       27.224 -16.149   3.508  0.00  0.00    +0.008 C 
ATOM     16  C   LIG    1       26.631 -13.385   4.936  0.00  0.00    +0.008 C 
ATOM     17  C   LIG    1       23.103 -14.578   3.949  0.00  0.00    +0.011 C 
ATOM     18  C   LIG    1       25.844 -12.081   5.010  0.00  0.00    +0.049 C 
ENDROOT
BRANCH   1  20
ATOM     19  C   LIG    1       24.490 -11.849   1.812  0.00  0.00    +0.007 C 
ATOM     20  C   LIG    1       24.469 -12.123   2.982  0.00  0.00    -0.070 C 
ENDBRANCH   1  20
BRANCH   1  21
ATOM     21  O   LIG    1       23.484 -11.542   5.023  0.00  0.00    -0.376 OA
ATOM     22  H   LIG    1       23.514 -10.700   4.538  0.00  0.00    +0.211 HD
ENDBRANCH   1  21
BRANCH   2  23
ATOM     23  C   LIG    1       23.638 -14.044   6.295  0.00  0.00    +0.007 C 
ATOM     24  C   LIG    1       22.358 -14.826   6.546  0.00  0.00    +0.004 C 
ENDBRANCH   2  23
TORSDOF 3
ENDMDL
