MODEL 1
REMARK VINA RESULT:      -3.0      0.000      0.000
REMARK  Name = *****
REMARK                            x       y       z     vdW  Elec       q    Type
REMARK                         _______ _______ _______ _____ _____    ______ ____
ROOT
ATOM      1  C   LIG    1       26.674 -12.829   5.349  0.00  0.00    +0.037 C 
ATOM      2  C   LIG    1       26.301 -13.954   4.361  0.00  0.00    +0.113 C 
ATOM      3  S   LIG    1       26.529 -13.378   2.646  0.00  0.00    -0.004 S 
ATOM      4  O   LIG    1       26.837 -14.523   1.812  0.00  0.00    -0.172 OA
ATOM      5  O   LIG    1       27.395 -12.215   2.640  0.00  0.00    -0.172 OA
ATOM      6  C   LIG    1       24.838 -12.874   2.289  0.00  0.00    +0.228 C 
ATOM      7  N   LIG    1       24.103 -13.325   3.505  0.00  0.00    -0.263 N 
ATOM      8  C   LIG    1       23.845 -12.043   3.918  0.00  0.00    +0.221 C 
ATOM      9  O   LIG    1       23.515 -11.634   5.004  0.00  0.00    -0.275 OA
ATOM     10  C   LIG    1       24.386 -11.447   2.614  0.00  0.00    +0.142 C 
ATOM     11  C   LIG    1       24.788 -14.261   4.420  0.00  0.00    +0.213 C 
ATOM     12  C   LIG    1       27.238 -15.134   4.650  0.00  0.00    +0.037 C 
ENDROOT
BRANCH  11  13
ATOM     13  C   LIG    1       24.376 -15.693   4.041  0.00  0.00    +0.328 C 
ATOM     14  O   LIG    1       25.120 -16.513   3.527  0.00  0.00    -0.249 OA
BRANCH  13  15
ATOM     15  O   LIG    1       23.115 -16.016   4.418  0.00  0.00    -0.479 OA
ATOM     16  H   LIG    1       23.009 -16.984   4.523  0.00  0.00    +0.295 HD
ENDBRANCH  13  15
ENDBRANCH  11  13
TORSDOF 2
ENDMDL
MODEL 2
REMARK VINA RESULT:      -1.8      2.011      3.204
REMARK  Name = *****
REMARK                            x       y       z     vdW  Elec       q    Type
REMARK                         _______ _______ _______ _____ _____    ______ ____
ROOT
ATOM      1  C   LIG    1       26.470 -12.146   2.200  0.00  0.00    +0.037 C 
ATOM      2  C   LIG    1       27.030 -13.060   3.310  0.00  0.00    +0.113 C 
ATOM      3  S   LIG    1       26.330 -14.736   3.148  0.00  0.00    -0.004 S 
ATOM      4  O   LIG    1       27.285 -15.688   3.683  0.00  0.00    -0.172 OA
ATOM      5  O   LIG    1       25.796 -14.908   1.812  0.00  0.00    -0.172 OA
ATOM      6  C   LIG    1       24.976 -14.593   4.326  0.00  0.00    +0.228 C 
ATOM      7  N   LIG    1       25.216 -13.252   4.932  0.00  0.00    -0.263 N 
ATOM      8  C   LIG    1       24.090 -12.710   4.365  0.00  0.00    +0.221 C 
ATOM      9  O   LIG    1       23.790 -11.554   4.199  0.00  0.00    -0.275 OA
ATOM     10  C   LIG    1       23.613 -14.075   3.856  0.00  0.00    +0.142 C 
ATOM     11  C   LIG    1       26.527 -12.612   4.701  0.00  0.00    +0.213 C 
ATOM     12  C   LIG    1       28.553 -13.104   3.129  0.00  0.00    +0.037 C 
ENDROOT
BRANCH  11  13
ATOM     13  C   LIG    1       27.443 -12.948   5.889  0.00  0.00    +0.328 C 
ATOM     14  O   LIG    1       27.240 -13.851   6.685  0.00  0.00    -0.249 OA
BRANCH  13  15
ATOM     15  O   LIG    1       28.576 -12.205   5.931  0.00  0.00    -0.479 OA
ATOM     16  H   LIG    1       28.731 -11.742   5.082  0.00  0.00    +0.295 HD
ENDBRANCH  13  15
ENDBRANCH  11  13
TORSDOF 2
ENDMDL
MODEL 3
REMARK VINA RESULT:      -1.7      2.092      3.694
REMARK  Name = *****
REMARK                            x       y       z     vdW  Elec       q    Type
REMARK                         _______ _______ _______ _____ _____    ______ ____
ROOT
ATOM      1  C   LIG    1       26.095 -12.511   2.201  0.00  0.00    +0.037 C 
ATOM      2  C   LIG    1       25.679 -13.781   2.971  0.00  0.00    +0.113 C 
ATOM      3  S   LIG    1       25.199 -13.346   4.676  0.00  0.00    -0.004 S 
ATOM      4  O   LIG    1       24.228 -14.317   5.143  0.00  0.00    -0.172 OA
ATOM      5  O   LIG    1       24.907 -11.928   4.746  0.00  0.00    -0.172 OA
ATOM      6  C   LIG    1       26.760 -13.683   5.505  0.00  0.00    +0.228 C 
ATOM      7  N   LIG    1       27.582 -14.284   4.415  0.00  0.00    -0.263 N 
ATOM      8  C   LIG    1       28.437 -13.213   4.366  0.00  0.00    +0.221 C 
ATOM      9  O   LIG    1       29.209 -12.882   3.501  0.00  0.00    -0.275 OA
ATOM     10  C   LIG    1       27.816 -12.579   5.615  0.00  0.00    +0.142 C 
ATOM     11  C   LIG    1       26.889 -14.719   3.185  0.00  0.00    +0.213 C 
ATOM     12  C   LIG    1       24.483 -14.387   2.224  0.00  0.00    +0.037 C 
ENDROOT
BRANCH  11  13
ATOM     13  C   LIG    1       26.565 -16.216   3.318  0.00  0.00    +0.328 C 
ATOM     14  O   LIG    1       25.493 -16.720   3.025  0.00  0.00    -0.249 OA
BRANCH  13  15
ATOM     15  O   LIG    1       27.622 -16.970   3.708  0.00  0.00    -0.479 OA
ATOM     16  H   LIG    1       27.426 -17.926   3.634  0.00  0.00    +0.295 HD
ENDBRANCH  13  15
ENDBRANCH  11  13
TORSDOF 2
ENDMDL
MODEL 4
REMARK VINA RESULT:      -1.1      2.080      3.595
REMARK  Name = *****
REMARK                            x       y       z     vdW  Elec       q    Type
REMARK                         _______ _______ _______ _____ _____    ______ ____
ROOT
ATOM      1  C   LIG    1       25.342 -15.572   4.394  0.00  0.00    +0.037 C 
ATOM      2  C   LIG    1       24.851 -14.166   3.990  0.00  0.00    +0.113 C 
ATOM      3  S   LIG    1       25.826 -13.548   2.579  0.00  0.00    -0.004 S 
ATOM      4  O   LIG    1       24.999 -12.635   1.812  0.00  0.00    -0.172 OA
ATOM      5  O   LIG    1       26.486 -14.660   1.925  0.00  0.00    -0.172 OA
ATOM      6  C   LIG    1       27.040 -12.569   3.478  0.00  0.00    +0.228 C 
ATOM      7  N   LIG    1       26.537 -12.640   4.880  0.00  0.00    -0.263 N 
ATOM      8  C   LIG    1       27.600 -13.395   5.305  0.00  0.00    +0.221 C 
ATOM      9  O   LIG    1       27.720 -14.071   6.296  0.00  0.00    -0.275 OA
ATOM     10  C   LIG    1       28.333 -13.227   3.969  0.00  0.00    +0.142 C 
ATOM     11  C   LIG    1       25.162 -13.134   5.098  0.00  0.00    +0.213 C 
ATOM     12  C   LIG    1       23.375 -14.302   3.594  0.00  0.00    +0.037 C 
ENDROOT
BRANCH  11  13
ATOM     13  C   LIG    1       24.220 -11.921   5.171  0.00  0.00    +0.328 C 
ATOM     14  O   LIG    1       23.612 -11.459   4.218  0.00  0.00    -0.249 OA
BRANCH  13  15
ATOM     15  O   LIG    1       24.037 -11.447   6.427  0.00  0.00    -0.479 OA
ATOM     16  H   LIG    1       24.717 -11.791   7.042  0.00  0.00    +0.295 HD
ENDBRANCH  13  15
ENDBRANCH  11  13
TORSDOF 2
ENDMDL
MODEL 5
REMARK VINA RESULT:      -0.8      2.024      3.504
REMARK  Name = *****
REMARK                            x       y       z     vdW  Elec       q    Type
REMARK                         _______ _______ _______ _____ _____    ______ ____
ROOT
ATOM      1  C   LIG    1       26.344 -14.063   6.025  0.00  0.00    +0.037 C 
ATOM      2  C   LIG    1       25.686 -14.011   4.630  0.00  0.00    +0.113 C 
ATOM      3  S   LIG    1       26.591 -15.093   3.475  0.00  0.00    -0.004 S 
ATOM      4  O   LIG    1       25.666 -15.561   2.461  0.00  0.00    -0.172 OA
ATOM      5  O   LIG    1       27.391 -16.039   4.227  0.00  0.00    -0.172 OA
ATOM      6  C   LIG    1       27.665 -13.863   2.716  0.00  0.00    +0.228 C 
ATOM      7  N   LIG    1       27.160 -12.588   3.302  0.00  0.00    -0.263 N 
ATOM      8  C   LIG    1       28.305 -12.380   4.029  0.00  0.00    +0.221 C 
ATOM      9  O   LIG    1       28.497 -11.658   4.975  0.00  0.00    -0.275 OA
ATOM     10  C   LIG    1       29.025 -13.549   3.347  0.00  0.00    +0.142 C 
ATOM     11  C   LIG    1       25.855 -12.613   3.993  0.00  0.00    +0.213 C 
ATOM     12  C   LIG    1       24.243 -14.504   4.795  0.00  0.00    +0.037 C 
ENDROOT
BRANCH  11  13
ATOM     13  C   LIG    1       24.770 -12.196   2.987  0.00  0.00    +0.328 C 
ATOM     14  O   LIG    1       24.742 -12.542   1.817  0.00  0.00    -0.249 OA
BRANCH  13  15
ATOM     15  O   LIG    1       23.765 -11.472   3.538  0.00  0.00    -0.479 OA
ATOM     16  H   LIG    1       23.346 -11.950   4.282  0.00  0.00    +0.295 HD
ENDBRANCH  13  15
ENDBRANCH  11  13
TORSDOF 2
ENDMDL
MODEL 6
REMARK VINA RESULT:      -0.6      5.222      7.307
REMARK  Name = *****
REMARK                            x       y       z     vdW  Elec       q    Type
REMARK                         _______ _______ _______ _____ _____    ______ ____
ROOT
ATOM      1  C   LIG    1       24.223 -21.505   3.125  0.00  0.00    +0.037 C 
ATOM      2  C   LIG    1       24.534 -20.101   3.687  0.00  0.00    +0.113 C 
ATOM      3  S   LIG    1       25.470 -20.248   5.245  0.00  0.00    -0.004 S 
ATOM      4  O   LIG    1       26.300 -19.069   5.397  0.00  0.00    -0.172 OA
ATOM      5  O   LIG    1       26.055 -21.571   5.333  0.00  0.00    -0.172 OA
ATOM      6  C   LIG    1       24.103 -20.114   6.410  0.00  0.00    +0.228 C 
ATOM      7  N   LIG    1       22.949 -19.800   5.519  0.00  0.00    -0.263 N 
ATOM      8  C   LIG    1       22.344 -21.009   5.750  0.00  0.00    +0.221 C 
ATOM      9  O   LIG    1       21.480 -21.571   5.124  0.00  0.00    -0.275 OA
ATOM     10  C   LIG    1       23.351 -21.375   6.846  0.00  0.00    +0.142 C 
ATOM     11  C   LIG    1       23.239 -19.385   4.131  0.00  0.00    +0.213 C 
ATOM     12  C   LIG    1       25.377 -19.373   2.632  0.00  0.00    +0.037 C 
ENDROOT
BRANCH  11  13
ATOM     13  C   LIG    1       23.269 -17.849   4.084  0.00  0.00    +0.328 C 
ATOM     14  O   LIG    1       24.215 -17.188   3.686  0.00  0.00    -0.249 OA
BRANCH  13  15
ATOM     15  O   LIG    1       22.097 -17.269   4.441  0.00  0.00    -0.479 OA
ATOM     16  H   LIG    1       22.150 -16.878   5.337  0.00  0.00    +0.295 HD
ENDBRANCH  13  15
ENDBRANCH  11  13
TORSDOF 2
ENDMDL
