MODEL 1
REMARK VINA RESULT:      -8.4      0.000      0.000
REMARK  Name = *****
REMARK                            x       y       z     vdW  Elec       q    Type
REMARK                         _______ _______ _______ _____ _____    ______ ____
ROOT
ATOM      1  C   LIG    1       27.669 -21.441   6.866  0.00  0.00    +0.122 A 
ATOM      2  N   LIG    1       27.401 -22.650   7.374  0.00  0.00    -0.237 NA
ATOM      3  C   LIG    1       26.143 -23.154   7.283  0.00  0.00    +0.047 A 
ATOM      4  C   LIG    1       26.025 -24.550   7.853  0.00  0.00    +0.056 C 
ATOM      5  C   LIG    1       26.248 -25.657   6.822  0.00  0.00    +0.006 C 
ATOM      6  C   LIG    1       25.051 -25.990   5.927  0.00  0.00    +0.000 C 
ATOM      7  C   LIG    1       24.709 -24.931   4.878  0.00  0.00    +0.000 C 
ATOM      8  C   LIG    1       23.566 -23.989   5.260  0.00  0.00    +0.005 C 
ATOM      9  C   LIG    1       23.745 -23.190   6.547  0.00  0.00    +0.037 C 
ATOM     10  C   LIG    1       25.072 -22.471   6.670  0.00  0.00    -0.018 A 
ATOM     11  C   LIG    1       25.335 -21.179   6.143  0.00  0.00    -0.010 A 
ATOM     12  C   LIG    1       26.660 -20.691   6.278  0.00  0.00    +0.052 A 
ENDROOT
BRANCH  11  13
ATOM     13  C   LIG    1       24.358 -20.298   5.435  0.00  0.00    -0.017 A 
ATOM     14  C   LIG    1       23.063 -20.089   5.970  0.00  0.00    +0.011 A 
ATOM     15  C   LIG    1       22.095 -19.332   5.307  0.00  0.00    +0.039 A 
ATOM     16  C   LIG    1       22.412 -18.719   4.103  0.00  0.00    +0.123 A 
ATOM     17  F   LIG    1       21.499 -17.979   3.471  0.00  0.00    -0.205 F 
ATOM     18  C   LIG    1       23.673 -18.892   3.545  0.00  0.00    +0.039 A 
ATOM     19  C   LIG    1       24.616 -19.700   4.186  0.00  0.00    +0.011 A 
ENDBRANCH  11  13
BRANCH   1  23
ATOM     20  N   LIG    1       31.009 -18.982   7.923  0.00  0.00    -0.300 NA
ATOM     21  C   LIG    1       30.938 -20.385   8.380  0.00  0.00    +0.103 C 
ATOM     22  C   LIG    1       29.563 -21.082   8.241  0.00  0.00    +0.122 C 
ATOM     23  N   LIG    1       28.999 -20.940   6.877  0.00  0.00    -0.313 N 
ATOM     24  C   LIG    1       29.063 -19.556   6.354  0.00  0.00    +0.122 C 
ATOM     25  C   LIG    1       30.470 -18.935   6.541  0.00  0.00    +0.103 C 
BRANCH  20  27
ATOM     26  C   LIG    1       30.844 -17.958  10.221  0.00  0.00    +0.020 C 
ATOM     27  C   LIG    1       30.314 -18.018   8.790  0.00  0.00    +0.081 C 
ENDBRANCH  20  27
ENDBRANCH   1  23
TORSDOF 3
ENDMDL
MODEL 2
REMARK VINA RESULT:      -8.1      3.253      7.114
REMARK  Name = *****
REMARK                            x       y       z     vdW  Elec       q    Type
REMARK                         _______ _______ _______ _____ _____    ______ ____
ROOT
ATOM      1  C   LIG    1       25.287 -24.754   6.502  0.00  0.00    +0.122 A 
ATOM      2  N   LIG    1       23.998 -24.407   6.601  0.00  0.00    -0.237 NA
ATOM      3  C   LIG    1       23.665 -23.107   6.810  0.00  0.00    +0.047 A 
ATOM      4  C   LIG    1       22.170 -22.879   6.839  0.00  0.00    +0.056 C 
ATOM      5  C   LIG    1       21.574 -22.526   5.475  0.00  0.00    +0.006 C 
ATOM      6  C   LIG    1       21.724 -21.067   5.036  0.00  0.00    +0.000 C 
ATOM      7  C   LIG    1       23.143 -20.647   4.647  0.00  0.00    +0.000 C 
ATOM      8  C   LIG    1       23.921 -19.910   5.740  0.00  0.00    +0.005 C 
ATOM      9  C   LIG    1       24.102 -20.649   7.061  0.00  0.00    +0.037 C 
ATOM     10  C   LIG    1       24.613 -22.069   6.931  0.00  0.00    -0.018 A 
ATOM     11  C   LIG    1       25.985 -22.423   6.848  0.00  0.00    -0.010 A 
ATOM     12  C   LIG    1       26.281 -23.796   6.645  0.00  0.00    +0.052 A 
ENDROOT
BRANCH  11  13
ATOM     13  C   LIG    1       27.146 -21.485   6.924  0.00  0.00    -0.017 A 
ATOM     14  C   LIG    1       27.335 -20.496   5.927  0.00  0.00    +0.011 A 
ATOM     15  C   LIG    1       28.442 -19.646   5.920  0.00  0.00    +0.039 A 
ATOM     16  C   LIG    1       29.376 -19.730   6.942  0.00  0.00    +0.123 A 
ATOM     17  F   LIG    1       30.428 -18.910   6.953  0.00  0.00    -0.205 F 
ATOM     18  C   LIG    1       29.227 -20.681   7.945  0.00  0.00    +0.039 A 
ATOM     19  C   LIG    1       28.146 -21.567   7.911  0.00  0.00    +0.011 A 
ENDBRANCH  11  13
BRANCH   1  23
ATOM     20  N   LIG    1       25.111 -29.030   6.453  0.00  0.00    -0.300 NA
ATOM     21  C   LIG    1       24.773 -28.253   5.243  0.00  0.00    +0.103 C 
ATOM     22  C   LIG    1       24.539 -26.736   5.446  0.00  0.00    +0.122 C 
ATOM     23  N   LIG    1       25.645 -26.094   6.196  0.00  0.00    -0.313 N 
ATOM     24  C   LIG    1       26.045 -26.842   7.410  0.00  0.00    +0.122 C 
ATOM     25  C   LIG    1       26.251 -28.349   7.116  0.00  0.00    +0.103 C 
BRANCH  20  27
ATOM     26  C   LIG    1       24.354 -30.011   8.648  0.00  0.00    +0.020 C 
ATOM     27  C   LIG    1       23.995 -29.221   7.392  0.00  0.00    +0.081 C 
ENDBRANCH  20  27
ENDBRANCH   1  23
TORSDOF 3
ENDMDL
MODEL 3
REMARK VINA RESULT:      -7.5      2.370      4.981
REMARK  Name = *****
REMARK                            x       y       z     vdW  Elec       q    Type
REMARK                         _______ _______ _______ _____ _____    ______ ____
ROOT
ATOM      1  C   LIG    1       27.272 -20.024   5.984  0.00  0.00    +0.122 A 
ATOM      2  N   LIG    1       26.677 -19.256   5.064  0.00  0.00    -0.237 NA
ATOM      3  C   LIG    1       25.584 -19.719   4.405  0.00  0.00    +0.047 A 
ATOM      4  C   LIG    1       25.002 -18.706   3.444  0.00  0.00    +0.056 C 
ATOM      5  C   LIG    1       23.915 -17.825   4.063  0.00  0.00    +0.006 C 
ATOM      6  C   LIG    1       22.519 -18.448   4.152  0.00  0.00    +0.000 C 
ATOM      7  C   LIG    1       22.367 -19.557   5.195  0.00  0.00    +0.000 C 
ATOM      8  C   LIG    1       22.456 -20.980   4.642  0.00  0.00    +0.005 C 
ATOM      9  C   LIG    1       23.739 -21.343   3.900  0.00  0.00    +0.037 C 
ATOM     10  C   LIG    1       25.017 -20.991   4.632  0.00  0.00    -0.018 A 
ATOM     11  C   LIG    1       25.648 -21.826   5.591  0.00  0.00    -0.010 A 
ATOM     12  C   LIG    1       26.796 -21.303   6.241  0.00  0.00    +0.052 A 
ENDROOT
BRANCH  11  13
ATOM     13  C   LIG    1       25.202 -23.192   6.002  0.00  0.00    -0.017 A 
ATOM     14  C   LIG    1       26.137 -24.252   6.099  0.00  0.00    +0.011 A 
ATOM     15  C   LIG    1       25.755 -25.558   6.410  0.00  0.00    +0.039 A 
ATOM     16  C   LIG    1       24.422 -25.835   6.680  0.00  0.00    +0.123 A 
ATOM     17  F   LIG    1       24.050 -27.077   6.995  0.00  0.00    -0.205 F 
ATOM     18  C   LIG    1       23.472 -24.824   6.603  0.00  0.00    +0.039 A 
ATOM     19  C   LIG    1       23.856 -23.532   6.233  0.00  0.00    +0.011 A 
ENDBRANCH  11  13
BRANCH   1  23
ATOM     20  N   LIG    1       30.914 -20.004   8.233  0.00  0.00    -0.300 NA
ATOM     21  C   LIG    1       30.873 -19.437   6.869  0.00  0.00    +0.103 C 
ATOM     22  C   LIG    1       29.627 -19.787   6.019  0.00  0.00    +0.122 C 
ATOM     23  N   LIG    1       28.362 -19.518   6.743  0.00  0.00    -0.313 N 
ATOM     24  C   LIG    1       28.352 -20.044   8.127  0.00  0.00    +0.122 C 
ATOM     25  C   LIG    1       29.636 -19.652   8.901  0.00  0.00    +0.103 C 
BRANCH  20  27
ATOM     26  C   LIG    1       31.004 -22.068   9.678  0.00  0.00    +0.020 C 
ATOM     27  C   LIG    1       31.153 -21.455   8.288  0.00  0.00    +0.081 C 
ENDBRANCH  20  27
ENDBRANCH   1  23
TORSDOF 3
ENDMDL
MODEL 4
REMARK VINA RESULT:      -7.2      6.457      9.069
REMARK  Name = *****
REMARK                            x       y       z     vdW  Elec       q    Type
REMARK                         _______ _______ _______ _____ _____    ______ ____
ROOT
ATOM      1  C   LIG    1       25.645 -30.169  10.079  0.00  0.00    +0.122 A 
ATOM      2  N   LIG    1       25.341 -31.407   9.673  0.00  0.00    -0.237 NA
ATOM      3  C   LIG    1       24.976 -31.621   8.382  0.00  0.00    +0.047 A 
ATOM      4  C   LIG    1       24.723 -33.081   8.076  0.00  0.00    +0.056 C 
ATOM      5  C   LIG    1       25.956 -33.825   7.562  0.00  0.00    +0.006 C 
ATOM      6  C   LIG    1       26.283 -33.635   6.078  0.00  0.00    +0.000 C 
ATOM      7  C   LIG    1       26.825 -32.255   5.702  0.00  0.00    +0.000 C 
ATOM      8  C   LIG    1       25.790 -31.292   5.117  0.00  0.00    +0.005 C 
ATOM      9  C   LIG    1       24.574 -30.989   5.987  0.00  0.00    +0.037 C 
ATOM     10  C   LIG    1       24.896 -30.598   7.414  0.00  0.00    -0.018 A 
ATOM     11  C   LIG    1       25.198 -29.275   7.835  0.00  0.00    -0.010 A 
ATOM     12  C   LIG    1       25.558 -29.102   9.196  0.00  0.00    +0.052 A 
ENDROOT
BRANCH  11  13
ATOM     13  C   LIG    1       25.200 -28.054   6.973  0.00  0.00    -0.017 A 
ATOM     14  C   LIG    1       26.249 -27.107   7.076  0.00  0.00    +0.011 A 
ATOM     15  C   LIG    1       26.255 -25.919   6.343  0.00  0.00    +0.039 A 
ATOM     16  C   LIG    1       25.228 -25.662   5.446  0.00  0.00    +0.123 A 
ATOM     17  F   LIG    1       25.235 -24.537   4.729  0.00  0.00    -0.205 F 
ATOM     18  C   LIG    1       24.182 -26.567   5.308  0.00  0.00    +0.039 A 
ATOM     19  C   LIG    1       24.154 -27.725   6.090  0.00  0.00    +0.011 A 
ENDBRANCH  11  13
BRANCH   1  23
ATOM     20  N   LIG    1       26.876 -28.037  13.580  0.00  0.00    -0.300 NA
ATOM     21  C   LIG    1       25.589 -28.760  13.558  0.00  0.00    +0.103 C 
ATOM     22  C   LIG    1       25.078 -29.209  12.167  0.00  0.00    +0.122 C 
ATOM     23  N   LIG    1       26.113 -29.946  11.402  0.00  0.00    -0.313 N 
ATOM     24  C   LIG    1       27.435 -29.279  11.407  0.00  0.00    +0.122 C 
ATOM     25  C   LIG    1       27.863 -28.859  12.836  0.00  0.00    +0.103 C 
BRANCH  20  27
ATOM     26  C   LIG    1       25.680 -25.817  13.593  0.00  0.00    +0.020 C 
ATOM     27  C   LIG    1       26.821 -26.668  13.042  0.00  0.00    +0.081 C 
ENDBRANCH  20  27
ENDBRANCH   1  23
TORSDOF 3
ENDMDL
MODEL 5
REMARK VINA RESULT:      -7.1      4.092      6.662
REMARK  Name = *****
REMARK                            x       y       z     vdW  Elec       q    Type
REMARK                         _______ _______ _______ _____ _____    ______ ____
ROOT
ATOM      1  C   LIG    1       26.872 -18.112   4.134  0.00  0.00    +0.122 A 
ATOM      2  N   LIG    1       25.788 -18.872   3.936  0.00  0.00    -0.237 NA
ATOM      3  C   LIG    1       25.651 -20.040   4.615  0.00  0.00    +0.047 A 
ATOM      4  C   LIG    1       24.346 -20.744   4.318  0.00  0.00    +0.056 C 
ATOM      5  C   LIG    1       23.214 -20.373   5.277  0.00  0.00    +0.006 C 
ATOM      6  C   LIG    1       23.220 -21.090   6.630  0.00  0.00    +0.000 C 
ATOM      7  C   LIG    1       24.326 -20.652   7.593  0.00  0.00    +0.000 C 
ATOM      8  C   LIG    1       25.550 -21.568   7.629  0.00  0.00    +0.005 C 
ATOM      9  C   LIG    1       26.276 -21.786   6.305  0.00  0.00    +0.037 C 
ATOM     10  C   LIG    1       26.601 -20.518   5.543  0.00  0.00    -0.018 A 
ATOM     11  C   LIG    1       27.766 -19.733   5.750  0.00  0.00    -0.010 A 
ATOM     12  C   LIG    1       27.869 -18.530   5.005  0.00  0.00    +0.052 A 
ENDROOT
BRANCH  11  13
ATOM     13  C   LIG    1       28.879 -20.039   6.700  0.00  0.00    -0.017 A 
ATOM     14  C   LIG    1       30.028 -19.212   6.746  0.00  0.00    +0.011 A 
ATOM     15  C   LIG    1       31.121 -19.499   7.565  0.00  0.00    +0.039 A 
ATOM     16  C   LIG    1       31.078 -20.605   8.402  0.00  0.00    +0.123 A 
ATOM     17  F   LIG    1       32.110 -20.877   9.201  0.00  0.00    -0.205 F 
ATOM     18  C   LIG    1       29.967 -21.440   8.394  0.00  0.00    +0.039 A 
ATOM     19  C   LIG    1       28.902 -21.178   7.527  0.00  0.00    +0.011 A 
ENDBRANCH  11  13
BRANCH   1  23
ATOM     20  N   LIG    1       26.460 -13.899   3.505  0.00  0.00    -0.300 NA
ATOM     21  C   LIG    1       27.779 -14.482   3.824  0.00  0.00    +0.103 C 
ATOM     22  C   LIG    1       27.774 -15.935   4.360  0.00  0.00    +0.122 C 
ATOM     23  N   LIG    1       26.985 -16.847   3.497  0.00  0.00    -0.313 N 
ATOM     24  C   LIG    1       25.659 -16.305   3.124  0.00  0.00    +0.122 C 
ATOM     25  C   LIG    1       25.758 -14.848   2.606  0.00  0.00    +0.103 C 
BRANCH  20  27
ATOM     26  C   LIG    1       24.129 -13.575   4.409  0.00  0.00    +0.020 C 
ATOM     27  C   LIG    1       25.632 -13.575   4.677  0.00  0.00    +0.081 C 
ENDBRANCH  20  27
ENDBRANCH   1  23
TORSDOF 3
ENDMDL
MODEL 6
REMARK VINA RESULT:      -6.8      9.010     11.412
REMARK  Name = *****
REMARK                            x       y       z     vdW  Elec       q    Type
REMARK                         _______ _______ _______ _____ _____    ______ ____
ROOT
ATOM      1  C   LIG    1       25.320 -29.449  10.685  0.00  0.00    +0.122 A 
ATOM      2  N   LIG    1       24.124 -29.839  11.141  0.00  0.00    -0.237 NA
ATOM      3  C   LIG    1       23.680 -29.384  12.341  0.00  0.00    +0.047 A 
ATOM      4  C   LIG    1       22.290 -29.874  12.679  0.00  0.00    +0.056 C 
ATOM      5  C   LIG    1       21.176 -28.932  12.221  0.00  0.00    +0.006 C 
ATOM      6  C   LIG    1       20.904 -27.727  13.126  0.00  0.00    +0.000 C 
ATOM      7  C   LIG    1       21.981 -26.641  13.106  0.00  0.00    +0.000 C 
ATOM      8  C   LIG    1       22.976 -26.697  14.267  0.00  0.00    +0.005 C 
ATOM      9  C   LIG    1       23.761 -27.994  14.428  0.00  0.00    +0.037 C 
ATOM     10  C   LIG    1       24.416 -28.503  13.161  0.00  0.00    -0.018 A 
ATOM     11  C   LIG    1       25.695 -28.095  12.700  0.00  0.00    -0.010 A 
ATOM     12  C   LIG    1       26.119 -28.610  11.449  0.00  0.00    +0.052 A 
ENDROOT
BRANCH  11  13
ATOM     13  C   LIG    1       26.624 -27.152  13.394  0.00  0.00    -0.017 A 
ATOM     14  C   LIG    1       27.462 -27.611  14.440  0.00  0.00    +0.011 A 
ATOM     15  C   LIG    1       28.293 -26.753  15.162  0.00  0.00    +0.039 A 
ATOM     16  C   LIG    1       28.344 -25.407  14.827  0.00  0.00    +0.123 A 
ATOM     17  F   LIG    1       29.148 -24.582  15.500  0.00  0.00    -0.205 F 
ATOM     18  C   LIG    1       27.544 -24.914  13.803  0.00  0.00    +0.039 A 
ATOM     19  C   LIG    1       26.672 -25.771  13.125  0.00  0.00    +0.011 A 
ENDBRANCH  11  13
BRANCH   1  23
ATOM     20  N   LIG    1       25.470 -31.641   7.012  0.00  0.00    -0.300 NA
ATOM     21  C   LIG    1       24.986 -30.245   7.031  0.00  0.00    +0.103 C 
ATOM     22  C   LIG    1       24.651 -29.656   8.423  0.00  0.00    +0.122 C 
ATOM     23  N   LIG    1       25.757 -29.847   9.393  0.00  0.00    -0.313 N 
ATOM     24  C   LIG    1       26.301 -31.225   9.402  0.00  0.00    +0.122 C 
ATOM     25  C   LIG    1       26.600 -31.735   7.970  0.00  0.00    +0.103 C 
BRANCH  20  27
ATOM     26  C   LIG    1       23.371 -32.800   6.233  0.00  0.00    +0.020 C 
ATOM     27  C   LIG    1       24.444 -32.652   7.309  0.00  0.00    +0.081 C 
ENDBRANCH  20  27
ENDBRANCH   1  23
TORSDOF 3
ENDMDL
MODEL 7
REMARK VINA RESULT:      -6.7      6.102      9.869
REMARK  Name = *****
REMARK                            x       y       z     vdW  Elec       q    Type
REMARK                         _______ _______ _______ _____ _____    ______ ____
ROOT
ATOM      1  C   LIG    1       25.797 -28.460   7.233  0.00  0.00    +0.122 A 
ATOM      2  N   LIG    1       25.429 -29.667   6.789  0.00  0.00    -0.237 NA
ATOM      3  C   LIG    1       25.432 -30.727   7.638  0.00  0.00    +0.047 A 
ATOM      4  C   LIG    1       24.935 -32.001   6.992  0.00  0.00    +0.056 C 
ATOM      5  C   LIG    1       23.431 -32.227   7.154  0.00  0.00    +0.006 C 
ATOM      6  C   LIG    1       22.981 -32.808   8.497  0.00  0.00    +0.000 C 
ATOM      7  C   LIG    1       23.075 -31.848   9.685  0.00  0.00    +0.000 C 
ATOM      8  C   LIG    1       24.320 -32.020  10.557  0.00  0.00    +0.005 C 
ATOM      9  C   LIG    1       25.667 -31.876   9.856  0.00  0.00    +0.037 C 
ATOM     10  C   LIG    1       25.806 -30.637   8.995  0.00  0.00    -0.018 A 
ATOM     11  C   LIG    1       26.218 -29.367   9.478  0.00  0.00    -0.010 A 
ATOM     12  C   LIG    1       26.213 -28.296   8.548  0.00  0.00    +0.052 A 
ENDROOT
BRANCH  11  13
ATOM     13  C   LIG    1       26.628 -29.045  10.879  0.00  0.00    -0.017 A 
ATOM     14  C   LIG    1       27.909 -29.420  11.354  0.00  0.00    +0.011 A 
ATOM     15  C   LIG    1       28.308 -29.203  12.674  0.00  0.00    +0.039 A 
ATOM     16  C   LIG    1       27.448 -28.559  13.552  0.00  0.00    +0.123 A 
ATOM     17  F   LIG    1       27.827 -28.332  14.810  0.00  0.00    -0.205 F 
ATOM     18  C   LIG    1       26.184 -28.168  13.126  0.00  0.00    +0.039 A 
ATOM     19  C   LIG    1       25.771 -28.442  11.819  0.00  0.00    +0.011 A 
ENDBRANCH  11  13
BRANCH   1  23
ATOM     20  N   LIG    1       24.521 -24.654   5.750  0.00  0.00    -0.300 NA
ATOM     21  C   LIG    1       25.869 -24.817   6.331  0.00  0.00    +0.103 C 
ATOM     22  C   LIG    1       26.116 -26.116   7.135  0.00  0.00    +0.122 C 
ATOM     23  N   LIG    1       25.715 -27.327   6.380  0.00  0.00    -0.313 N 
ATOM     24  C   LIG    1       24.377 -27.214   5.753  0.00  0.00    +0.122 C 
ATOM     25  C   LIG    1       24.217 -25.883   4.977  0.00  0.00    +0.103 C 
BRANCH  20  27
ATOM     26  C   LIG    1       23.000 -22.918   6.765  0.00  0.00    +0.020 C 
ATOM     27  C   LIG    1       23.460 -24.373   6.730  0.00  0.00    +0.081 C 
ENDBRANCH  20  27
ENDBRANCH   1  23
TORSDOF 3
ENDMDL
MODEL 8
REMARK VINA RESULT:      -6.7      6.766     10.440
REMARK  Name = *****
REMARK                            x       y       z     vdW  Elec       q    Type
REMARK                         _______ _______ _______ _____ _____    ______ ____
ROOT
ATOM      1  C   LIG    1       25.179 -29.302   8.744  0.00  0.00    +0.122 A 
ATOM      2  N   LIG    1       24.155 -30.145   8.924  0.00  0.00    -0.237 NA
ATOM      3  C   LIG    1       23.821 -30.539  10.180  0.00  0.00    +0.047 A 
ATOM      4  C   LIG    1       22.609 -31.443  10.210  0.00  0.00    +0.056 C 
ATOM      5  C   LIG    1       21.287 -30.695  10.389  0.00  0.00    +0.006 C 
ATOM      6  C   LIG    1       20.938 -30.285  11.823  0.00  0.00    +0.000 C 
ATOM      7  C   LIG    1       21.785 -29.149  12.398  0.00  0.00    +0.000 C 
ATOM      8  C   LIG    1       22.935 -29.595  13.303  0.00  0.00    +0.005 C 
ATOM      9  C   LIG    1       23.958 -30.543  12.685  0.00  0.00    +0.037 C 
ATOM     10  C   LIG    1       24.498 -30.106  11.339  0.00  0.00    -0.018 A 
ATOM     11  C   LIG    1       25.599 -29.227  11.164  0.00  0.00    -0.010 A 
ATOM     12  C   LIG    1       25.918 -28.858   9.832  0.00  0.00    +0.052 A 
ENDROOT
BRANCH  11  13
ATOM     13  C   LIG    1       26.434 -28.630  12.250  0.00  0.00    -0.017 A 
ATOM     14  C   LIG    1       27.453 -29.393  12.871  0.00  0.00    +0.011 A 
ATOM     15  C   LIG    1       28.209 -28.901  13.936  0.00  0.00    +0.039 A 
ATOM     16  C   LIG    1       27.998 -27.605  14.385  0.00  0.00    +0.123 A 
ATOM     17  F   LIG    1       28.728 -27.120  15.391  0.00  0.00    -0.205 F 
ATOM     18  C   LIG    1       27.013 -26.819  13.800  0.00  0.00    +0.039 A 
ATOM     19  C   LIG    1       26.221 -27.341  12.774  0.00  0.00    +0.011 A 
ENDBRANCH  11  13
BRANCH   1  23
ATOM     20  N   LIG    1       25.122 -26.733   5.322  0.00  0.00    -0.300 NA
ATOM     21  C   LIG    1       26.318 -26.802   6.186  0.00  0.00    +0.103 C 
ATOM     22  C   LIG    1       26.130 -27.484   7.563  0.00  0.00    +0.122 C 
ATOM     23  N   LIG    1       25.483 -28.814   7.445  0.00  0.00    -0.313 N 
ATOM     24  C   LIG    1       24.289 -28.812   6.570  0.00  0.00    +0.122 C 
ATOM     25  C   LIG    1       24.565 -28.105   5.220  0.00  0.00    +0.103 C 
BRANCH  20  27
ATOM     26  C   LIG    1       24.645 -24.457   6.296  0.00  0.00    +0.020 C 
ATOM     27  C   LIG    1       24.094 -25.781   5.771  0.00  0.00    +0.081 C 
ENDBRANCH  20  27
ENDBRANCH   1  23
TORSDOF 3
ENDMDL
MODEL 9
REMARK VINA RESULT:      -6.6      6.266      9.881
REMARK  Name = *****
REMARK                            x       y       z     vdW  Elec       q    Type
REMARK                         _______ _______ _______ _____ _____    ______ ____
ROOT
ATOM      1  C   LIG    1       25.506 -28.848   6.559  0.00  0.00    +0.122 A 
ATOM      2  N   LIG    1       25.861 -29.955   5.895  0.00  0.00    -0.237 NA
ATOM      3  C   LIG    1       25.599 -31.175   6.432  0.00  0.00    +0.047 A 
ATOM      4  C   LIG    1       26.011 -32.316   5.528  0.00  0.00    +0.056 C 
ATOM      5  C   LIG    1       24.899 -32.793   4.593  0.00  0.00    +0.006 C 
ATOM      6  C   LIG    1       23.865 -33.739   5.210  0.00  0.00    +0.000 C 
ATOM      7  C   LIG    1       22.900 -33.088   6.203  0.00  0.00    +0.000 C 
ATOM      8  C   LIG    1       23.264 -33.279   7.677  0.00  0.00    +0.005 C 
ATOM      9  C   LIG    1       24.637 -32.773   8.109  0.00  0.00    +0.037 C 
ATOM     10  C   LIG    1       24.959 -31.358   7.675  0.00  0.00    -0.018 A 
ATOM     11  C   LIG    1       24.593 -30.194   8.401  0.00  0.00    -0.010 A 
ATOM     12  C   LIG    1       24.903 -28.944   7.806  0.00  0.00    +0.052 A 
ENDROOT
BRANCH  11  13
ATOM     13  C   LIG    1       23.888 -30.160   9.718  0.00  0.00    -0.017 A 
ATOM     14  C   LIG    1       24.605 -29.882  10.908  0.00  0.00    +0.011 A 
ATOM     15  C   LIG    1       24.001 -29.910  12.166  0.00  0.00    +0.039 A 
ATOM     16  C   LIG    1       22.642 -30.173  12.269  0.00  0.00    +0.123 A 
ATOM     17  F   LIG    1       22.053 -30.184  13.465  0.00  0.00    -0.205 F 
ATOM     18  C   LIG    1       21.899 -30.445  11.126  0.00  0.00    +0.039 A 
ATOM     19  C   LIG    1       22.524 -30.473   9.876  0.00  0.00    +0.011 A 
ENDBRANCH  11  13
BRANCH   1  23
ATOM     20  N   LIG    1       24.869 -24.702   5.710  0.00  0.00    -0.300 NA
ATOM     21  C   LIG    1       26.044 -25.133   6.494  0.00  0.00    +0.103 C 
ATOM     22  C   LIG    1       26.013 -26.585   7.033  0.00  0.00    +0.122 C 
ATOM     23  N   LIG    1       25.695 -27.569   5.970  0.00  0.00    -0.313 N 
ATOM     24  C   LIG    1       24.537 -27.179   5.134  0.00  0.00    +0.122 C 
ATOM     25  C   LIG    1       24.647 -25.713   4.645  0.00  0.00    +0.103 C 
BRANCH  20  27
ATOM     26  C   LIG    1       23.373 -23.040   6.875  0.00  0.00    +0.020 C 
ATOM     27  C   LIG    1       23.645 -24.495   6.500  0.00  0.00    +0.081 C 
ENDBRANCH  20  27
ENDBRANCH   1  23
TORSDOF 3
ENDMDL
