MODEL 1
REMARK VINA RESULT:      -3.9      0.000      0.000
REMARK  Name = *****
REMARK                            x       y       z     vdW  Elec       q    Type
REMARK                         _______ _______ _______ _____ _____    ______ ____
ROOT
ATOM      1  C   LIG    1       25.931 -13.433   4.317  0.00  0.00    +0.253 C 
ENDROOT
BRANCH   1   3
ATOM      2  O   LIG    1       22.960 -15.031   4.401  0.00  0.00    -0.258 OA
ATOM      3  P   LIG    1       24.320 -14.300   4.363  0.00  0.00    +0.339 P 
BRANCH   3   4
ATOM      4  O   LIG    1       23.921 -13.539   2.962  0.00  0.00    -0.324 OA
ATOM      5  H   LIG    1       22.981 -13.275   3.029  0.00  0.00    +0.220 HD
ENDBRANCH   3   4
BRANCH   3   6
ATOM      6  O   LIG    1       25.050 -15.585   3.641  0.00  0.00    -0.324 OA
ATOM      7  H   LIG    1       24.943 -16.355   4.237  0.00  0.00    +0.220 HD
ENDBRANCH   3   6
ENDBRANCH   1   3
BRANCH   1   8
ATOM      8  P   LIG    1       27.230 -13.947   3.234  0.00  0.00    +0.339 P 
ATOM      9  O   LIG    1       26.875 -14.278   1.826  0.00  0.00    -0.258 OA
BRANCH   8  10
ATOM     10  O   LIG    1       27.944 -15.191   3.949  0.00  0.00    -0.324 OA
ATOM     11  H   LIG    1       27.338 -15.951   4.053  0.00  0.00    +0.220 HD
ENDBRANCH   8  10
BRANCH   8  12
ATOM     12  O   LIG    1       28.391 -12.851   3.306  0.00  0.00    -0.324 OA
ATOM     13  H   LIG    1       28.085 -12.003   3.684  0.00  0.00    +0.220 HD
ENDBRANCH   8  12
ENDBRANCH   1   8
TORSDOF 6
ENDMDL
MODEL 2
REMARK VINA RESULT:      -3.9      0.439      1.578
REMARK  Name = *****
REMARK                            x       y       z     vdW  Elec       q    Type
REMARK                         _______ _______ _______ _____ _____    ______ ____
ROOT
ATOM      1  C   LIG    1       26.193 -13.421   4.531  0.00  0.00    +0.253 C 
ENDROOT
BRANCH   1   3
ATOM      2  O   LIG    1       23.152 -14.776   3.984  0.00  0.00    -0.258 OA
ATOM      3  P   LIG    1       24.543 -14.156   4.234  0.00  0.00    +0.339 P 
BRANCH   3   4
ATOM      4  O   LIG    1       24.463 -13.300   2.834  0.00  0.00    -0.324 OA
ATOM      5  H   LIG    1       24.003 -12.459   3.030  0.00  0.00    +0.220 HD
ENDBRANCH   3   4
BRANCH   3   6
ATOM      6  O   LIG    1       25.300 -15.460   3.578  0.00  0.00    -0.324 OA
ATOM      7  H   LIG    1       26.223 -15.196   3.385  0.00  0.00    +0.220 HD
ENDBRANCH   3   6
ENDBRANCH   1   3
BRANCH   1   8
ATOM      8  P   LIG    1       27.609 -13.912   3.595  0.00  0.00    +0.339 P 
ATOM      9  O   LIG    1       28.814 -13.038   3.642  0.00  0.00    -0.258 OA
BRANCH   8  10
ATOM     10  O   LIG    1       27.104 -14.106   2.087  0.00  0.00    -0.324 OA
ATOM     11  H   LIG    1       27.060 -13.259   1.603  0.00  0.00    +0.220 HD
ENDBRANCH   8  10
BRANCH   8  12
ATOM     12  O   LIG    1       27.961 -15.420   3.992  0.00  0.00    -0.324 OA
ATOM     13  H   LIG    1       28.883 -15.522   4.302  0.00  0.00    +0.220 HD
ENDBRANCH   8  12
ENDBRANCH   1   8
TORSDOF 6
ENDMDL
MODEL 3
REMARK VINA RESULT:      -3.8      1.188      1.722
REMARK  Name = *****
REMARK                            x       y       z     vdW  Elec       q    Type
REMARK                         _______ _______ _______ _____ _____    ______ ____
ROOT
ATOM      1  C   LIG    1       25.793 -13.711   4.373  0.00  0.00    +0.253 C 
ENDROOT
BRANCH   1   3
ATOM      2  O   LIG    1       23.418 -11.481   3.496  0.00  0.00    -0.258 OA
ATOM      3  P   LIG    1       24.505 -12.501   3.897  0.00  0.00    +0.339 P 
BRANCH   3   4
ATOM      4  O   LIG    1       25.309 -12.267   2.484  0.00  0.00    -0.324 OA
ATOM      5  H   LIG    1       26.063 -12.890   2.469  0.00  0.00    +0.220 HD
ENDBRANCH   3   4
BRANCH   3   6
ATOM      6  O   LIG    1       23.597 -13.761   3.354  0.00  0.00    -0.324 OA
ATOM      7  H   LIG    1       23.384 -14.322   4.127  0.00  0.00    +0.220 HD
ENDBRANCH   3   6
ENDBRANCH   1   3
BRANCH   1   8
ATOM      8  P   LIG    1       27.114 -14.137   3.279  0.00  0.00    +0.339 P 
ATOM      9  O   LIG    1       26.774 -14.453   1.865  0.00  0.00    -0.258 OA
BRANCH   8  10
ATOM     10  O   LIG    1       27.888 -15.360   3.966  0.00  0.00    -0.324 OA
ATOM     11  H   LIG    1       27.341 -16.169   3.998  0.00  0.00    +0.220 HD
ENDBRANCH   8  10
BRANCH   8  12
ATOM     12  O   LIG    1       28.221 -12.988   3.375  0.00  0.00    -0.324 OA
ATOM     13  H   LIG    1       27.836 -12.090   3.327  0.00  0.00    +0.220 HD
ENDBRANCH   8  12
ENDBRANCH   1   8
TORSDOF 6
ENDMDL
MODEL 4
REMARK VINA RESULT:      -3.8      1.364      4.000
REMARK  Name = *****
REMARK                            x       y       z     vdW  Elec       q    Type
REMARK                         _______ _______ _______ _____ _____    ______ ____
ROOT
ATOM      1  C   LIG    1       25.926 -14.665   3.678  0.00  0.00    +0.253 C 
ENDROOT
BRANCH   1   3
ATOM      2  O   LIG    1       28.962 -13.194   3.736  0.00  0.00    -0.258 OA
ATOM      3  P   LIG    1       27.573 -13.867   3.709  0.00  0.00    +0.339 P 
BRANCH   3   4
ATOM      4  O   LIG    1       26.964 -12.673   2.759  0.00  0.00    -0.324 OA
ATOM      5  H   LIG    1       26.864 -11.876   3.317  0.00  0.00    +0.220 HD
ENDBRANCH   3   4
BRANCH   3   6
ATOM      6  O   LIG    1       27.147 -13.164   5.135  0.00  0.00    -0.324 OA
ATOM      7  H   LIG    1       27.974 -12.898   5.587  0.00  0.00    +0.220 HD
ENDBRANCH   3   6
ENDBRANCH   1   3
BRANCH   1   8
ATOM      8  P   LIG    1       24.439 -13.728   3.859  0.00  0.00    +0.339 P 
ATOM      9  O   LIG    1       24.464 -12.547   4.766  0.00  0.00    -0.258 OA
BRANCH   8  10
ATOM     10  O   LIG    1       23.306 -14.768   4.309  0.00  0.00    -0.324 OA
ATOM     11  H   LIG    1       23.082 -15.398   3.596  0.00  0.00    +0.220 HD
ENDBRANCH   8  10
BRANCH   8  12
ATOM     12  O   LIG    1       23.925 -13.336   2.397  0.00  0.00    -0.324 OA
ATOM     13  H   LIG    1       22.962 -13.166   2.369  0.00  0.00    +0.220 HD
ENDBRANCH   8  12
ENDBRANCH   1   8
TORSDOF 6
ENDMDL
MODEL 5
REMARK VINA RESULT:      -3.7      1.325      4.057
REMARK  Name = *****
REMARK                            x       y       z     vdW  Elec       q    Type
REMARK                         _______ _______ _______ _____ _____    ______ ____
ROOT
ATOM      1  C   LIG    1       25.854 -14.446   3.456  0.00  0.00    +0.253 C 
ENDROOT
BRANCH   1   3
ATOM      2  O   LIG    1       28.852 -12.976   3.941  0.00  0.00    -0.258 OA
ATOM      3  P   LIG    1       27.480 -13.649   3.719  0.00  0.00    +0.339 P 
BRANCH   3   4
ATOM      4  O   LIG    1       27.005 -13.285   5.250  0.00  0.00    -0.324 OA
ATOM      5  H   LIG    1       27.813 -13.134   5.779  0.00  0.00    +0.220 HD
ENDBRANCH   3   4
BRANCH   3   6
ATOM      6  O   LIG    1       28.088 -15.131   4.092  0.00  0.00    -0.324 OA
ATOM      7  H   LIG    1       27.877 -15.306   5.031  0.00  0.00    +0.220 HD
ENDBRANCH   3   6
ENDBRANCH   1   3
BRANCH   1   8
ATOM      8  P   LIG    1       24.341 -13.612   3.829  0.00  0.00    +0.339 P 
ATOM      9  O   LIG    1       24.393 -12.461   4.772  0.00  0.00    -0.258 OA
BRANCH   8  10
ATOM     10  O   LIG    1       23.328 -14.735   4.357  0.00  0.00    -0.324 OA
ATOM     11  H   LIG    1       22.989 -15.294   3.631  0.00  0.00    +0.220 HD
ENDBRANCH   8  10
BRANCH   8  12
ATOM     12  O   LIG    1       23.649 -13.208   2.446  0.00  0.00    -0.324 OA
ATOM     13  H   LIG    1       23.609 -12.240   2.314  0.00  0.00    +0.220 HD
ENDBRANCH   8  12
ENDBRANCH   1   8
TORSDOF 6
ENDMDL
MODEL 6
REMARK VINA RESULT:      -3.6      1.549      3.546
REMARK  Name = *****
REMARK                            x       y       z     vdW  Elec       q    Type
REMARK                         _______ _______ _______ _____ _____    ______ ____
ROOT
ATOM      1  C   LIG    1       25.817 -13.268   4.022  0.00  0.00    +0.253 C 
ENDROOT
BRANCH   1   3
ATOM      2  O   LIG    1       26.728 -16.386   3.109  0.00  0.00    -0.258 OA
ATOM      3  P   LIG    1       26.311 -14.959   3.527  0.00  0.00    +0.339 P 
BRANCH   3   4
ATOM      4  O   LIG    1       26.396 -14.432   1.973  0.00  0.00    -0.324 OA
ATOM      5  H   LIG    1       26.984 -13.649   1.960  0.00  0.00    +0.220 HD
ENDBRANCH   3   4
BRANCH   3   6
ATOM      6  O   LIG    1       27.861 -14.563   3.911  0.00  0.00    -0.324 OA
ATOM      7  H   LIG    1       28.195 -13.972   3.206  0.00  0.00    +0.220 HD
ENDBRANCH   3   6
ENDBRANCH   1   3
BRANCH   1   8
ATOM      8  P   LIG    1       24.399 -12.475   3.326  0.00  0.00    +0.339 P 
ATOM      9  O   LIG    1       23.648 -11.514   4.180  0.00  0.00    -0.258 OA
BRANCH   8  10
ATOM     10  O   LIG    1       23.439 -13.648   2.808  0.00  0.00    -0.324 OA
ATOM     11  H   LIG    1       22.728 -13.311   2.228  0.00  0.00    +0.220 HD
ENDBRANCH   8  10
BRANCH   8  12
ATOM     12  O   LIG    1       24.839 -11.810   1.940  0.00  0.00    -0.324 OA
ATOM     13  H   LIG    1       25.198 -10.908   2.053  0.00  0.00    +0.220 HD
ENDBRANCH   8  12
ENDBRANCH   1   8
TORSDOF 6
ENDMDL
MODEL 7
REMARK VINA RESULT:      -3.5      1.369      3.911
REMARK  Name = *****
REMARK                            x       y       z     vdW  Elec       q    Type
REMARK                         _______ _______ _______ _____ _____    ______ ____
ROOT
ATOM      1  C   LIG    1       25.863 -14.889   3.576  0.00  0.00    +0.253 C 
ENDROOT
BRANCH   1   3
ATOM      2  O   LIG    1       28.825 -13.273   3.604  0.00  0.00    -0.258 OA
ATOM      3  P   LIG    1       27.470 -14.012   3.591  0.00  0.00    +0.339 P 
BRANCH   3   4
ATOM      4  O   LIG    1       26.718 -12.716   2.917  0.00  0.00    -0.324 OA
ATOM      5  H   LIG    1       26.960 -12.697   1.969  0.00  0.00    +0.220 HD
ENDBRANCH   3   4
BRANCH   3   6
ATOM      6  O   LIG    1       27.160 -13.581   5.148  0.00  0.00    -0.324 OA
ATOM      7  H   LIG    1       26.189 -13.591   5.267  0.00  0.00    +0.220 HD
ENDBRANCH   3   6
ENDBRANCH   1   3
BRANCH   1   8
ATOM      8  P   LIG    1       24.342 -14.041   3.877  0.00  0.00    +0.339 P 
ATOM      9  O   LIG    1       23.215 -14.816   4.466  0.00  0.00    -0.258 OA
BRANCH   8  10
ATOM     10  O   LIG    1       23.912 -13.383   2.481  0.00  0.00    -0.324 OA
ATOM     11  H   LIG    1       24.553 -13.578   1.770  0.00  0.00    +0.220 HD
ENDBRANCH   8  10
BRANCH   8  12
ATOM     12  O   LIG    1       24.670 -12.735   4.738  0.00  0.00    -0.324 OA
ATOM     13  H   LIG    1       25.588 -12.726   5.074  0.00  0.00    +0.220 HD
ENDBRANCH   8  12
ENDBRANCH   1   8
TORSDOF 6
ENDMDL
MODEL 8
REMARK VINA RESULT:      -3.5      1.396      2.322
REMARK  Name = *****
REMARK                            x       y       z     vdW  Elec       q    Type
REMARK                         _______ _______ _______ _____ _____    ______ ____
ROOT
ATOM      1  C   LIG    1       26.613 -13.299   2.743  0.00  0.00    +0.253 C 
ENDROOT
BRANCH   1   3
ATOM      2  O   LIG    1       23.339 -13.821   3.366  0.00  0.00    -0.258 OA
ATOM      3  P   LIG    1       24.837 -13.582   3.081  0.00  0.00    +0.339 P 
BRANCH   3   4
ATOM      4  O   LIG    1       25.227 -15.077   3.640  0.00  0.00    -0.324 OA
ATOM      5  H   LIG    1       24.788 -15.731   3.060  0.00  0.00    +0.220 HD
ENDBRANCH   3   4
BRANCH   3   6
ATOM      6  O   LIG    1       25.043 -12.817   4.522  0.00  0.00    -0.324 OA
ATOM      7  H   LIG    1       25.898 -12.343   4.482  0.00  0.00    +0.220 HD
ENDBRANCH   3   6
ENDBRANCH   1   3
BRANCH   1   8
ATOM      8  P   LIG    1       27.856 -13.677   3.941  0.00  0.00    +0.339 P 
ATOM      9  O   LIG    1       27.745 -13.045   5.285  0.00  0.00    -0.258 OA
BRANCH   8  10
ATOM     10  O   LIG    1       29.261 -13.319   3.258  0.00  0.00    -0.324 OA
ATOM     11  H   LIG    1       29.157 -13.049   2.324  0.00  0.00    +0.220 HD
ENDBRANCH   8  10
BRANCH   8  12
ATOM     12  O   LIG    1       27.969 -15.268   4.047  0.00  0.00    -0.324 OA
ATOM     13  H   LIG    1       28.240 -15.683   3.204  0.00  0.00    +0.220 HD
ENDBRANCH   8  12
ENDBRANCH   1   8
TORSDOF 6
ENDMDL
MODEL 9
REMARK VINA RESULT:      -3.5      1.112      4.102
REMARK  Name = *****
REMARK                            x       y       z     vdW  Elec       q    Type
REMARK                         _______ _______ _______ _____ _____    ______ ____
ROOT
ATOM      1  C   LIG    1       25.874 -14.144   4.215  0.00  0.00    +0.253 C 
ENDROOT
BRANCH   1   3
ATOM      2  O   LIG    1       29.027 -13.371   3.295  0.00  0.00    -0.258 OA
ATOM      3  P   LIG    1       27.584 -13.725   3.716  0.00  0.00    +0.339 P 
BRANCH   3   4
ATOM      4  O   LIG    1       28.019 -15.270   4.068  0.00  0.00    -0.324 OA
ATOM      5  H   LIG    1       27.215 -15.739   4.369  0.00  0.00    +0.220 HD
ENDBRANCH   3   4
BRANCH   3   6
ATOM      6  O   LIG    1       27.150 -14.034   2.160  0.00  0.00    -0.324 OA
ATOM      7  H   LIG    1       27.972 -14.196   1.653  0.00  0.00    +0.220 HD
ENDBRANCH   3   6
ENDBRANCH   1   3
BRANCH   1   8
ATOM      8  P   LIG    1       24.473 -13.372   3.464  0.00  0.00    +0.339 P 
ATOM      9  O   LIG    1       24.609 -12.891   2.061  0.00  0.00    -0.258 OA
BRANCH   8  10
ATOM     10  O   LIG    1       24.047 -12.173   4.438  0.00  0.00    -0.324 OA
ATOM     11  H   LIG    1       23.152 -11.836   4.235  0.00  0.00    +0.220 HD
ENDBRANCH   8  10
BRANCH   8  12
ATOM     12  O   LIG    1       23.223 -14.354   3.630  0.00  0.00    -0.324 OA
ATOM     13  H   LIG    1       23.415 -15.113   4.216  0.00  0.00    +0.220 HD
ENDBRANCH   8  12
ENDBRANCH   1   8
TORSDOF 6
ENDMDL
