MODEL 1
REMARK VINA RESULT:      -7.0      0.000      0.000
REMARK  Name = *****
REMARK                            x       y       z     vdW  Elec       q    Type
REMARK                         _______ _______ _______ _____ _____    ______ ____
ROOT
ATOM      1  O   LIG    1       25.723 -17.228   3.044  0.00  0.00    -0.241 OA
ENDROOT
BRANCH   1   3
ATOM      2  O   LIG    1       27.615 -16.279   3.973  0.00  0.00    -0.241 OA
ATOM      3  C   LIG    1       26.486 -16.205   3.505  0.00  0.00    +0.387 C 
BRANCH   3   4
ATOM      4  C   LIG    1       25.743 -14.926   3.324  0.00  0.00    +0.063 A 
ATOM      5  C   LIG    1       24.593 -14.704   4.096  0.00  0.00    +0.015 A 
ATOM      6  C   LIG    1       23.857 -13.529   3.942  0.00  0.00    +0.001 A 
ATOM      7  C   LIG    1       24.262 -12.567   3.018  0.00  0.00    +0.000 A 
ATOM      8  C   LIG    1       25.402 -12.778   2.243  0.00  0.00    +0.001 A 
ATOM      9  C   LIG    1       26.141 -13.951   2.392  0.00  0.00    +0.015 A 
ENDBRANCH   3   4
ENDBRANCH   1   3
BRANCH   1  10
ATOM     10  O   LIG    1       26.152 -18.434   3.740  0.00  0.00    -0.241 OA
BRANCH  10  11
ATOM     11  C   LIG    1       25.238 -19.401   3.446  0.00  0.00    +0.387 C 
ATOM     12  O   LIG    1       24.900 -19.784   2.344  0.00  0.00    -0.241 OA
BRANCH  11  13
ATOM     13  C   LIG    1       24.682 -19.936   4.716  0.00  0.00    +0.063 A 
ATOM     14  C   LIG    1       23.293 -19.947   4.896  0.00  0.00    +0.015 A 
ATOM     15  C   LIG    1       22.748 -20.468   6.072  0.00  0.00    +0.001 A 
ATOM     16  C   LIG    1       23.587 -20.986   7.062  0.00  0.00    +0.000 A 
ATOM     17  C   LIG    1       24.969 -20.981   6.883  0.00  0.00    +0.001 A 
ATOM     18  C   LIG    1       25.518 -20.457   5.713  0.00  0.00    +0.015 A 
ENDBRANCH  11  13
ENDBRANCH  10  11
ENDBRANCH   1  10
TORSDOF 5
ENDMDL
MODEL 2
REMARK VINA RESULT:      -7.0      0.131      1.146
REMARK  Name = *****
REMARK                            x       y       z     vdW  Elec       q    Type
REMARK                         _______ _______ _______ _____ _____    ______ ____
ROOT
ATOM      1  O   LIG    1       25.903 -17.250   3.042  0.00  0.00    -0.241 OA
ENDROOT
BRANCH   1   3
ATOM      2  O   LIG    1       27.729 -16.211   4.005  0.00  0.00    -0.241 OA
ATOM      3  C   LIG    1       26.605 -16.192   3.520  0.00  0.00    +0.387 C 
BRANCH   3   4
ATOM      4  C   LIG    1       25.800 -14.952   3.335  0.00  0.00    +0.063 A 
ATOM      5  C   LIG    1       26.269 -13.974   2.446  0.00  0.00    +0.015 A 
ATOM      6  C   LIG    1       25.557 -12.789   2.260  0.00  0.00    +0.001 A 
ATOM      7  C   LIG    1       24.371 -12.570   2.960  0.00  0.00    +0.000 A 
ATOM      8  C   LIG    1       23.896 -13.534   3.848  0.00  0.00    +0.001 A 
ATOM      9  C   LIG    1       24.604 -14.720   4.039  0.00  0.00    +0.015 A 
ENDBRANCH   3   4
ENDBRANCH   1   3
BRANCH   1  10
ATOM     10  O   LIG    1       26.172 -18.380   3.920  0.00  0.00    -0.241 OA
BRANCH  10  11
ATOM     11  C   LIG    1       25.307 -19.369   3.561  0.00  0.00    +0.387 C 
ATOM     12  O   LIG    1       25.030 -19.733   2.435  0.00  0.00    -0.241 OA
BRANCH  11  13
ATOM     13  C   LIG    1       24.717 -19.959   4.791  0.00  0.00    +0.063 A 
ATOM     14  C   LIG    1       23.324 -20.052   4.897  0.00  0.00    +0.015 A 
ATOM     15  C   LIG    1       22.750 -20.625   6.035  0.00  0.00    +0.001 A 
ATOM     16  C   LIG    1       23.564 -21.114   7.058  0.00  0.00    +0.000 A 
ATOM     17  C   LIG    1       24.951 -21.028   6.952  0.00  0.00    +0.001 A 
ATOM     18  C   LIG    1       25.530 -20.452   5.821  0.00  0.00    +0.015 A 
ENDBRANCH  11  13
ENDBRANCH  10  11
ENDBRANCH   1  10
TORSDOF 5
ENDMDL
MODEL 3
REMARK VINA RESULT:      -7.0      0.057      6.510
REMARK  Name = *****
REMARK                            x       y       z     vdW  Elec       q    Type
REMARK                         _______ _______ _______ _____ _____    ______ ____
ROOT
ATOM      1  O   LIG    1       26.152 -18.431   3.767  0.00  0.00    -0.241 OA
ENDROOT
BRANCH   1   3
ATOM      2  O   LIG    1       24.981 -19.802   2.321  0.00  0.00    -0.241 OA
ATOM      3  C   LIG    1       25.265 -19.405   3.445  0.00  0.00    +0.387 C 
BRANCH   3   4
ATOM      4  C   LIG    1       24.686 -19.969   4.697  0.00  0.00    +0.063 A 
ATOM      5  C   LIG    1       23.293 -19.945   4.861  0.00  0.00    +0.015 A 
ATOM      6  C   LIG    1       22.712 -20.443   6.027  0.00  0.00    +0.001 A 
ATOM      7  C   LIG    1       23.516 -20.969   7.038  0.00  0.00    +0.000 A 
ATOM      8  C   LIG    1       24.901 -20.997   6.887  0.00  0.00    +0.001 A 
ATOM      9  C   LIG    1       25.487 -20.499   5.723  0.00  0.00    +0.015 A 
ENDBRANCH   3   4
ENDBRANCH   1   3
BRANCH   1  10
ATOM     10  O   LIG    1       25.783 -17.242   3.011  0.00  0.00    -0.241 OA
BRANCH  10  11
ATOM     11  C   LIG    1       26.528 -16.215   3.509  0.00  0.00    +0.387 C 
ATOM     12  O   LIG    1       27.634 -16.282   4.008  0.00  0.00    -0.241 OA
BRANCH  11  13
ATOM     13  C   LIG    1       25.761 -14.952   3.359  0.00  0.00    +0.063 A 
ATOM     14  C   LIG    1       26.198 -14.001   2.428  0.00  0.00    +0.015 A 
ATOM     15  C   LIG    1       25.478 -12.816   2.254  0.00  0.00    +0.001 A 
ATOM     16  C   LIG    1       24.319 -12.586   2.999  0.00  0.00    +0.000 A 
ATOM     17  C   LIG    1       23.879 -13.534   3.921  0.00  0.00    +0.001 A 
ATOM     18  C   LIG    1       24.597 -14.716   4.103  0.00  0.00    +0.015 A 
ENDBRANCH  11  13
ENDBRANCH  10  11
ENDBRANCH   1  10
TORSDOF 5
ENDMDL
MODEL 4
REMARK VINA RESULT:      -7.0      0.127      6.458
REMARK  Name = *****
REMARK                            x       y       z     vdW  Elec       q    Type
REMARK                         _______ _______ _______ _____ _____    ______ ____
ROOT
ATOM      1  O   LIG    1       26.173 -18.534   3.693  0.00  0.00    -0.241 OA
ENDROOT
BRANCH   1   3
ATOM      2  O   LIG    1       24.950 -19.916   2.301  0.00  0.00    -0.241 OA
ATOM      3  C   LIG    1       25.257 -19.493   3.409  0.00  0.00    +0.387 C 
BRANCH   3   4
ATOM      4  C   LIG    1       24.676 -20.003   4.683  0.00  0.00    +0.063 A 
ATOM      5  C   LIG    1       23.281 -20.034   4.819  0.00  0.00    +0.015 A 
ATOM      6  C   LIG    1       22.697 -20.484   6.003  0.00  0.00    +0.001 A 
ATOM      7  C   LIG    1       23.501 -20.907   7.062  0.00  0.00    +0.000 A 
ATOM      8  C   LIG    1       24.890 -20.879   6.939  0.00  0.00    +0.001 A 
ATOM      9  C   LIG    1       25.478 -20.429   5.758  0.00  0.00    +0.015 A 
ENDBRANCH   3   4
ENDBRANCH   1   3
BRANCH   1  10
ATOM     10  O   LIG    1       25.757 -17.321   3.002  0.00  0.00    -0.241 OA
BRANCH  10  11
ATOM     11  C   LIG    1       26.526 -16.309   3.493  0.00  0.00    +0.387 C 
ATOM     12  O   LIG    1       27.625 -16.399   4.005  0.00  0.00    -0.241 OA
BRANCH  11  13
ATOM     13  C   LIG    1       25.797 -15.026   3.318  0.00  0.00    +0.063 A 
ATOM     14  C   LIG    1       24.629 -14.805   4.057  0.00  0.00    +0.015 A 
ATOM     15  C   LIG    1       23.941 -13.596   3.926  0.00  0.00    +0.001 A 
ATOM     16  C   LIG    1       24.423 -12.607   3.066  0.00  0.00    +0.000 A 
ATOM     17  C   LIG    1       25.589 -12.822   2.333  0.00  0.00    +0.001 A 
ATOM     18  C   LIG    1       26.277 -14.030   2.457  0.00  0.00    +0.015 A 
ENDBRANCH  11  13
ENDBRANCH  10  11
ENDBRANCH   1  10
TORSDOF 5
ENDMDL
MODEL 5
REMARK VINA RESULT:      -7.0      0.068      1.614
REMARK  Name = *****
REMARK                            x       y       z     vdW  Elec       q    Type
REMARK                         _______ _______ _______ _____ _____    ______ ____
ROOT
ATOM      1  O   LIG    1       25.806 -17.255   3.024  0.00  0.00    -0.241 OA
ENDROOT
BRANCH   1   3
ATOM      2  O   LIG    1       27.628 -16.231   4.011  0.00  0.00    -0.241 OA
ATOM      3  C   LIG    1       26.508 -16.203   3.514  0.00  0.00    +0.387 C 
BRANCH   3   4
ATOM      4  C   LIG    1       25.713 -14.957   3.325  0.00  0.00    +0.063 A 
ATOM      5  C   LIG    1       26.160 -14.013   2.389  0.00  0.00    +0.015 A 
ATOM      6  C   LIG    1       25.457 -12.824   2.197  0.00  0.00    +0.001 A 
ATOM      7  C   LIG    1       24.302 -12.567   2.936  0.00  0.00    +0.000 A 
ATOM      8  C   LIG    1       23.850 -13.498   3.870  0.00  0.00    +0.001 A 
ATOM      9  C   LIG    1       24.550 -14.688   4.067  0.00  0.00    +0.015 A 
ENDBRANCH   3   4
ENDBRANCH   1   3
BRANCH   1  10
ATOM     10  O   LIG    1       26.141 -18.415   3.838  0.00  0.00    -0.241 OA
BRANCH  10  11
ATOM     11  C   LIG    1       25.278 -19.408   3.480  0.00  0.00    +0.387 C 
ATOM     12  O   LIG    1       25.019 -19.787   2.355  0.00  0.00    -0.241 OA
BRANCH  11  13
ATOM     13  C   LIG    1       24.666 -19.976   4.708  0.00  0.00    +0.063 A 
ATOM     14  C   LIG    1       25.504 -20.450   5.726  0.00  0.00    +0.015 A 
ATOM     15  C   LIG    1       24.949 -20.966   6.900  0.00  0.00    +0.001 A 
ATOM     16  C   LIG    1       23.562 -20.999   7.062  0.00  0.00    +0.000 A 
ATOM     17  C   LIG    1       22.727 -20.523   6.053  0.00  0.00    +0.001 A 
ATOM     18  C   LIG    1       23.275 -20.011   4.877  0.00  0.00    +0.015 A 
ENDBRANCH  11  13
ENDBRANCH  10  11
ENDBRANCH   1  10
TORSDOF 5
ENDMDL
MODEL 6
REMARK VINA RESULT:      -6.9      1.089      1.248
REMARK  Name = *****
REMARK                            x       y       z     vdW  Elec       q    Type
REMARK                         _______ _______ _______ _____ _____    ______ ____
ROOT
ATOM      1  O   LIG    1       26.156 -16.235   2.802  0.00  0.00    -0.241 OA
ENDROOT
BRANCH   1   3
ATOM      2  O   LIG    1       27.663 -15.167   4.191  0.00  0.00    -0.241 OA
ATOM      3  C   LIG    1       26.632 -15.195   3.530  0.00  0.00    +0.387 C 
BRANCH   3   4
ATOM      4  C   LIG    1       25.708 -14.035   3.382  0.00  0.00    +0.063 A 
ATOM      5  C   LIG    1       24.961 -13.627   4.497  0.00  0.00    +0.015 A 
ATOM      6  C   LIG    1       24.069 -12.559   4.396  0.00  0.00    +0.001 A 
ATOM      7  C   LIG    1       23.914 -11.891   3.182  0.00  0.00    +0.000 A 
ATOM      8  C   LIG    1       24.650 -12.289   2.066  0.00  0.00    +0.001 A 
ATOM      9  C   LIG    1       25.542 -13.357   2.162  0.00  0.00    +0.015 A 
ENDBRANCH   3   4
ENDBRANCH   1   3
BRANCH   1  10
ATOM     10  O   LIG    1       25.264 -16.996   3.666  0.00  0.00    -0.241 OA
BRANCH  10  11
ATOM     11  C   LIG    1       25.345 -18.296   3.265  0.00  0.00    +0.387 C 
ATOM     12  O   LIG    1       26.032 -18.749   2.370  0.00  0.00    -0.241 OA
BRANCH  11  13
ATOM     13  C   LIG    1       24.431 -19.113   4.103  0.00  0.00    +0.063 A 
ATOM     14  C   LIG    1       23.062 -18.817   4.099  0.00  0.00    +0.015 A 
ATOM     15  C   LIG    1       22.181 -19.589   4.862  0.00  0.00    +0.001 A 
ATOM     16  C   LIG    1       22.664 -20.659   5.617  0.00  0.00    +0.000 A 
ATOM     17  C   LIG    1       24.024 -20.960   5.618  0.00  0.00    +0.001 A 
ATOM     18  C   LIG    1       24.909 -20.189   4.863  0.00  0.00    +0.015 A 
ENDBRANCH  11  13
ENDBRANCH  10  11
ENDBRANCH   1  10
TORSDOF 5
ENDMDL
MODEL 7
REMARK VINA RESULT:      -6.8      1.095      1.609
REMARK  Name = *****
REMARK                            x       y       z     vdW  Elec       q    Type
REMARK                         _______ _______ _______ _____ _____    ______ ____
ROOT
ATOM      1  O   LIG    1       25.375 -17.062   3.330  0.00  0.00    -0.241 OA
ENDROOT
BRANCH   1   3
ATOM      2  O   LIG    1       27.490 -16.212   3.716  0.00  0.00    -0.241 OA
ATOM      3  C   LIG    1       26.293 -16.077   3.492  0.00  0.00    +0.387 C 
BRANCH   3   4
ATOM      4  C   LIG    1       25.623 -14.757   3.320  0.00  0.00    +0.063 A 
ATOM      5  C   LIG    1       24.495 -14.471   4.104  0.00  0.00    +0.015 A 
ATOM      6  C   LIG    1       23.827 -13.255   3.959  0.00  0.00    +0.001 A 
ATOM      7  C   LIG    1       24.277 -12.315   3.032  0.00  0.00    +0.000 A 
ATOM      8  C   LIG    1       25.396 -12.590   2.247  0.00  0.00    +0.001 A 
ATOM      9  C   LIG    1       26.067 -13.804   2.386  0.00  0.00    +0.015 A 
ENDBRANCH   3   4
ENDBRANCH   1   3
BRANCH   1  10
ATOM     10  O   LIG    1       26.105 -18.318   3.222  0.00  0.00    -0.241 OA
BRANCH  10  11
ATOM     11  C   LIG    1       25.287 -19.290   3.716  0.00  0.00    +0.387 C 
ATOM     12  O   LIG    1       24.189 -19.608   3.305  0.00  0.00    -0.241 OA
BRANCH  11  13
ATOM     13  C   LIG    1       25.950 -19.924   4.885  0.00  0.00    +0.063 A 
ATOM     14  C   LIG    1       25.225 -20.835   5.663  0.00  0.00    +0.015 A 
ATOM     15  C   LIG    1       25.837 -21.461   6.752  0.00  0.00    +0.001 A 
ATOM     16  C   LIG    1       27.172 -21.187   7.057  0.00  0.00    +0.000 A 
ATOM     17  C   LIG    1       27.897 -20.285   6.280  0.00  0.00    +0.001 A 
ATOM     18  C   LIG    1       27.289 -19.653   5.195  0.00  0.00    +0.015 A 
ENDBRANCH  11  13
ENDBRANCH  10  11
ENDBRANCH   1  10
TORSDOF 5
ENDMDL
MODEL 8
REMARK VINA RESULT:      -6.7      2.108      6.813
REMARK  Name = *****
REMARK                            x       y       z     vdW  Elec       q    Type
REMARK                         _______ _______ _______ _____ _____    ______ ____
ROOT
ATOM      1  O   LIG    1       22.122 -17.175   4.898  0.00  0.00    -0.241 OA
ENDROOT
BRANCH   1   3
ATOM      2  O   LIG    1       20.914 -18.612   3.549  0.00  0.00    -0.241 OA
ATOM      3  C   LIG    1       21.860 -18.356   4.284  0.00  0.00    +0.387 C 
BRANCH   3   4
ATOM      4  C   LIG    1       22.943 -19.325   4.614  0.00  0.00    +0.063 A 
ATOM      5  C   LIG    1       22.851 -20.050   5.811  0.00  0.00    +0.015 A 
ATOM      6  C   LIG    1       23.854 -20.952   6.167  0.00  0.00    +0.001 A 
ATOM      7  C   LIG    1       24.956 -21.138   5.332  0.00  0.00    +0.000 A 
ATOM      8  C   LIG    1       25.058 -20.421   4.141  0.00  0.00    +0.001 A 
ATOM      9  C   LIG    1       24.059 -19.518   3.780  0.00  0.00    +0.015 A 
ENDBRANCH   3   4
ENDBRANCH   1   3
BRANCH   1  10
ATOM     10  O   LIG    1       23.125 -16.485   4.099  0.00  0.00    -0.241 OA
BRANCH  10  11
ATOM     11  C   LIG    1       23.262 -15.239   4.633  0.00  0.00    +0.387 C 
ATOM     12  O   LIG    1       22.668 -14.778   5.589  0.00  0.00    -0.241 OA
BRANCH  11  13
ATOM     13  C   LIG    1       24.272 -14.489   3.844  0.00  0.00    +0.063 A 
ATOM     14  C   LIG    1       25.554 -15.032   3.693  0.00  0.00    +0.015 A 
ATOM     15  C   LIG    1       26.512 -14.354   2.935  0.00  0.00    +0.001 A 
ATOM     16  C   LIG    1       26.188 -13.143   2.320  0.00  0.00    +0.000 A 
ATOM     17  C   LIG    1       24.911 -12.603   2.464  0.00  0.00    +0.001 A 
ATOM     18  C   LIG    1       23.953 -13.273   3.224  0.00  0.00    +0.015 A 
ENDBRANCH  11  13
ENDBRANCH  10  11
ENDBRANCH   1  10
TORSDOF 5
ENDMDL
MODEL 9
REMARK VINA RESULT:      -6.7      2.107      2.863
REMARK  Name = *****
REMARK                            x       y       z     vdW  Elec       q    Type
REMARK                         _______ _______ _______ _____ _____    ______ ____
ROOT
ATOM      1  O   LIG    1       23.065 -16.459   4.060  0.00  0.00    -0.241 OA
ENDROOT
BRANCH   1   3
ATOM      2  O   LIG    1       22.665 -14.768   5.584  0.00  0.00    -0.241 OA
ATOM      3  C   LIG    1       23.238 -15.229   4.604  0.00  0.00    +0.387 C 
BRANCH   3   4
ATOM      4  C   LIG    1       24.286 -14.500   3.835  0.00  0.00    +0.063 A 
ATOM      5  C   LIG    1       23.945 -13.285   3.223  0.00  0.00    +0.015 A 
ATOM      6  C   LIG    1       24.891 -12.582   2.476  0.00  0.00    +0.001 A 
ATOM      7  C   LIG    1       26.184 -13.086   2.334  0.00  0.00    +0.000 A 
ATOM      8  C   LIG    1       26.533 -14.294   2.936  0.00  0.00    +0.001 A 
ATOM      9  C   LIG    1       25.592 -15.001   3.683  0.00  0.00    +0.015 A 
ENDBRANCH   3   4
ENDBRANCH   1   3
BRANCH   1  10
ATOM     10  O   LIG    1       22.153 -17.191   4.927  0.00  0.00    -0.241 OA
BRANCH  10  11
ATOM     11  C   LIG    1       21.886 -18.374   4.306  0.00  0.00    +0.387 C 
ATOM     12  O   LIG    1       20.944 -18.629   3.581  0.00  0.00    -0.241 OA
BRANCH  11  13
ATOM     13  C   LIG    1       22.946 -19.352   4.663  0.00  0.00    +0.063 A 
ATOM     14  C   LIG    1       22.824 -20.078   5.853  0.00  0.00    +0.015 A 
ATOM     15  C   LIG    1       23.797 -21.021   6.196  0.00  0.00    +0.001 A 
ATOM     16  C   LIG    1       24.884 -21.244   5.348  0.00  0.00    +0.000 A 
ATOM     17  C   LIG    1       25.004 -20.526   4.159  0.00  0.00    +0.001 A 
ATOM     18  C   LIG    1       24.038 -19.581   3.815  0.00  0.00    +0.015 A 
ENDBRANCH  11  13
ENDBRANCH  10  11
ENDBRANCH   1  10
TORSDOF 5
ENDMDL
