MODEL 1
REMARK VINA RESULT:      -8.8      0.000      0.000
REMARK  Name = *****
REMARK                            x       y       z     vdW  Elec       q    Type
REMARK                         _______ _______ _______ _____ _____    ______ ____
ROOT
ATOM      1  C   LIG    1       25.294 -25.187   6.412  0.00  0.00    +0.019 A 
ATOM      2  C   LIG    1       25.872 -23.943   6.108  0.00  0.00    +0.035 A 
ATOM      3  C   LIG    1       25.114 -22.756   6.113  0.00  0.00    +0.049 A 
ATOM      4  N   LIG    1       25.692 -21.510   5.790  0.00  0.00    -0.297 N 
ATOM      5  C   LIG    1       24.984 -20.489   5.111  0.00  0.00    +0.048 A 
ATOM      6  C   LIG    1       23.593 -20.335   5.280  0.00  0.00    +0.034 A 
ATOM      7  S   LIG    1       22.653 -21.431   6.334  0.00  0.00    -0.086 S 
ATOM      8  C   LIG    1       22.906 -19.300   4.625  0.00  0.00    +0.017 A 
ATOM      9  C   LIG    1       23.578 -18.443   3.754  0.00  0.00    +0.001 A 
ATOM     10  C   LIG    1       24.930 -18.638   3.507  0.00  0.00    +0.002 A 
ATOM     11  C   LIG    1       25.621 -19.653   4.174  0.00  0.00    +0.024 A 
ATOM     12  C   LIG    1       23.729 -22.861   6.365  0.00  0.00    +0.034 A 
ATOM     13  C   LIG    1       23.153 -24.103   6.669  0.00  0.00    +0.017 A 
ATOM     14  C   LIG    1       23.931 -25.261   6.695  0.00  0.00    +0.012 A 
ENDROOT
BRANCH   1  15
ATOM     15  C   LIG    1       26.161 -26.402   6.382  0.00  0.00    +0.163 C 
ATOM     16  O   LIG    1       27.026 -26.499   5.523  0.00  0.00    -0.292 OA
BRANCH  15  18
ATOM     17  C   LIG    1       25.118 -28.624   6.899  0.00  0.00    +0.012 C 
ATOM     18  C   LIG    1       25.957 -27.479   7.438  0.00  0.00    +0.076 C 
ENDBRANCH  15  18
ENDBRANCH   1  15
BRANCH   4  19
ATOM     19  C   LIG    1       27.064 -21.198   6.266  0.00  0.00    +0.129 C 
BRANCH  19  20
ATOM     20  C   LIG    1       27.266 -21.212   7.824  0.00  0.00    +0.071 C 
ATOM     21  C   LIG    1       26.077 -20.587   8.580  0.00  0.00    +0.026 C 
BRANCH  20  22
ATOM     22  N   LIG    1       28.539 -20.574   8.294  0.00  0.00    -0.304 NA
ATOM     23  C   LIG    1       28.953 -19.410   7.508  0.00  0.00    +0.105 C 
ATOM     24  C   LIG    1       29.650 -21.521   8.401  0.00  0.00    +0.105 C 
ENDBRANCH  20  22
ENDBRANCH  19  20
ENDBRANCH   4  19
TORSDOF 5
ENDMDL
MODEL 2
REMARK VINA RESULT:      -8.2      2.314      5.788
REMARK  Name = *****
REMARK                            x       y       z     vdW  Elec       q    Type
REMARK                         _______ _______ _______ _____ _____    ______ ____
ROOT
ATOM      1  C   LIG    1       29.395 -20.136   7.489  0.00  0.00    +0.019 A 
ATOM      2  C   LIG    1       28.152 -20.789   7.495  0.00  0.00    +0.035 A 
ATOM      3  C   LIG    1       27.236 -20.643   6.435  0.00  0.00    +0.049 A 
ATOM      4  N   LIG    1       25.980 -21.286   6.452  0.00  0.00    -0.297 N 
ATOM      5  C   LIG    1       24.816 -20.708   5.891  0.00  0.00    +0.048 A 
ATOM      6  C   LIG    1       24.895 -19.855   4.771  0.00  0.00    +0.034 A 
ATOM      7  S   LIG    1       26.465 -19.441   4.023  0.00  0.00    -0.086 S 
ATOM      8  C   LIG    1       23.730 -19.311   4.205  0.00  0.00    +0.017 A 
ATOM      9  C   LIG    1       22.483 -19.561   4.775  0.00  0.00    +0.001 A 
ATOM     10  C   LIG    1       22.396 -20.325   5.931  0.00  0.00    +0.002 A 
ATOM     11  C   LIG    1       23.551 -20.886   6.484  0.00  0.00    +0.024 A 
ATOM     12  C   LIG    1       27.576 -19.758   5.390  0.00  0.00    +0.034 A 
ATOM     13  C   LIG    1       28.817 -19.106   5.384  0.00  0.00    +0.017 A 
ATOM     14  C   LIG    1       29.725 -19.296   6.427  0.00  0.00    +0.012 A 
ENDROOT
BRANCH   1  15
ATOM     15  C   LIG    1       30.312 -20.336   8.650  0.00  0.00    +0.163 C 
ATOM     16  O   LIG    1       30.350 -21.427   9.202  0.00  0.00    -0.292 OA
BRANCH  15  18
ATOM     17  C   LIG    1       30.357 -18.041   9.661  0.00  0.00    +0.012 C 
ATOM     18  C   LIG    1       31.192 -19.179   9.102  0.00  0.00    +0.076 C 
ENDBRANCH  15  18
ENDBRANCH   1  15
BRANCH   4  19
ATOM     19  C   LIG    1       25.877 -22.670   6.979  0.00  0.00    +0.129 C 
BRANCH  19  20
ATOM     20  C   LIG    1       25.081 -23.686   6.083  0.00  0.00    +0.071 C 
ATOM     21  C   LIG    1       23.721 -24.075   6.695  0.00  0.00    +0.026 C 
BRANCH  20  22
ATOM     22  N   LIG    1       25.837 -24.933   5.729  0.00  0.00    -0.304 NA
ATOM     23  C   LIG    1       25.287 -25.665   4.586  0.00  0.00    +0.105 C 
ATOM     24  C   LIG    1       26.009 -25.841   6.864  0.00  0.00    +0.105 C 
ENDBRANCH  20  22
ENDBRANCH  19  20
ENDBRANCH   4  19
TORSDOF 5
ENDMDL
MODEL 3
REMARK VINA RESULT:      -6.2      4.550      8.996
REMARK  Name = *****
REMARK                            x       y       z     vdW  Elec       q    Type
REMARK                         _______ _______ _______ _____ _____    ______ ____
ROOT
ATOM      1  C   LIG    1       25.189 -26.385   6.197  0.00  0.00    +0.019 A 
ATOM      2  C   LIG    1       25.003 -27.315   7.233  0.00  0.00    +0.035 A 
ATOM      3  C   LIG    1       25.101 -28.701   7.007  0.00  0.00    +0.049 A 
ATOM      4  N   LIG    1       24.896 -29.634   8.046  0.00  0.00    -0.297 N 
ATOM      5  C   LIG    1       24.298 -30.900   7.832  0.00  0.00    +0.048 A 
ATOM      6  C   LIG    1       24.459 -31.582   6.610  0.00  0.00    +0.034 A 
ATOM      7  S   LIG    1       25.399 -30.876   5.263  0.00  0.00    -0.086 S 
ATOM      8  C   LIG    1       23.887 -32.851   6.420  0.00  0.00    +0.017 A 
ATOM      9  C   LIG    1       23.104 -33.431   7.418  0.00  0.00    +0.001 A 
ATOM     10  C   LIG    1       22.861 -32.732   8.593  0.00  0.00    +0.002 A 
ATOM     11  C   LIG    1       23.448 -31.480   8.793  0.00  0.00    +0.024 A 
ATOM     12  C   LIG    1       25.322 -29.138   5.683  0.00  0.00    +0.034 A 
ATOM     13  C   LIG    1       25.508 -28.209   4.649  0.00  0.00    +0.017 A 
ATOM     14  C   LIG    1       25.445 -26.839   4.904  0.00  0.00    +0.012 A 
ENDROOT
BRANCH   1  15
ATOM     15  C   LIG    1       25.066 -24.931   6.513  0.00  0.00    +0.163 C 
ATOM     16  O   LIG    1       26.079 -24.268   6.687  0.00  0.00    -0.292 OA
BRANCH  15  18
ATOM     17  C   LIG    1       23.757 -22.840   6.967  0.00  0.00    +0.012 C 
ATOM     18  C   LIG    1       23.679 -24.308   6.587  0.00  0.00    +0.076 C 
ENDBRANCH  15  18
ENDBRANCH   1  15
BRANCH   4  19
ATOM     19  C   LIG    1       25.418 -29.338   9.404  0.00  0.00    +0.129 C 
BRANCH  19  20
ATOM     20  C   LIG    1       26.956 -29.585   9.615  0.00  0.00    +0.071 C 
ATOM     21  C   LIG    1       27.285 -31.067   9.880  0.00  0.00    +0.026 C 
BRANCH  20  22
ATOM     22  N   LIG    1       27.583 -28.741  10.685  0.00  0.00    -0.304 NA
ATOM     23  C   LIG    1       28.410 -29.490  11.633  0.00  0.00    +0.105 C 
ATOM     24  C   LIG    1       26.612 -27.922  11.412  0.00  0.00    +0.105 C 
ENDBRANCH  20  22
ENDBRANCH  19  20
ENDBRANCH   4  19
TORSDOF 5
ENDMDL
MODEL 4
REMARK VINA RESULT:      -6.1      5.506      9.470
REMARK  Name = *****
REMARK                            x       y       z     vdW  Elec       q    Type
REMARK                         _______ _______ _______ _____ _____    ______ ____
ROOT
ATOM      1  C   LIG    1       25.329 -28.015   6.054  0.00  0.00    +0.019 A 
ATOM      2  C   LIG    1       25.197 -28.286   7.426  0.00  0.00    +0.035 A 
ATOM      3  C   LIG    1       24.787 -29.549   7.892  0.00  0.00    +0.049 A 
ATOM      4  N   LIG    1       24.638 -29.814   9.271  0.00  0.00    -0.297 N 
ATOM      5  C   LIG    1       23.644 -30.683   9.781  0.00  0.00    +0.048 A 
ATOM      6  C   LIG    1       23.198 -31.794   9.036  0.00  0.00    +0.034 A 
ATOM      7  S   LIG    1       23.842 -32.144   7.405  0.00  0.00    -0.086 S 
ATOM      8  C   LIG    1       22.233 -32.667   9.566  0.00  0.00    +0.017 A 
ATOM      9  C   LIG    1       21.661 -32.418  10.812  0.00  0.00    +0.001 A 
ATOM     10  C   LIG    1       22.023 -31.279  11.519  0.00  0.00    +0.002 A 
ATOM     11  C   LIG    1       22.999 -30.421  11.005  0.00  0.00    +0.024 A 
ATOM     12  C   LIG    1       24.440 -30.524   6.933  0.00  0.00    +0.034 A 
ATOM     13  C   LIG    1       24.572 -30.253   5.564  0.00  0.00    +0.017 A 
ATOM     14  C   LIG    1       25.017 -29.006   5.125  0.00  0.00    +0.012 A 
ENDROOT
BRANCH   1  15
ATOM     15  C   LIG    1       25.765 -26.650   5.635  0.00  0.00    +0.163 C 
ATOM     16  O   LIG    1       26.954 -26.367   5.660  0.00  0.00    -0.292 OA
BRANCH  15  18
ATOM     17  C   LIG    1       23.999 -25.016   6.344  0.00  0.00    +0.012 C 
ATOM     18  C   LIG    1       24.715 -25.653   5.166  0.00  0.00    +0.076 C 
ENDBRANCH  15  18
ENDBRANCH   1  15
BRANCH   4  19
ATOM     19  C   LIG    1       25.620 -29.251  10.231  0.00  0.00    +0.129 C 
BRANCH  19  20
ATOM     20  C   LIG    1       27.034 -29.937  10.244  0.00  0.00    +0.071 C 
ATOM     21  C   LIG    1       27.060 -31.252   9.441  0.00  0.00    +0.026 C 
BRANCH  20  22
ATOM     22  N   LIG    1       27.595 -30.184  11.613  0.00  0.00    -0.304 NA
ATOM     23  C   LIG    1       26.647 -29.945  12.703  0.00  0.00    +0.105 C 
ATOM     24  C   LIG    1       28.836 -29.450  11.866  0.00  0.00    +0.105 C 
ENDBRANCH  20  22
ENDBRANCH  19  20
ENDBRANCH   4  19
TORSDOF 5
ENDMDL
MODEL 5
REMARK VINA RESULT:      -6.0      2.496      6.307
REMARK  Name = *****
REMARK                            x       y       z     vdW  Elec       q    Type
REMARK                         _______ _______ _______ _____ _____    ______ ____
ROOT
ATOM      1  C   LIG    1       28.107 -19.764   6.558  0.00  0.00    +0.019 A 
ATOM      2  C   LIG    1       27.187 -20.429   5.731  0.00  0.00    +0.035 A 
ATOM      3  C   LIG    1       26.329 -21.425   6.234  0.00  0.00    +0.049 A 
ATOM      4  N   LIG    1       25.417 -22.104   5.397  0.00  0.00    -0.297 N 
ATOM      5  C   LIG    1       25.073 -23.465   5.584  0.00  0.00    +0.048 A 
ATOM      6  C   LIG    1       25.051 -24.039   6.871  0.00  0.00    +0.034 A 
ATOM      7  S   LIG    1       25.480 -23.090   8.324  0.00  0.00    -0.086 S 
ATOM      8  C   LIG    1       24.679 -25.382   7.047  0.00  0.00    +0.017 A 
ATOM      9  C   LIG    1       24.380 -26.184   5.946  0.00  0.00    +0.001 A 
ATOM     10  C   LIG    1       24.485 -25.659   4.665  0.00  0.00    +0.002 A 
ATOM     11  C   LIG    1       24.833 -24.317   4.488  0.00  0.00    +0.024 A 
ATOM     12  C   LIG    1       26.469 -21.792   7.590  0.00  0.00    +0.034 A 
ATOM     13  C   LIG    1       27.388 -21.127   8.414  0.00  0.00    +0.017 A 
ATOM     14  C   LIG    1       28.202 -20.116   7.903  0.00  0.00    +0.012 A 
ENDROOT
BRANCH   1  15
ATOM     15  C   LIG    1       28.988 -18.721   5.951  0.00  0.00    +0.163 C 
ATOM     16  O   LIG    1       28.701 -18.258   4.857  0.00  0.00    -0.292 OA
BRANCH  15  18
ATOM     17  C   LIG    1       31.198 -19.380   6.937  0.00  0.00    +0.012 C 
ATOM     18  C   LIG    1       30.209 -18.247   6.726  0.00  0.00    +0.076 C 
ENDBRANCH  15  18
ENDBRANCH   1  15
BRANCH   4  19
ATOM     19  C   LIG    1       24.699 -21.350   4.339  0.00  0.00    +0.129 C 
BRANCH  19  20
ATOM     20  C   LIG    1       23.600 -20.345   4.842  0.00  0.00    +0.071 C 
ATOM     21  C   LIG    1       22.254 -21.037   5.134  0.00  0.00    +0.026 C 
BRANCH  20  22
ATOM     22  N   LIG    1       23.366 -19.172   3.937  0.00  0.00    -0.304 NA
ATOM     23  C   LIG    1       24.581 -18.438   3.578  0.00  0.00    +0.105 C 
ATOM     24  C   LIG    1       22.359 -18.242   4.451  0.00  0.00    +0.105 C 
ENDBRANCH  20  22
ENDBRANCH  19  20
ENDBRANCH   4  19
TORSDOF 5
ENDMDL
