MODEL 1
REMARK VINA RESULT:      -4.0      0.000      0.000
REMARK  Name = *****
REMARK                            x       y       z     vdW  Elec       q    Type
REMARK                         _______ _______ _______ _____ _____    ______ ____
ROOT
ATOM      1  C   LIG    1       26.035 -18.368   3.343  0.00  0.00    +0.155 C 
ATOM      2  N   LIG    1       25.346 -19.205   4.305  0.00  0.00    -0.280 N 
ATOM      3  C   LIG    1       26.109 -19.965   5.199  0.00  0.00    +0.333 C 
ATOM      4  O   LIG    1       27.343 -19.931   5.182  0.00  0.00    -0.246 OA
ATOM      5  N   LIG    1       25.410 -20.771   6.121  0.00  0.00    -0.262 N 
ATOM      6  C   LIG    1       26.220 -21.554   7.033  0.00  0.00    +0.157 C 
ATOM      7  C   LIG    1       24.022 -20.872   6.222  0.00  0.00    +0.282 C 
ATOM      8  O   LIG    1       23.420 -21.572   7.029  0.00  0.00    -0.265 OA
ATOM      9  C   LIG    1       23.346 -20.065   5.274  0.00  0.00    +0.150 A 
ATOM     10  N   LIG    1       22.012 -19.892   5.050  0.00  0.00    -0.323 N 
ATOM     11  H   LIG    1       21.246 -20.328   5.545  0.00  0.00    +0.168 HD
ATOM     12  C   LIG    1       21.920 -19.006   4.018  0.00  0.00    +0.203 A 
ATOM     13 CL   LIG    1       20.385 -18.553   3.464  0.00  0.00    -0.043 Cl
ATOM     14  N   LIG    1       23.087 -18.606   3.571  0.00  0.00    -0.199 NA
ATOM     15  C   LIG    1       23.976 -19.272   4.361  0.00  0.00    +0.169 A 
ENDROOT
TORSDOF 0
ENDMDL
MODEL 2
REMARK VINA RESULT:      -3.2      1.915      2.380
REMARK  Name = *****
REMARK                            x       y       z     vdW  Elec       q    Type
REMARK                         _______ _______ _______ _____ _____    ______ ____
ROOT
ATOM      1  C   LIG    1       25.918 -17.685   3.239  0.00  0.00    +0.155 C 
ATOM      2  N   LIG    1       26.171 -18.704   4.238  0.00  0.00    -0.280 N 
ATOM      3  C   LIG    1       27.450 -18.788   4.800  0.00  0.00    +0.333 C 
ATOM      4  O   LIG    1       28.353 -18.016   4.463  0.00  0.00    -0.246 OA
ATOM      5  N   LIG    1       27.666 -19.792   5.767  0.00  0.00    -0.262 N 
ATOM      6  C   LIG    1       28.999 -19.865   6.331  0.00  0.00    +0.157 C 
ATOM      7  C   LIG    1       26.711 -20.704   6.217  0.00  0.00    +0.282 C 
ATOM      8  O   LIG    1       26.903 -21.572   7.062  0.00  0.00    -0.265 OA
ATOM      9  C   LIG    1       25.454 -20.533   5.587  0.00  0.00    +0.150 A 
ATOM     10  N   LIG    1       24.284 -21.217   5.745  0.00  0.00    -0.323 N 
ATOM     11  H   LIG    1       24.108 -21.994   6.367  0.00  0.00    +0.168 HD
ATOM     12  C   LIG    1       23.395 -20.635   4.890  0.00  0.00    +0.203 A 
ATOM     13 CL   LIG    1       21.815 -21.239   4.819  0.00  0.00    -0.043 Cl
ATOM     14  N   LIG    1       23.908 -19.641   4.205  0.00  0.00    -0.199 NA
ATOM     15  C   LIG    1       25.196 -19.582   4.645  0.00  0.00    +0.169 A 
ENDROOT
TORSDOF 0
ENDMDL
MODEL 3
REMARK VINA RESULT:      -2.5      3.033      4.480
REMARK  Name = *****
REMARK                            x       y       z     vdW  Elec       q    Type
REMARK                         _______ _______ _______ _____ _____    ______ ____
ROOT
ATOM      1  C   LIG    1       24.454 -19.440   3.681  0.00  0.00    +0.155 C 
ATOM      2  N   LIG    1       25.766 -19.086   4.184  0.00  0.00    -0.280 N 
ATOM      3  C   LIG    1       26.456 -20.016   4.970  0.00  0.00    +0.333 C 
ATOM      4  O   LIG    1       25.969 -21.119   5.237  0.00  0.00    -0.246 OA
ATOM      5  N   LIG    1       27.729 -19.641   5.446  0.00  0.00    -0.262 N 
ATOM      6  C   LIG    1       28.422 -20.616   6.264  0.00  0.00    +0.157 C 
ATOM      7  C   LIG    1       28.364 -18.424   5.195  0.00  0.00    +0.282 C 
ATOM      8  O   LIG    1       29.474 -18.106   5.608  0.00  0.00    -0.265 OA
ATOM      9  C   LIG    1       27.583 -17.558   4.391  0.00  0.00    +0.150 A 
ATOM     10  N   LIG    1       27.844 -16.299   3.935  0.00  0.00    -0.323 N 
ATOM     11  H   LIG    1       28.675 -15.748   4.099  0.00  0.00    +0.168 HD
ATOM     12  C   LIG    1       26.751 -15.933   3.208  0.00  0.00    +0.203 A 
ATOM     13 CL   LIG    1       26.727 -14.404   2.481  0.00  0.00    -0.043 Cl
ATOM     14  N   LIG    1       25.821 -16.857   3.167  0.00  0.00    -0.199 NA
ATOM     15  C   LIG    1       26.347 -17.872   3.910  0.00  0.00    +0.169 A 
ENDROOT
TORSDOF 0
ENDMDL
MODEL 4
REMARK VINA RESULT:      -2.0      5.214      6.659
REMARK  Name = *****
REMARK                            x       y       z     vdW  Elec       q    Type
REMARK                         _______ _______ _______ _____ _____    ______ ____
ROOT
ATOM      1  C   LIG    1       23.898 -12.885   4.531  0.00  0.00    +0.155 C 
ATOM      2  N   LIG    1       24.628 -14.093   4.204  0.00  0.00    -0.280 N 
ATOM      3  C   LIG    1       23.924 -15.300   4.121  0.00  0.00    +0.333 C 
ATOM      4  O   LIG    1       22.706 -15.349   4.318  0.00  0.00    -0.246 OA
ATOM      5  N   LIG    1       24.663 -16.459   3.804  0.00  0.00    -0.262 N 
ATOM      6  C   LIG    1       23.914 -17.698   3.730  0.00  0.00    +0.157 C 
ATOM      7  C   LIG    1       26.036 -16.504   3.559  0.00  0.00    +0.282 C 
ATOM      8  O   LIG    1       26.672 -17.514   3.279  0.00  0.00    -0.265 OA
ATOM      9  C   LIG    1       26.651 -15.233   3.668  0.00  0.00    +0.150 A 
ATOM     10  N   LIG    1       27.955 -14.865   3.509  0.00  0.00    -0.323 N 
ATOM     11  H   LIG    1       28.736 -15.462   3.276  0.00  0.00    +0.168 HD
ATOM     12  C   LIG    1       27.991 -13.520   3.729  0.00  0.00    +0.203 A 
ATOM     13 CL   LIG    1       29.475 -12.713   3.616  0.00  0.00    -0.043 Cl
ATOM     14  N   LIG    1       26.817 -13.009   4.015  0.00  0.00    -0.199 NA
ATOM     15  C   LIG    1       25.982 -14.086   3.975  0.00  0.00    +0.169 A 
ENDROOT
TORSDOF 0
ENDMDL
MODEL 5
REMARK VINA RESULT:      -1.6      2.903      3.939
REMARK  Name = *****
REMARK                            x       y       z     vdW  Elec       q    Type
REMARK                         _______ _______ _______ _____ _____    ______ ____
ROOT
ATOM      1  C   LIG    1       28.580 -19.365   5.741  0.00  0.00    +0.155 C 
ATOM      2  N   LIG    1       27.281 -19.319   5.099  0.00  0.00    -0.280 N 
ATOM      3  C   LIG    1       26.429 -20.422   5.231  0.00  0.00    +0.333 C 
ATOM      4  O   LIG    1       26.763 -21.419   5.879  0.00  0.00    -0.246 OA
ATOM      5  N   LIG    1       25.174 -20.348   4.593  0.00  0.00    -0.262 N 
ATOM      6  C   LIG    1       24.311 -21.504   4.737  0.00  0.00    +0.157 C 
ATOM      7  C   LIG    1       24.705 -19.266   3.846  0.00  0.00    +0.282 C 
ATOM      8  O   LIG    1       23.610 -19.206   3.298  0.00  0.00    -0.265 OA
ATOM      9  C   LIG    1       25.641 -18.205   3.776  0.00  0.00    +0.150 A 
ATOM     10  N   LIG    1       25.564 -16.997   3.149  0.00  0.00    -0.323 N 
ATOM     11  H   LIG    1       24.791 -16.638   2.605  0.00  0.00    +0.168 HD
ATOM     12  C   LIG    1       26.746 -16.369   3.405  0.00  0.00    +0.203 A 
ATOM     13 CL   LIG    1       27.003 -14.820   2.769  0.00  0.00    -0.043 Cl
ATOM     14  N   LIG    1       27.564 -17.082   4.142  0.00  0.00    -0.199 NA
ATOM     15  C   LIG    1       26.867 -18.230   4.371  0.00  0.00    +0.169 A 
ENDROOT
TORSDOF 0
ENDMDL
MODEL 6
REMARK VINA RESULT:      -1.3      3.527      5.239
REMARK  Name = *****
REMARK                            x       y       z     vdW  Elec       q    Type
REMARK                         _______ _______ _______ _____ _____    ______ ____
ROOT
ATOM      1  C   LIG    1       22.021 -16.112   4.787  0.00  0.00    +0.155 C 
ATOM      2  N   LIG    1       23.394 -16.164   4.325  0.00  0.00    -0.280 N 
ATOM      3  C   LIG    1       24.110 -14.966   4.217  0.00  0.00    +0.333 C 
ATOM      4  O   LIG    1       23.596 -13.881   4.506  0.00  0.00    -0.246 OA
ATOM      5  N   LIG    1       25.443 -15.049   3.762  0.00  0.00    -0.262 N 
ATOM      6  C   LIG    1       26.163 -13.796   3.651  0.00  0.00    +0.157 C 
ATOM      7  C   LIG    1       26.111 -16.225   3.417  0.00  0.00    +0.282 C 
ATOM      8  O   LIG    1       27.272 -16.291   3.027  0.00  0.00    -0.265 OA
ATOM      9  C   LIG    1       25.299 -17.376   3.563  0.00  0.00    +0.150 A 
ATOM     10  N   LIG    1       25.577 -18.691   3.328  0.00  0.00    -0.323 N 
ATOM     11  H   LIG    1       26.448 -19.083   2.997  0.00  0.00    +0.168 HD
ATOM     12  C   LIG    1       24.437 -19.372   3.632  0.00  0.00    +0.203 A 
ATOM     13 CL   LIG    1       24.419 -21.056   3.454  0.00  0.00    -0.043 Cl
ATOM     14  N   LIG    1       23.461 -18.596   4.040  0.00  0.00    -0.199 NA
ATOM     15  C   LIG    1       24.006 -17.348   3.995  0.00  0.00    +0.169 A 
ENDROOT
TORSDOF 0
ENDMDL
MODEL 7
REMARK VINA RESULT:      -1.0      2.734      4.159
REMARK  Name = *****
REMARK                            x       y       z     vdW  Elec       q    Type
REMARK                         _______ _______ _______ _____ _____    ______ ____
ROOT
ATOM      1  C   LIG    1       21.967 -17.158   4.444  0.00  0.00    +0.155 C 
ATOM      2  N   LIG    1       23.141 -17.991   4.274  0.00  0.00    -0.280 N 
ATOM      3  C   LIG    1       23.024 -19.367   4.498  0.00  0.00    +0.333 C 
ATOM      4  O   LIG    1       21.950 -19.876   4.831  0.00  0.00    -0.246 OA
ATOM      5  N   LIG    1       24.185 -20.150   4.327  0.00  0.00    -0.262 N 
ATOM      6  C   LIG    1       24.043 -21.572   4.570  0.00  0.00    +0.157 C 
ATOM      7  C   LIG    1       25.440 -19.670   3.949  0.00  0.00    +0.282 C 
ATOM      8  O   LIG    1       26.444 -20.357   3.797  0.00  0.00    -0.265 OA
ATOM      9  C   LIG    1       25.449 -18.268   3.747  0.00  0.00    +0.150 A 
ATOM     10  N   LIG    1       26.464 -17.433   3.382  0.00  0.00    -0.323 N 
ATOM     11  H   LIG    1       27.422 -17.685   3.183  0.00  0.00    +0.168 HD
ATOM     12  C   LIG    1       25.920 -16.184   3.339  0.00  0.00    +0.203 A 
ATOM     13 CL   LIG    1       26.909 -14.877   2.915  0.00  0.00    -0.043 Cl
ATOM     14  N   LIG    1       24.646 -16.161   3.648  0.00  0.00    -0.199 NA
ATOM     15  C   LIG    1       24.356 -17.468   3.903  0.00  0.00    +0.169 A 
ENDROOT
TORSDOF 0
ENDMDL
