MODEL 1
REMARK VINA RESULT:       9.2      0.000      0.000
REMARK  Name = *****
REMARK                            x       y       z     vdW  Elec       q    Type
REMARK                         _______ _______ _______ _____ _____    ______ ____
ROOT
ATOM      1  C   LIG    1       26.238 -20.276   4.479  0.00  0.00    +0.213 C 
ENDROOT
BRANCH   1   2
ATOM      2  C   LIG    1       27.394 -19.781   5.359  0.00  0.00    -0.025 A 
ATOM      3  C   LIG    1       28.109 -20.652   6.200  0.00  0.00    +0.005 A 
ATOM      4  C   LIG    1       29.134 -20.173   7.021  0.00  0.00    +0.000 A 
ATOM      5  C   LIG    1       29.475 -18.823   7.000  0.00  0.00    +0.000 A 
ATOM      6  C   LIG    1       28.806 -17.954   6.142  0.00  0.00    +0.000 A 
ATOM      7  C   LIG    1       27.776 -18.429   5.322  0.00  0.00    +0.005 A 
ENDBRANCH   1   2
BRANCH   1  10
ATOM      8  N   LIG    1       25.674 -17.973   3.808  0.00  0.00    -0.301 N 
ATOM      9  H   LIG    1       25.832 -17.749   4.786  0.00  0.00    +0.150 HD
ATOM     10  C   LIG    1       25.916 -19.265   3.375  0.00  0.00    +0.232 C 
ATOM     11  O   LIG    1       25.862 -19.545   2.179  0.00  0.00    -0.275 OA
BRANCH   8  17
ATOM     12  C   LIG    1       26.594 -14.366   5.768  0.00  0.00    +0.025 C 
ATOM     13  C   LIG    1       25.314 -13.906   5.042  0.00  0.00    +0.042 C 
ATOM     14  CA  LIG    1       25.597 -13.551   3.561  0.00  0.00    +0.201 C 
ATOM     15  N   LIG    1       25.436 -14.780   2.769  0.00  0.00    -0.271 N 
ATOM     16  C   LIG    1       24.402 -15.738   3.241  0.00  0.00    +0.165 C 
ATOM     17  CA  LIG    1       25.377 -16.880   2.839  0.00  0.00    +0.190 C 
ATOM     18  C   LIG    1       26.413 -15.739   2.764  0.00  0.00    +0.240 C 
ATOM     19  O   LIG    1       27.622 -15.640   2.849  0.00  0.00    -0.273 OA
ATOM     20  S   LIG    1       24.162 -15.360   5.020  0.00  0.00    -0.127 S 
ATOM     21  C   LIG    1       24.695 -12.768   5.862  0.00  0.00    +0.025 C 
BRANCH  14  22
ATOM     22  C   LIG    1       24.716 -12.449   2.931  0.00  0.00    +0.327 C 
ATOM     23  O   LIG    1       23.703 -11.970   3.418  0.00  0.00    -0.249 OA
BRANCH  22  24
ATOM     24  OXT LIG    1       25.259 -11.902   1.812  0.00  0.00    -0.479 OA
ATOM     25  HXT LIG    1       24.586 -11.773   1.116  0.00  0.00    +0.295 HD
ENDBRANCH  22  24
ENDBRANCH  14  22
ENDBRANCH   8  17
ENDBRANCH   1  10
BRANCH   1  26
ATOM     26  C   LIG    1       25.011 -20.670   5.291  0.00  0.00    +0.329 C 
ATOM     27  O   LIG    1       24.877 -20.473   6.496  0.00  0.00    -0.249 OA
BRANCH  26  28
ATOM     28  O   LIG    1       24.093 -21.370   4.492  0.00  0.00    -0.425 OA
BRANCH  28  29
ATOM     29  C   LIG    1       22.869 -20.728   4.193  0.00  0.00    +0.132 A 
ATOM     30  C   LIG    1       22.892 -19.573   3.399  0.00  0.00    +0.050 A 
ATOM     31  C   LIG    1       21.687 -18.915   3.179  0.00  0.00    -0.041 A 
ATOM     32  C   LIG    1       21.433 -17.658   2.399  0.00  0.00    +0.036 C 
ATOM     33  C   LIG    1       19.905 -17.703   2.230  0.00  0.00    +0.009 C 
ATOM     34  C   LIG    1       19.350 -18.470   3.436  0.00  0.00    +0.036 C 
ATOM     35  C   LIG    1       20.496 -19.377   3.754  0.00  0.00    -0.044 A 
ATOM     36  C   LIG    1       20.474 -20.504   4.555  0.00  0.00    +0.007 A 
ATOM     37  C   LIG    1       21.674 -21.173   4.783  0.00  0.00    +0.046 A 
ENDBRANCH  28  29
ENDBRANCH  26  28
ENDBRANCH   1  26
TORSDOF 8
ENDMDL
MODEL 2
REMARK VINA RESULT:       9.3      1.601      5.303
REMARK  Name = *****
REMARK                            x       y       z     vdW  Elec       q    Type
REMARK                         _______ _______ _______ _____ _____    ______ ____
ROOT
ATOM      1  C   LIG    1       23.912 -19.058   4.032  0.00  0.00    +0.213 C 
ENDROOT
BRANCH   1   2
ATOM      2  C   LIG    1       22.492 -18.483   3.936  0.00  0.00    -0.025 A 
ATOM      3  C   LIG    1       21.410 -19.257   3.483  0.00  0.00    +0.005 A 
ATOM      4  C   LIG    1       20.131 -18.703   3.368  0.00  0.00    +0.000 A 
ATOM      5  C   LIG    1       19.910 -17.376   3.724  0.00  0.00    +0.000 A 
ATOM      6  C   LIG    1       20.962 -16.607   4.216  0.00  0.00    +0.000 A 
ATOM      7  C   LIG    1       22.243 -17.156   4.326  0.00  0.00    +0.005 A 
ENDBRANCH   1   2
BRANCH   1  10
ATOM      8  N   LIG    1       24.699 -16.823   3.352  0.00  0.00    -0.301 N 
ATOM      9  H   LIG    1       23.992 -16.481   3.997  0.00  0.00    +0.150 HD
ATOM     10  C   LIG    1       24.909 -18.188   3.260  0.00  0.00    +0.232 C 
ATOM     11  O   LIG    1       25.838 -18.634   2.591  0.00  0.00    -0.275 OA
BRANCH   8  17
ATOM     12  C   LIG    1       27.105 -15.149   6.370  0.00  0.00    +0.025 C 
ATOM     13  C   LIG    1       26.874 -13.874   5.535  0.00  0.00    +0.042 C 
ATOM     14  CA  LIG    1       27.814 -13.822   4.305  0.00  0.00    +0.201 C 
ATOM     15  N   LIG    1       27.133 -14.503   3.193  0.00  0.00    -0.271 N 
ATOM     16  C   LIG    1       25.653 -14.377   3.150  0.00  0.00    +0.165 C 
ATOM     17  CA  LIG    1       25.609 -15.857   2.676  0.00  0.00    +0.190 C 
ATOM     18  C   LIG    1       27.081 -15.870   3.142  0.00  0.00    +0.240 C 
ATOM     19  O   LIG    1       27.880 -16.709   3.512  0.00  0.00    -0.273 OA
ATOM     20  S   LIG    1       25.146 -13.980   4.868  0.00  0.00    -0.127 S 
ATOM     21  C   LIG    1       26.991 -12.670   6.477  0.00  0.00    +0.025 C 
BRANCH  14  22
ATOM     22  C   LIG    1       28.246 -12.419   3.820  0.00  0.00    +0.327 C 
ATOM     23  O   LIG    1       27.815 -11.831   2.840  0.00  0.00    -0.249 OA
BRANCH  22  24
ATOM     24  OXT LIG    1       29.066 -11.778   4.694  0.00  0.00    -0.479 OA
ATOM     25  HXT LIG    1       29.817 -12.344   4.958  0.00  0.00    +0.295 HD
ENDBRANCH  22  24
ENDBRANCH  14  22
ENDBRANCH   8  17
ENDBRANCH   1  10
BRANCH   1  26
ATOM     26  C   LIG    1       23.978 -20.525   3.628  0.00  0.00    +0.329 C 
ATOM     27  O   LIG    1       23.596 -20.972   2.550  0.00  0.00    -0.249 OA
BRANCH  26  28
ATOM     28  O   LIG    1       24.450 -21.310   4.692  0.00  0.00    -0.425 OA
BRANCH  28  29
ATOM     29  C   LIG    1       25.641 -20.893   5.330  0.00  0.00    +0.132 A 
ATOM     30  C   LIG    1       26.401 -19.877   4.736  0.00  0.00    +0.050 A 
ATOM     31  C   LIG    1       27.606 -19.533   5.338  0.00  0.00    -0.041 A 
ATOM     32  C   LIG    1       28.615 -18.512   4.903  0.00  0.00    +0.036 C 
ATOM     33  C   LIG    1       29.475 -18.366   6.171  0.00  0.00    +0.009 C 
ATOM     34  C   LIG    1       29.405 -19.709   6.906  0.00  0.00    +0.036 C 
ATOM     35  C   LIG    1       28.057 -20.200   6.485  0.00  0.00    -0.044 A 
ATOM     36  C   LIG    1       27.318 -21.218   7.061  0.00  0.00    +0.007 A 
ATOM     37  C   LIG    1       26.109 -21.572   6.468  0.00  0.00    +0.046 A 
ENDBRANCH  28  29
ENDBRANCH  26  28
ENDBRANCH   1  26
TORSDOF 8
ENDMDL
