MODEL 1
REMARK VINA RESULT:      -5.2      0.000      0.000
REMARK  Name = *****
REMARK                            x       y       z     vdW  Elec       q    Type
REMARK                         _______ _______ _______ _____ _____    ______ ____
ROOT
ATOM      1  N   LIG    1       26.655 -18.292   3.890  0.00  0.00    -0.324 N 
ENDROOT
BRANCH   1   2
ATOM      2  C   LIG    1       27.449 -18.927   4.856  0.00  0.00    +0.030 A 
ATOM      3  C   LIG    1       26.977 -20.024   5.589  0.00  0.00    +0.023 A 
ATOM      4  C   LIG    1       27.708 -20.562   6.667  0.00  0.00    +0.002 A 
ATOM      5  C   LIG    1       28.950 -20.032   7.006  0.00  0.00    +0.000 A 
ATOM      6  C   LIG    1       29.475 -18.998   6.250  0.00  0.00    +0.002 A 
ATOM      7  C   LIG    1       28.733 -18.460   5.194  0.00  0.00    +0.023 A 
ENDBRANCH   1   2
BRANCH   1   8
ATOM      8  C   LIG    1       27.085 -16.972   3.345  0.00  0.00    +0.126 C 
BRANCH   8   9
ATOM      9  C   LIG    1       26.504 -15.731   4.101  0.00  0.00    +0.100 C 
BRANCH   9  10
ATOM     10  N   LIG    1       27.538 -14.674   4.334  0.00  0.00    -0.296 NA
ATOM     11  C   LIG    1       27.178 -13.664   5.331  0.00  0.00    +0.085 C 
ATOM     12  C   LIG    1       28.198 -12.548   5.120  0.00  0.00    +0.017 C 
ATOM     13  C   LIG    1       28.798 -12.799   3.744  0.00  0.00    +0.017 C 
ATOM     14  C   LIG    1       27.951 -13.913   3.154  0.00  0.00    +0.085 C 
ENDBRANCH   9  10
BRANCH   9  15
ATOM     15  C   LIG    1       25.240 -15.240   3.339  0.00  0.00    +0.180 C 
BRANCH  15  16
ATOM     16  O   LIG    1       24.445 -14.360   4.150  0.00  0.00    -0.378 OA
BRANCH  16  17
ATOM     17  C   LIG    1       23.452 -13.678   3.393  0.00  0.00    +0.162 C 
BRANCH  17  19
ATOM     18  C   LIG    1       24.065 -11.600   4.656  0.00  0.00    +0.009 C 
ATOM     19  C   LIG    1       23.808 -12.189   3.270  0.00  0.00    +0.009 C 
ATOM     20  C   LIG    1       25.020 -11.951   2.366  0.00  0.00    +0.009 C 
ENDBRANCH  17  19
ENDBRANCH  16  17
ENDBRANCH  15  16
ENDBRANCH   9  15
ENDBRANCH   8   9
ENDBRANCH   1   8
BRANCH   1  21
ATOM     21  C   LIG    1       25.697 -19.096   3.101  0.00  0.00    +0.140 C 
BRANCH  21  22
ATOM     22  C   LIG    1       24.341 -19.378   3.747  0.00  0.00    -0.030 A 
ATOM     23  C   LIG    1       23.314 -18.418   3.800  0.00  0.00    +0.005 A 
ATOM     24  C   LIG    1       22.091 -18.680   4.413  0.00  0.00    +0.000 A 
ATOM     25  C   LIG    1       21.837 -19.927   4.950  0.00  0.00    +0.000 A 
ATOM     26  C   LIG    1       22.833 -20.910   4.913  0.00  0.00    +0.000 A 
ATOM     27  C   LIG    1       24.080 -20.631   4.328  0.00  0.00    +0.005 A 
ENDBRANCH  21  22
ENDBRANCH   1  21
TORSDOF 10
ENDMDL
MODEL 2
REMARK VINA RESULT:      -3.6      1.693      7.743
REMARK  Name = *****
REMARK                            x       y       z     vdW  Elec       q    Type
REMARK                         _______ _______ _______ _____ _____    ______ ____
ROOT
ATOM      1  N   LIG    1       25.889 -15.914   3.583  0.00  0.00    -0.324 N 
ENDROOT
BRANCH   1   2
ATOM      2  C   LIG    1       25.162 -14.730   3.396  0.00  0.00    +0.030 A 
ATOM      3  C   LIG    1       25.247 -13.996   2.205  0.00  0.00    +0.023 A 
ATOM      4  C   LIG    1       24.646 -12.728   2.073  0.00  0.00    +0.002 A 
ATOM      5  C   LIG    1       23.912 -12.187   3.126  0.00  0.00    +0.000 A 
ATOM      6  C   LIG    1       23.747 -12.925   4.286  0.00  0.00    +0.002 A 
ATOM      7  C   LIG    1       24.362 -14.173   4.412  0.00  0.00    +0.023 A 
ENDBRANCH   1   2
BRANCH   1   8
ATOM      8  C   LIG    1       25.359 -17.192   3.026  0.00  0.00    +0.126 C 
BRANCH   8   9
ATOM      9  C   LIG    1       25.094 -18.309   4.088  0.00  0.00    +0.100 C 
BRANCH   9  10
ATOM     10  N   LIG    1       23.743 -18.935   3.928  0.00  0.00    -0.296 NA
ATOM     11  C   LIG    1       22.613 -18.014   4.073  0.00  0.00    +0.085 C 
ATOM     12  C   LIG    1       21.400 -18.929   4.225  0.00  0.00    +0.017 C 
ATOM     13  C   LIG    1       21.964 -20.296   4.586  0.00  0.00    +0.017 C 
ATOM     14  C   LIG    1       23.443 -20.049   4.827  0.00  0.00    +0.085 C 
ENDBRANCH   9  10
BRANCH   9  15
ATOM     15  C   LIG    1       26.278 -19.316   4.049  0.00  0.00    +0.180 C 
BRANCH  15  16
ATOM     16  O   LIG    1       26.178 -20.289   5.100  0.00  0.00    -0.378 OA
BRANCH  16  17
ATOM     17  C   LIG    1       26.932 -19.923   6.250  0.00  0.00    +0.162 C 
BRANCH  17  19
ATOM     18  C   LIG    1       29.326 -19.177   6.291  0.00  0.00    +0.009 C 
ATOM     19  C   LIG    1       28.393 -20.370   6.092  0.00  0.00    +0.009 C 
ATOM     20  C   LIG    1       28.766 -21.495   7.061  0.00  0.00    +0.009 C 
ENDBRANCH  17  19
ENDBRANCH  16  17
ENDBRANCH  15  16
ENDBRANCH   9  15
ENDBRANCH   8   9
ENDBRANCH   1   8
BRANCH   1  21
ATOM     21  C   LIG    1       27.332 -15.833   3.897  0.00  0.00    +0.140 C 
BRANCH  21  22
ATOM     22  C   LIG    1       27.880 -14.454   4.259  0.00  0.00    -0.030 A 
ATOM     23  C   LIG    1       27.629 -13.842   5.501  0.00  0.00    +0.005 A 
ATOM     24  C   LIG    1       28.114 -12.574   5.810  0.00  0.00    +0.000 A 
ATOM     25  C   LIG    1       28.908 -11.895   4.905  0.00  0.00    +0.000 A 
ATOM     26  C   LIG    1       29.183 -12.472   3.660  0.00  0.00    +0.000 A 
ATOM     27  C   LIG    1       28.660 -13.736   3.336  0.00  0.00    +0.005 A 
ENDBRANCH  21  22
ENDBRANCH   1  21
TORSDOF 10
ENDMDL
MODEL 3
REMARK VINA RESULT:      -3.4      1.236      4.694
REMARK  Name = *****
REMARK                            x       y       z     vdW  Elec       q    Type
REMARK                         _______ _______ _______ _____ _____    ______ ____
ROOT
ATOM      1  N   LIG    1       25.293 -17.556   3.554  0.00  0.00    -0.324 N 
ENDROOT
BRANCH   1   2
ATOM      2  C   LIG    1       24.226 -18.423   3.828  0.00  0.00    +0.030 A 
ATOM      3  C   LIG    1       22.993 -17.946   4.292  0.00  0.00    +0.023 A 
ATOM      4  C   LIG    1       21.974 -18.822   4.719  0.00  0.00    +0.002 A 
ATOM      5  C   LIG    1       22.162 -20.200   4.655  0.00  0.00    +0.000 A 
ATOM      6  C   LIG    1       23.342 -20.699   4.129  0.00  0.00    +0.002 A 
ATOM      7  C   LIG    1       24.351 -19.822   3.724  0.00  0.00    +0.023 A 
ENDBRANCH   1   2
BRANCH   1   8
ATOM      8  C   LIG    1       25.205 -16.130   3.982  0.00  0.00    +0.126 C 
BRANCH   8   9
ATOM      9  C   LIG    1       25.223 -15.093   2.811  0.00  0.00    +0.100 C 
BRANCH   9  10
ATOM     10  N   LIG    1       24.386 -13.888   3.109  0.00  0.00    -0.296 NA
ATOM     11  C   LIG    1       24.636 -12.731   2.247  0.00  0.00    +0.085 C 
ATOM     12  C   LIG    1       23.948 -11.572   2.964  0.00  0.00    +0.017 C 
ATOM     13  C   LIG    1       23.722 -12.053   4.390  0.00  0.00    +0.017 C 
ATOM     14  C   LIG    1       24.473 -13.370   4.474  0.00  0.00    +0.085 C 
ENDBRANCH   9  10
BRANCH   9  15
ATOM     15  C   LIG    1       26.704 -14.777   2.458  0.00  0.00    +0.180 C 
BRANCH  15  16
ATOM     16  O   LIG    1       27.537 -14.779   3.629  0.00  0.00    -0.378 OA
BRANCH  16  17
ATOM     17  C   LIG    1       28.412 -13.657   3.671  0.00  0.00    +0.162 C 
BRANCH  17  19
ATOM     18  C   LIG    1       27.333 -13.464   5.927  0.00  0.00    +0.009 C 
ATOM     19  C   LIG    1       27.979 -12.688   4.781  0.00  0.00    +0.009 C 
ATOM     20  C   LIG    1       29.144 -11.847   5.308  0.00  0.00    +0.009 C 
ENDBRANCH  17  19
ENDBRANCH  16  17
ENDBRANCH  15  16
ENDBRANCH   9  15
ENDBRANCH   8   9
ENDBRANCH   1   8
BRANCH   1  21
ATOM     21  C   LIG    1       26.632 -18.123   3.282  0.00  0.00    +0.140 C 
BRANCH  21  22
ATOM     22  C   LIG    1       27.422 -18.628   4.490  0.00  0.00    -0.030 A 
ATOM     23  C   LIG    1       26.999 -19.721   5.267  0.00  0.00    +0.005 A 
ATOM     24  C   LIG    1       27.715 -20.156   6.379  0.00  0.00    +0.000 A 
ATOM     25  C   LIG    1       28.905 -19.542   6.722  0.00  0.00    +0.000 A 
ATOM     26  C   LIG    1       29.360 -18.453   5.970  0.00  0.00    +0.000 A 
ATOM     27  C   LIG    1       28.615 -17.991   4.871  0.00  0.00    +0.005 A 
ENDBRANCH  21  22
ENDBRANCH   1  21
TORSDOF 10
ENDMDL
MODEL 4
REMARK VINA RESULT:      -3.2      1.423      7.162
REMARK  Name = *****
REMARK                            x       y       z     vdW  Elec       q    Type
REMARK                         _______ _______ _______ _____ _____    ______ ____
ROOT
ATOM      1  N   LIG    1       25.788 -15.705   3.717  0.00  0.00    -0.324 N 
ENDROOT
BRANCH   1   2
ATOM      2  C   LIG    1       25.073 -14.542   3.397  0.00  0.00    +0.030 A 
ATOM      3  C   LIG    1       25.190 -13.931   2.141  0.00  0.00    +0.023 A 
ATOM      4  C   LIG    1       24.600 -12.680   1.870  0.00  0.00    +0.002 A 
ATOM      5  C   LIG    1       23.847 -12.034   2.847  0.00  0.00    +0.000 A 
ATOM      6  C   LIG    1       23.651 -12.651   4.071  0.00  0.00    +0.002 A 
ATOM      7  C   LIG    1       24.255 -13.883   4.335  0.00  0.00    +0.023 A 
ENDBRANCH   1   2
BRANCH   1   8
ATOM      8  C   LIG    1       25.131 -17.034   3.556  0.00  0.00    +0.126 C 
BRANCH   8   9
ATOM      9  C   LIG    1       26.118 -18.236   3.387  0.00  0.00    +0.100 C 
BRANCH   9  10
ATOM     10  N   LIG    1       26.801 -18.593   4.670  0.00  0.00    -0.296 NA
ATOM     11  C   LIG    1       28.251 -18.389   4.677  0.00  0.00    +0.085 C 
ATOM     12  C   LIG    1       28.731 -19.142   5.916  0.00  0.00    +0.017 C 
ATOM     13  C   LIG    1       27.590 -20.078   6.290  0.00  0.00    +0.017 C 
ATOM     14  C   LIG    1       26.609 -19.967   5.136  0.00  0.00    +0.085 C 
ENDBRANCH   9  10
BRANCH   9  15
ATOM     15  C   LIG    1       25.351 -19.411   2.716  0.00  0.00    +0.180 C 
BRANCH  15  16
ATOM     16  O   LIG    1       23.963 -19.413   3.086  0.00  0.00    -0.378 OA
BRANCH  16  17
ATOM     17  C   LIG    1       23.614 -20.549   3.867  0.00  0.00    +0.162 C 
BRANCH  17  19
ATOM     18  C   LIG    1       23.137 -20.466   6.328  0.00  0.00    +0.009 C 
ATOM     19  C   LIG    1       22.583 -20.161   4.938  0.00  0.00    +0.009 C 
ATOM     20  C   LIG    1       22.176 -18.687   4.848  0.00  0.00    +0.009 C 
ENDBRANCH  17  19
ENDBRANCH  16  17
ENDBRANCH  15  16
ENDBRANCH   9  15
ENDBRANCH   8   9
ENDBRANCH   1   8
BRANCH   1  21
ATOM     21  C   LIG    1       27.266 -15.656   3.757  0.00  0.00    +0.140 C 
BRANCH  21  22
ATOM     22  C   LIG    1       27.898 -14.330   4.179  0.00  0.00    -0.030 A 
ATOM     23  C   LIG    1       28.739 -13.589   3.329  0.00  0.00    +0.005 A 
ATOM     24  C   LIG    1       29.327 -12.394   3.734  0.00  0.00    +0.000 A 
ATOM     25  C   LIG    1       29.057 -11.876   4.986  0.00  0.00    +0.000 A 
ATOM     26  C   LIG    1       28.222 -12.582   5.859  0.00  0.00    +0.000 A 
ATOM     27  C   LIG    1       27.659 -13.808   5.462  0.00  0.00    +0.005 A 
ENDBRANCH  21  22
ENDBRANCH   1  21
TORSDOF 10
ENDMDL
MODEL 5
REMARK VINA RESULT:      -2.9      1.450      5.710
REMARK  Name = *****
REMARK                            x       y       z     vdW  Elec       q    Type
REMARK                         _______ _______ _______ _____ _____    ______ ____
ROOT
ATOM      1  N   LIG    1       24.354 -15.531   3.835  0.00  0.00    -0.324 N 
ENDROOT
BRANCH   1   2
ATOM      2  C   LIG    1       24.307 -14.170   3.501  0.00  0.00    +0.030 A 
ATOM      3  C   LIG    1       24.003 -13.190   4.455  0.00  0.00    +0.023 A 
ATOM      4  C   LIG    1       23.799 -11.843   4.092  0.00  0.00    +0.002 A 
ATOM      5  C   LIG    1       23.933 -11.447   2.764  0.00  0.00    +0.000 A 
ATOM      6  C   LIG    1       24.308 -12.381   1.812  0.00  0.00    +0.002 A 
ATOM      7  C   LIG    1       24.491 -13.716   2.181  0.00  0.00    +0.023 A 
ENDBRANCH   1   2
BRANCH   1   8
ATOM      8  C   LIG    1       25.558 -16.072   4.530  0.00  0.00    +0.126 C 
BRANCH   8   9
ATOM      9  C   LIG    1       26.878 -16.017   3.691  0.00  0.00    +0.100 C 
BRANCH   9  10
ATOM     10  N   LIG    1       27.714 -14.822   4.028  0.00  0.00    -0.296 NA
ATOM     11  C   LIG    1       27.283 -14.079   5.213  0.00  0.00    +0.085 C 
ATOM     12  C   LIG    1       28.046 -12.759   5.127  0.00  0.00    +0.017 C 
ATOM     13  C   LIG    1       28.527 -12.661   3.686  0.00  0.00    +0.017 C 
ATOM     14  C   LIG    1       27.845 -13.815   2.975  0.00  0.00    +0.085 C 
ENDBRANCH   9  10
BRANCH   9  15
ATOM     15  C   LIG    1       27.611 -17.380   3.841  0.00  0.00    +0.180 C 
BRANCH  15  16
ATOM     16  O   LIG    1       28.453 -17.402   5.004  0.00  0.00    -0.378 OA
BRANCH  16  17
ATOM     17  C   LIG    1       29.086 -18.662   5.189  0.00  0.00    +0.162 C 
BRANCH  17  19
ATOM     18  C   LIG    1       27.204 -20.191   5.827  0.00  0.00    +0.009 C 
ATOM     19  C   LIG    1       28.421 -19.426   6.343  0.00  0.00    +0.009 C 
ATOM     20  C   LIG    1       29.387 -20.388   7.041  0.00  0.00    +0.009 C 
ENDBRANCH  17  19
ENDBRANCH  16  17
ENDBRANCH  15  16
ENDBRANCH   9  15
ENDBRANCH   8   9
ENDBRANCH   1   8
BRANCH   1  21
ATOM     21  C   LIG    1       23.091 -16.296   3.928  0.00  0.00    +0.140 C 
BRANCH  21  22
ATOM     22  C   LIG    1       23.216 -17.808   4.105  0.00  0.00    -0.030 A 
ATOM     23  C   LIG    1       24.211 -18.566   3.461  0.00  0.00    +0.005 A 
ATOM     24  C   LIG    1       24.299 -19.947   3.612  0.00  0.00    +0.000 A 
ATOM     25  C   LIG    1       23.423 -20.611   4.450  0.00  0.00    +0.000 A 
ATOM     26  C   LIG    1       22.422 -19.891   5.111  0.00  0.00    +0.000 A 
ATOM     27  C   LIG    1       22.311 -18.502   4.927  0.00  0.00    +0.005 A 
ENDBRANCH  21  22
ENDBRANCH   1  21
TORSDOF 10
ENDMDL
MODEL 6
REMARK VINA RESULT:      -2.3      0.777      3.715
REMARK  Name = *****
REMARK                            x       y       z     vdW  Elec       q    Type
REMARK                         _______ _______ _______ _____ _____    ______ ____
ROOT
ATOM      1  N   LIG    1       25.636 -17.658   3.261  0.00  0.00    -0.324 N 
ENDROOT
BRANCH   1   2
ATOM      2  C   LIG    1       24.614 -18.521   3.681  0.00  0.00    +0.030 A 
ATOM      3  C   LIG    1       23.471 -18.043   4.335  0.00  0.00    +0.023 A 
ATOM      4  C   LIG    1       22.521 -18.918   4.899  0.00  0.00    +0.002 A 
ATOM      5  C   LIG    1       22.682 -20.297   4.782  0.00  0.00    +0.000 A 
ATOM      6  C   LIG    1       23.762 -20.796   4.074  0.00  0.00    +0.002 A 
ATOM      7  C   LIG    1       24.707 -19.919   3.535  0.00  0.00    +0.023 A 
ENDBRANCH   1   2
BRANCH   1   8
ATOM      8  C   LIG    1       25.372 -16.191   3.194  0.00  0.00    +0.126 C 
BRANCH   8   9
ATOM      9  C   LIG    1       25.784 -15.393   4.474  0.00  0.00    +0.100 C 
BRANCH   9  10
ATOM     10  N   LIG    1       27.085 -14.673   4.298  0.00  0.00    -0.296 NA
ATOM     11  C   LIG    1       27.271 -13.508   5.166  0.00  0.00    +0.085 C 
ATOM     12  C   LIG    1       28.462 -12.771   4.556  0.00  0.00    +0.017 C 
ATOM     13  C   LIG    1       28.603 -13.325   3.146  0.00  0.00    +0.017 C 
ATOM     14  C   LIG    1       27.371 -14.190   2.947  0.00  0.00    +0.085 C 
ENDBRANCH   9  10
BRANCH   9  15
ATOM     15  C   LIG    1       24.595 -14.482   4.889  0.00  0.00    +0.180 C 
BRANCH  15  16
ATOM     16  O   LIG    1       23.454 -14.685   4.040  0.00  0.00    -0.378 OA
BRANCH  16  17
ATOM     17  C   LIG    1       23.294 -13.639   3.089  0.00  0.00    +0.162 C 
BRANCH  17  19
ATOM     18  C   LIG    1       24.686 -11.777   2.147  0.00  0.00    +0.009 C 
ATOM     19  C   LIG    1       24.224 -12.465   3.430  0.00  0.00    +0.009 C 
ATOM     20  C   LIG    1       23.561 -11.447   4.361  0.00  0.00    +0.009 C 
ENDBRANCH  17  19
ENDBRANCH  16  17
ENDBRANCH  15  16
ENDBRANCH   9  15
ENDBRANCH   8   9
ENDBRANCH   1   8
BRANCH   1  21
ATOM     21  C   LIG    1       27.041 -18.112   3.338  0.00  0.00    +0.140 C 
BRANCH  21  22
ATOM     22  C   LIG    1       27.478 -18.776   4.643  0.00  0.00    -0.030 A 
ATOM     23  C   LIG    1       26.719 -19.778   5.273  0.00  0.00    +0.005 A 
ATOM     24  C   LIG    1       27.116 -20.359   6.475  0.00  0.00    +0.000 A 
ATOM     25  C   LIG    1       28.312 -19.990   7.062  0.00  0.00    +0.000 A 
ATOM     26  C   LIG    1       29.097 -18.999   6.463  0.00  0.00    +0.000 A 
ATOM     27  C   LIG    1       28.675 -18.387   5.270  0.00  0.00    +0.005 A 
ENDBRANCH  21  22
ENDBRANCH   1  21
TORSDOF 10
ENDMDL
