MODEL 1
REMARK VINA RESULT:      -4.9      0.000      0.000
REMARK  Name = *****
REMARK                            x       y       z     vdW  Elec       q    Type
REMARK                         _______ _______ _______ _____ _____    ______ ____
ROOT
ATOM      1  C   LIG    1       27.075 -17.207   3.363  0.00  0.00    +0.162 C 
ENDROOT
BRANCH   1   2
ATOM      2  C   LIG    1       27.646 -18.107   4.454  0.00  0.00    -0.007 A 
ATOM      3  C   LIG    1       26.973 -19.235   5.004  0.00  0.00    +0.009 A 
ATOM      4  C   LIG    1       27.604 -19.910   6.077  0.00  0.00    +0.071 A 
ATOM      5  C   LIG    1       26.940 -20.955   6.701  0.00  0.00    +0.032 A 
ATOM      6  C   LIG    1       25.680 -21.384   6.281  0.00  0.00    +0.048 A 
ATOM      7  C   LIG    1       25.080 -20.797   5.178  0.00  0.00    +0.121 A 
ATOM      8  N   LIG    1       28.828 -19.597   6.524  0.00  0.00    -0.255 NA
ATOM      9  C   LIG    1       29.475 -18.574   5.937  0.00  0.00    +0.112 A 
ATOM     10  C   LIG    1       25.728 -19.737   4.544  0.00  0.00    +0.056 A 
ATOM     11  C   LIG    1       28.934 -17.806   4.926  0.00  0.00    +0.026 A 
BRANCH   7  12
ATOM     12  O   LIG    1       23.867 -21.317   4.824  0.00  0.00    -0.495 OA
ATOM     13  C   LIG    1       22.726 -20.752   5.461  0.00  0.00    +0.277 C 
ENDBRANCH   7  12
ENDBRANCH   1   2
BRANCH   1  17
ATOM     14  C   LIG    1       25.591 -13.137   4.250  0.00  0.00    +0.028 C 
ATOM     15  C   LIG    1       25.995 -13.575   2.815  0.00  0.00    -0.000 C 
ATOM     16  C   LIG    1       25.822 -15.092   2.614  0.00  0.00    +0.026 C 
ATOM     17  C   LIG    1       26.453 -15.842   3.814  0.00  0.00    +0.090 C 
ATOM     18  N   LIG    1       27.346 -14.927   4.587  0.00  0.00    -0.296 NA
ATOM     19  C   LIG    1       28.264 -14.201   3.683  0.00  0.00    +0.085 C 
ATOM     20  C   LIG    1       27.508 -13.317   2.675  0.00  0.00    +0.019 C 
ATOM     21  C   LIG    1       26.472 -13.925   5.263  0.00  0.00    +0.092 C 
BRANCH  14  23
ATOM     22  C   LIG    1       23.433 -14.432   4.451  0.00  0.00    +0.004 C 
ATOM     23  C   LIG    1       24.111 -13.281   4.537  0.00  0.00    -0.029 C 
ENDBRANCH  14  23
ENDBRANCH   1  17
BRANCH   1  24
ATOM     24  O   LIG    1       26.100 -17.942   2.607  0.00  0.00    -0.386 OA
ATOM     25  H   LIG    1       26.556 -18.352   1.851  0.00  0.00    +0.210 HD
ENDBRANCH   1  24
TORSDOF 5
ENDMDL
MODEL 2
REMARK VINA RESULT:      -4.5      1.020      2.224
REMARK  Name = *****
REMARK                            x       y       z     vdW  Elec       q    Type
REMARK                         _______ _______ _______ _____ _____    ______ ____
ROOT
ATOM      1  C   LIG    1       26.687 -17.356   3.407  0.00  0.00    +0.162 C 
ENDROOT
BRANCH   1   2
ATOM      2  C   LIG    1       27.407 -18.219   4.438  0.00  0.00    -0.007 A 
ATOM      3  C   LIG    1       26.842 -19.363   5.069  0.00  0.00    +0.009 A 
ATOM      4  C   LIG    1       27.611 -19.999   6.074  0.00  0.00    +0.071 A 
ATOM      5  C   LIG    1       27.060 -21.059   6.776  0.00  0.00    +0.032 A 
ATOM      6  C   LIG    1       25.780 -21.542   6.500  0.00  0.00    +0.048 A 
ATOM      7  C   LIG    1       25.042 -20.993   5.462  0.00  0.00    +0.121 A 
ATOM      8  N   LIG    1       28.864 -19.633   6.383  0.00  0.00    -0.255 NA
ATOM      9  C   LIG    1       29.402 -18.595   5.719  0.00  0.00    +0.112 A 
ATOM     10  C   LIG    1       25.576 -19.919   4.752  0.00  0.00    +0.056 A 
ATOM     11  C   LIG    1       28.725 -17.862   4.766  0.00  0.00    +0.026 A 
BRANCH   7  12
ATOM     12  O   LIG    1       23.819 -21.564   5.247  0.00  0.00    -0.495 OA
ATOM     13  C   LIG    1       22.706 -20.678   5.206  0.00  0.00    +0.277 C 
ENDBRANCH   7  12
ENDBRANCH   1   2
BRANCH   1  17
ATOM     14  C   LIG    1       27.306 -12.984   3.657  0.00  0.00    +0.028 C 
ATOM     15  C   LIG    1       26.739 -13.809   4.846  0.00  0.00    -0.000 C 
ATOM     16  C   LIG    1       27.224 -15.270   4.808  0.00  0.00    +0.026 C 
ATOM     17  C   LIG    1       27.043 -15.831   3.375  0.00  0.00    +0.090 C 
ATOM     18  N   LIG    1       26.132 -14.950   2.583  0.00  0.00    -0.296 NA
ATOM     19  C   LIG    1       24.906 -14.639   3.349  0.00  0.00    +0.085 C 
ATOM     20  C   LIG    1       25.212 -13.883   4.654  0.00  0.00    +0.019 C 
ATOM     21  C   LIG    1       26.860 -13.673   2.335  0.00  0.00    +0.092 C 
BRANCH  14  23
ATOM     22  C   LIG    1       29.412 -11.910   4.545  0.00  0.00    +0.004 C 
ATOM     23  C   LIG    1       28.805 -12.774   3.723  0.00  0.00    -0.029 C 
ENDBRANCH  14  23
ENDBRANCH   1  17
BRANCH   1  24
ATOM     24  O   LIG    1       25.269 -17.505   3.576  0.00  0.00    -0.386 OA
ATOM     25  H   LIG    1       25.102 -18.401   3.916  0.00  0.00    +0.210 HD
ENDBRANCH   1  24
TORSDOF 5
ENDMDL
MODEL 3
REMARK VINA RESULT:      -2.9      2.397      7.096
REMARK  Name = *****
REMARK                            x       y       z     vdW  Elec       q    Type
REMARK                         _______ _______ _______ _____ _____    ______ ____
ROOT
ATOM      1  C   LIG    1       25.109 -17.754   3.465  0.00  0.00    +0.162 C 
ENDROOT
BRANCH   1   2
ATOM      2  C   LIG    1       24.601 -16.368   3.850  0.00  0.00    -0.007 A 
ATOM      3  C   LIG    1       25.415 -15.201   3.920  0.00  0.00    +0.009 A 
ATOM      4  C   LIG    1       24.807 -14.010   4.385  0.00  0.00    +0.071 A 
ATOM      5  C   LIG    1       25.586 -12.876   4.556  0.00  0.00    +0.032 A 
ATOM      6  C   LIG    1       26.948 -12.864   4.251  0.00  0.00    +0.048 A 
ATOM      7  C   LIG    1       27.547 -13.992   3.712  0.00  0.00    +0.121 A 
ATOM      8  N   LIG    1       23.499 -13.914   4.666  0.00  0.00    -0.255 NA
ATOM      9  C   LIG    1       22.737 -15.012   4.519  0.00  0.00    +0.112 A 
ATOM     10  C   LIG    1       26.782 -15.145   3.543  0.00  0.00    +0.056 A 
ATOM     11  C   LIG    1       23.232 -16.241   4.134  0.00  0.00    +0.026 A 
BRANCH   7  12
ATOM     12  O   LIG    1       28.874 -13.863   3.410  0.00  0.00    -0.495 OA
ATOM     13  C   LIG    1       29.474 -12.609   3.717  0.00  0.00    +0.277 C 
ENDBRANCH   7  12
ENDBRANCH   1   2
BRANCH   1  17
ATOM     14  C   LIG    1       24.178 -21.392   5.801  0.00  0.00    +0.028 C 
ATOM     15  C   LIG    1       25.002 -21.442   4.484  0.00  0.00    -0.000 C 
ATOM     16  C   LIG    1       25.751 -20.121   4.230  0.00  0.00    +0.026 C 
ATOM     17  C   LIG    1       24.779 -18.933   4.441  0.00  0.00    +0.090 C 
ATOM     18  N   LIG    1       23.364 -19.415   4.449  0.00  0.00    -0.296 NA
ATOM     19  C   LIG    1       23.106 -20.306   3.298  0.00  0.00    +0.085 C 
ATOM     20  C   LIG    1       23.991 -21.565   3.327  0.00  0.00    +0.019 C 
ATOM     21  C   LIG    1       23.175 -20.206   5.699  0.00  0.00    +0.092 C 
BRANCH  14  23
ATOM     22  C   LIG    1       26.332 -20.999   7.060  0.00  0.00    +0.004 C 
ATOM     23  C   LIG    1       25.032 -21.320   7.050  0.00  0.00    -0.029 C 
ENDBRANCH  14  23
ENDBRANCH   1  17
BRANCH   1  24
ATOM     24  O   LIG    1       26.529 -17.695   3.259  0.00  0.00    -0.386 OA
ATOM     25  H   LIG    1       26.916 -18.510   3.624  0.00  0.00    +0.210 HD
ENDBRANCH   1  24
TORSDOF 5
ENDMDL
MODEL 4
REMARK VINA RESULT:      -2.4      2.272      6.933
REMARK  Name = *****
REMARK                            x       y       z     vdW  Elec       q    Type
REMARK                         _______ _______ _______ _____ _____    ______ ____
ROOT
ATOM      1  C   LIG    1       25.203 -17.892   3.312  0.00  0.00    +0.162 C 
ENDROOT
BRANCH   1   2
ATOM      2  C   LIG    1       24.642 -16.546   3.758  0.00  0.00    -0.007 A 
ATOM      3  C   LIG    1       25.404 -15.348   3.859  0.00  0.00    +0.009 A 
ATOM      4  C   LIG    1       24.752 -14.203   4.378  0.00  0.00    +0.071 A 
ATOM      5  C   LIG    1       25.484 -13.043   4.580  0.00  0.00    +0.032 A 
ATOM      6  C   LIG    1       26.839 -12.958   4.255  0.00  0.00    +0.048 A 
ATOM      7  C   LIG    1       27.477 -14.037   3.663  0.00  0.00    +0.121 A 
ATOM      8  N   LIG    1       23.447 -14.176   4.683  0.00  0.00    -0.255 NA
ATOM      9  C   LIG    1       22.731 -15.301   4.507  0.00  0.00    +0.112 A 
ATOM     10  C   LIG    1       26.760 -15.217   3.463  0.00  0.00    +0.056 A 
ATOM     11  C   LIG    1       23.273 -16.491   4.067  0.00  0.00    +0.026 A 
BRANCH   7  12
ATOM     12  O   LIG    1       28.791 -13.839   3.346  0.00  0.00    -0.495 OA
ATOM     13  C   LIG    1       29.378 -12.627   3.810  0.00  0.00    +0.277 C 
ENDBRANCH   7  12
ENDBRANCH   1   2
BRANCH   1  17
ATOM     14  C   LIG    1       23.351 -21.463   5.150  0.00  0.00    +0.028 C 
ATOM     15  C   LIG    1       23.819 -20.246   5.996  0.00  0.00    -0.000 C 
ATOM     16  C   LIG    1       23.785 -18.940   5.181  0.00  0.00    +0.026 C 
ATOM     17  C   LIG    1       24.455 -19.178   3.804  0.00  0.00    +0.090 C 
ATOM     18  N   LIG    1       25.249 -20.444   3.825  0.00  0.00    -0.296 NA
ATOM     19  C   LIG    1       26.117 -20.500   5.021  0.00  0.00    +0.085 C 
ATOM     20  C   LIG    1       25.306 -20.477   6.329  0.00  0.00    +0.019 C 
ATOM     21  C   LIG    1       24.277 -21.572   3.904  0.00  0.00    +0.092 C 
BRANCH  14  23
ATOM     22  C   LIG    1       21.246 -20.317   4.355  0.00  0.00    +0.004 C 
ATOM     23  C   LIG    1       21.884 -21.416   4.777  0.00  0.00    -0.029 C 
ENDBRANCH  14  23
ENDBRANCH   1  17
BRANCH   1  24
ATOM     24  O   LIG    1       26.585 -17.977   3.692  0.00  0.00    -0.386 OA
ATOM     25  H   LIG    1       26.627 -18.390   4.572  0.00  0.00    +0.210 HD
ENDBRANCH   1  24
TORSDOF 5
ENDMDL
MODEL 5
REMARK VINA RESULT:      -2.4      2.046      6.456
REMARK  Name = *****
REMARK                            x       y       z     vdW  Elec       q    Type
REMARK                         _______ _______ _______ _____ _____    ______ ____
ROOT
ATOM      1  C   LIG    1       25.089 -18.365   3.303  0.00  0.00    +0.162 C 
ENDROOT
BRANCH   1   2
ATOM      2  C   LIG    1       26.197 -17.396   3.701  0.00  0.00    -0.007 A 
ATOM      3  C   LIG    1       26.092 -15.977   3.630  0.00  0.00    +0.009 A 
ATOM      4  C   LIG    1       27.246 -15.223   3.949  0.00  0.00    +0.071 A 
ATOM      5  C   LIG    1       27.214 -13.844   3.803  0.00  0.00    +0.032 A 
ATOM      6  C   LIG    1       26.064 -13.174   3.383  0.00  0.00    +0.048 A 
ATOM      7  C   LIG    1       24.895 -13.882   3.150  0.00  0.00    +0.121 A 
ATOM      8  N   LIG    1       28.384 -15.773   4.398  0.00  0.00    -0.255 NA
ATOM      9  C   LIG    1       28.432 -17.111   4.528  0.00  0.00    +0.112 A 
ATOM     10  C   LIG    1       24.912 -15.271   3.280  0.00  0.00    +0.056 A 
ATOM     11  C   LIG    1       27.391 -17.950   4.188  0.00  0.00    +0.026 A 
BRANCH   7  12
ATOM     12  O   LIG    1       23.816 -13.128   2.782  0.00  0.00    -0.495 OA
ATOM     13  C   LIG    1       23.786 -11.790   3.266  0.00  0.00    +0.277 C 
ENDBRANCH   7  12
ENDBRANCH   1   2
BRANCH   1  17
ATOM     14  C   LIG    1       22.940 -20.965   6.163  0.00  0.00    +0.028 C 
ATOM     15  C   LIG    1       23.104 -21.343   4.664  0.00  0.00    -0.000 C 
ATOM     16  C   LIG    1       24.371 -20.715   4.055  0.00  0.00    +0.026 C 
ATOM     17  C   LIG    1       24.439 -19.217   4.445  0.00  0.00    +0.090 C 
ATOM     18  N   LIG    1       23.111 -18.752   4.951  0.00  0.00    -0.296 NA
ATOM     19  C   LIG    1       22.026 -19.167   4.036  0.00  0.00    +0.085 C 
ATOM     20  C   LIG    1       21.928 -20.697   3.907  0.00  0.00    +0.019 C 
ATOM     21  C   LIG    1       22.885 -19.413   6.268  0.00  0.00    +0.092 C 
BRANCH  14  23
ATOM     22  C   LIG    1       25.313 -21.350   6.933  0.00  0.00    +0.004 C 
ATOM     23  C   LIG    1       23.999 -21.569   7.062  0.00  0.00    -0.029 C 
ENDBRANCH  14  23
ENDBRANCH   1  17
BRANCH   1  24
ATOM     24  O   LIG    1       25.577 -19.245   2.278  0.00  0.00    -0.386 OA
ATOM     25  H   LIG    1       24.901 -19.927   2.125  0.00  0.00    +0.210 HD
ENDBRANCH   1  24
TORSDOF 5
ENDMDL
MODEL 6
REMARK VINA RESULT:      -2.3      2.114      3.272
REMARK  Name = *****
REMARK                            x       y       z     vdW  Elec       q    Type
REMARK                         _______ _______ _______ _____ _____    ______ ____
ROOT
ATOM      1  C   LIG    1       24.449 -16.480   3.346  0.00  0.00    +0.162 C 
ENDROOT
BRANCH   1   2
ATOM      2  C   LIG    1       24.919 -17.856   3.806  0.00  0.00    -0.007 A 
ATOM      3  C   LIG    1       24.052 -18.941   4.123  0.00  0.00    +0.009 A 
ATOM      4  C   LIG    1       24.646 -20.124   4.624  0.00  0.00    +0.071 A 
ATOM      5  C   LIG    1       23.831 -21.168   5.032  0.00  0.00    +0.032 A 
ATOM      6  C   LIG    1       22.440 -21.102   4.930  0.00  0.00    +0.048 A 
ATOM      7  C   LIG    1       21.840 -19.990   4.360  0.00  0.00    +0.121 A 
ATOM      8  N   LIG    1       25.972 -20.297   4.723  0.00  0.00    -0.255 NA
ATOM      9  C   LIG    1       26.773 -19.283   4.346  0.00  0.00    +0.112 A 
ATOM     10  C   LIG    1       22.643 -18.924   3.955  0.00  0.00    +0.056 A 
ATOM     11  C   LIG    1       26.305 -18.063   3.901  0.00  0.00    +0.026 A 
BRANCH   7  12
ATOM     12  O   LIG    1       20.477 -20.041   4.270  0.00  0.00    -0.495 OA
ATOM     13  C   LIG    1       19.855 -19.013   3.507  0.00  0.00    +0.277 C 
ENDBRANCH   7  12
ENDBRANCH   1   2
BRANCH   1  17
ATOM     14  C   LIG    1       26.906 -12.817   3.674  0.00  0.00    +0.028 C 
ATOM     15  C   LIG    1       25.417 -12.857   4.116  0.00  0.00    -0.000 C 
ATOM     16  C   LIG    1       24.988 -14.272   4.545  0.00  0.00    +0.026 C 
ATOM     17  C   LIG    1       25.464 -15.295   3.483  0.00  0.00    +0.090 C 
ATOM     18  N   LIG    1       25.844 -14.593   2.220  0.00  0.00    -0.296 NA
ATOM     19  C   LIG    1       24.793 -13.635   1.815  0.00  0.00    +0.085 C 
ATOM     20  C   LIG    1       24.570 -12.537   2.869  0.00  0.00    +0.019 C 
ATOM     21  C   LIG    1       27.089 -13.823   2.501  0.00  0.00    +0.092 C 
BRANCH  14  23
ATOM     22  C   LIG    1       28.901 -12.253   5.116  0.00  0.00    +0.004 C 
ATOM     23  C   LIG    1       27.883 -13.065   4.805  0.00  0.00    -0.029 C 
ENDBRANCH  14  23
ENDBRANCH   1  17
BRANCH   1  24
ATOM     24  O   LIG    1       23.235 -16.142   4.033  0.00  0.00    -0.386 OA
ATOM     25  H   LIG    1       23.039 -15.207   3.850  0.00  0.00    +0.210 HD
ENDBRANCH   1  24
TORSDOF 5
ENDMDL
