MODEL 1
REMARK VINA RESULT:      12.8      0.000      0.000
REMARK  Name = *****
REMARK                            x       y       z     vdW  Elec       q    Type
REMARK                         _______ _______ _______ _____ _____    ______ ____
ROOT
ATOM      1  C   LIG    1       22.812 -19.929   4.663  0.00  0.00    -0.046 A 
ATOM      2  C   LIG    1       22.337 -19.057   3.673  0.00  0.00    +0.005 A 
ATOM      3  C   LIG    1       22.085 -17.717   3.969  0.00  0.00    +0.029 A 
ATOM      4  C   LIG    1       22.296 -17.255   5.275  0.00  0.00    +0.113 A 
ATOM      5  C   LIG    1       22.765 -18.113   6.270  0.00  0.00    +0.029 A 
ATOM      6  C   LIG    1       23.017 -19.448   5.965  0.00  0.00    +0.005 A 
ENDROOT
BRANCH   4   7
ATOM      7  S   LIG    1       21.935 -15.563   5.680  0.00  0.00    +0.103 S 
ATOM      8  O   LIG    1       22.803 -15.185   6.778  0.00  0.00    -0.146 OA
ATOM      9  O   LIG    1       20.494 -15.474   5.824  0.00  0.00    -0.146 OA
BRANCH   7  10
ATOM     10  N   LIG    1       22.390 -14.783   4.349  0.00  0.00    -0.076 NA
ATOM     11  C   LIG    1       23.610 -14.526   4.048  0.00  0.00    +0.299 C 
BRANCH  11  12
ATOM     12  N   LIG    1       24.013 -13.793   2.978  0.00  0.00    -0.295 N 
ATOM     13  H   LIG    1       24.528 -14.325   2.285  0.00  0.00    +0.151 HD
BRANCH  12  14
ATOM     14  C   LIG    1       24.178 -12.347   2.995  0.00  0.00    +0.075 C 
ATOM     15  C   LIG    1       23.311 -11.685   4.072  0.00  0.00    +0.022 C 
ATOM     16  C   LIG    1       23.833 -11.873   5.493  0.00  0.00    +0.002 C 
ATOM     17  C   LIG    1       25.311 -11.529   5.633  0.00  0.00    +0.000 C 
ATOM     18  C   LIG    1       26.169 -12.233   4.588  0.00  0.00    +0.002 C 
ATOM     19  C   LIG    1       25.655 -11.972   3.173  0.00  0.00    +0.022 C 
ENDBRANCH  12  14
ENDBRANCH  11  12
BRANCH  11  20
ATOM     20  O   LIG    1       24.689 -14.927   4.736  0.00  0.00    -0.481 OA
ATOM     21  H   LIG    1       25.353 -14.210   4.820  0.00  0.00    +0.295 HD
ENDBRANCH  11  20
ENDBRANCH   7  10
ENDBRANCH   4   7
BRANCH   1  22
ATOM     22  C   LIG    1       23.082 -21.378   4.332  0.00  0.00    +0.054 C 
BRANCH  22  23
ATOM     23  C   LIG    1       24.450 -21.572   3.667  0.00  0.00    +0.121 C 
BRANCH  23  28
ATOM     24  C   LIG    1       27.022 -16.001   3.303  0.00  0.00    +0.121 A 
ATOM     25  C   LIG    1       26.239 -17.101   2.969  0.00  0.00    +0.059 A 
ATOM     26  C   LIG    1       26.314 -18.289   3.700  0.00  0.00    +0.045 A 
ATOM     27  C   LIG    1       25.478 -19.416   3.240  0.00  0.00    +0.253 C 
ATOM     28  N   LIG    1       25.411 -20.538   4.052  0.00  0.00    -0.237 N 
ATOM     29  C   LIG    1       26.066 -20.668   5.271  0.00  0.00    +0.232 C 
ATOM     30  C   LIG    1       27.259 -19.726   5.538  0.00  0.00    +0.068 C 
ATOM     31  C   LIG    1       28.509 -20.465   5.023  0.00  0.00    +0.025 C 
ATOM     32  C   LIG    1       27.367 -19.516   7.062  0.00  0.00    +0.025 C 
ATOM     33  O   LIG    1       25.774 -21.570   6.062  0.00  0.00    -0.274 OA
ATOM     34  O   LIG    1       24.858 -19.308   2.184  0.00  0.00    -0.270 OA
ATOM     35  C   LIG    1       27.161 -18.401   4.801  0.00  0.00    -0.021 A 
ATOM     36  C   LIG    1       27.962 -17.288   5.129  0.00  0.00    +0.009 A 
ATOM     37  C   LIG    1       27.887 -16.099   4.389  0.00  0.00    +0.046 A 
BRANCH  24  39
ATOM     38  C   LIG    1       28.099 -13.937   2.922  0.00  0.00    +0.277 C 
ATOM     39  O   LIG    1       27.012 -14.815   2.620  0.00  0.00    -0.495 OA
ENDBRANCH  24  39
ENDBRANCH  23  28
ENDBRANCH  22  23
ENDBRANCH   1  22
TORSDOF 9
ENDMDL
MODEL 2
REMARK VINA RESULT:      13.8      2.108      7.416
REMARK  Name = *****
REMARK                            x       y       z     vdW  Elec       q    Type
REMARK                         _______ _______ _______ _____ _____    ______ ____
ROOT
ATOM      1  C   LIG    1       28.254 -15.139   4.058  0.00  0.00    -0.046 A 
ATOM      2  C   LIG    1       28.777 -15.460   5.319  0.00  0.00    +0.005 A 
ATOM      3  C   LIG    1       28.733 -16.772   5.792  0.00  0.00    +0.029 A 
ATOM      4  C   LIG    1       28.143 -17.765   4.999  0.00  0.00    +0.113 A 
ATOM      5  C   LIG    1       27.615 -17.458   3.745  0.00  0.00    +0.029 A 
ATOM      6  C   LIG    1       27.666 -16.147   3.279  0.00  0.00    +0.005 A 
ENDROOT
BRANCH   4   7
ATOM      7  S   LIG    1       28.036 -19.431   5.607  0.00  0.00    +0.103 S 
ATOM      8  O   LIG    1       27.592 -19.362   6.985  0.00  0.00    -0.146 OA
ATOM      9  O   LIG    1       29.298 -20.069   5.277  0.00  0.00    -0.146 OA
BRANCH   7  10
ATOM     10  N   LIG    1       26.865 -20.057   4.701  0.00  0.00    -0.076 NA
ATOM     11  C   LIG    1       26.048 -20.960   5.104  0.00  0.00    +0.299 C 
BRANCH  11  12
ATOM     12  N   LIG    1       25.110 -21.567   4.331  0.00  0.00    -0.295 N 
ATOM     13  H   LIG    1       25.472 -22.328   3.767  0.00  0.00    +0.151 HD
BRANCH  12  14
ATOM     14  C   LIG    1       23.861 -20.944   3.923  0.00  0.00    +0.075 C 
ATOM     15  C   LIG    1       22.653 -21.559   4.640  0.00  0.00    +0.022 C 
ATOM     16  C   LIG    1       22.515 -21.138   6.100  0.00  0.00    +0.002 C 
ATOM     17  C   LIG    1       22.610 -19.630   6.294  0.00  0.00    +0.000 C 
ATOM     18  C   LIG    1       23.842 -19.037   5.619  0.00  0.00    +0.002 C 
ATOM     19  C   LIG    1       23.915 -19.426   4.144  0.00  0.00    +0.022 C 
ENDBRANCH  12  14
ENDBRANCH  11  12
BRANCH  11  20
ATOM     20  O   LIG    1       25.985 -21.462   6.346  0.00  0.00    -0.481 OA
ATOM     21  H   LIG    1       26.587 -20.990   6.959  0.00  0.00    +0.295 HD
ENDBRANCH  11  20
ENDBRANCH   7  10
ENDBRANCH   4   7
BRANCH   1  22
ATOM     22  C   LIG    1       28.306 -13.716   3.556  0.00  0.00    +0.054 C 
BRANCH  22  23
ATOM     23  C   LIG    1       27.042 -13.333   2.775  0.00  0.00    +0.121 C 
BRANCH  23  28
ATOM     24  C   LIG    1       22.012 -16.229   4.798  0.00  0.00    +0.121 A 
ATOM     25  C   LIG    1       23.126 -15.940   4.018  0.00  0.00    +0.059 A 
ATOM     26  C   LIG    1       23.856 -14.765   4.207  0.00  0.00    +0.045 A 
ATOM     27  C   LIG    1       24.994 -14.525   3.298  0.00  0.00    +0.253 C 
ATOM     28  N   LIG    1       25.829 -13.454   3.583  0.00  0.00    -0.237 N 
ATOM     29  C   LIG    1       25.672 -12.601   4.669  0.00  0.00    +0.232 C 
ATOM     30  C   LIG    1       24.282 -12.557   5.340  0.00  0.00    +0.068 C 
ATOM     31  C   LIG    1       23.495 -11.447   4.618  0.00  0.00    +0.025 C 
ATOM     32  C   LIG    1       24.481 -12.177   6.821  0.00  0.00    +0.025 C 
ATOM     33  O   LIG    1       26.572 -11.832   5.015  0.00  0.00    -0.274 OA
ATOM     34  O   LIG    1       25.177 -15.290   2.353  0.00  0.00    -0.270 OA
ATOM     35  C   LIG    1       23.501 -13.853   5.199  0.00  0.00    -0.021 A 
ATOM     36  C   LIG    1       22.363 -14.143   5.980  0.00  0.00    +0.009 A 
ATOM     37  C   LIG    1       21.632 -15.322   5.783  0.00  0.00    +0.046 A 
BRANCH  24  39
ATOM     38  C   LIG    1       21.326 -17.977   3.371  0.00  0.00    +0.277 C 
ATOM     39  O   LIG    1       21.243 -17.352   4.654  0.00  0.00    -0.495 OA
ENDBRANCH  24  39
ENDBRANCH  23  28
ENDBRANCH  22  23
ENDBRANCH   1  22
TORSDOF 9
ENDMDL
MODEL 3
REMARK VINA RESULT:      14.6      2.363      7.117
REMARK  Name = *****
REMARK                            x       y       z     vdW  Elec       q    Type
REMARK                         _______ _______ _______ _____ _____    ______ ____
ROOT
ATOM      1  C   LIG    1       28.556 -16.591   4.621  0.00  0.00    -0.046 A 
ATOM      2  C   LIG    1       27.377 -17.025   3.998  0.00  0.00    +0.005 A 
ATOM      3  C   LIG    1       26.793 -18.241   4.354  0.00  0.00    +0.029 A 
ATOM      4  C   LIG    1       27.408 -19.033   5.333  0.00  0.00    +0.113 A 
ATOM      5  C   LIG    1       28.581 -18.615   5.958  0.00  0.00    +0.029 A 
ATOM      6  C   LIG    1       29.157 -17.399   5.599  0.00  0.00    +0.005 A 
ENDROOT
BRANCH   4   7
ATOM      7  S   LIG    1       26.702 -20.606   5.764  0.00  0.00    +0.103 S 
ATOM      8  O   LIG    1       27.336 -21.044   6.992  0.00  0.00    -0.146 OA
ATOM      9  O   LIG    1       26.774 -21.429   4.571  0.00  0.00    -0.146 OA
BRANCH   7  10
ATOM     10  N   LIG    1       25.168 -20.227   6.062  0.00  0.00    -0.076 NA
ATOM     11  C   LIG    1       24.174 -20.659   5.376  0.00  0.00    +0.299 C 
BRANCH  11  12
ATOM     12  N   LIG    1       22.880 -20.283   5.551  0.00  0.00    -0.295 N 
ATOM     13  H   LIG    1       22.399 -20.795   6.282  0.00  0.00    +0.151 HD
BRANCH  12  14
ATOM     14  C   LIG    1       22.078 -19.620   4.535  0.00  0.00    +0.075 C 
ATOM     15  C   LIG    1       21.463 -18.314   5.052  0.00  0.00    +0.022 C 
ATOM     16  C   LIG    1       22.459 -17.164   5.175  0.00  0.00    +0.002 C 
ATOM     17  C   LIG    1       23.294 -16.964   3.916  0.00  0.00    +0.000 C 
ATOM     18  C   LIG    1       23.940 -18.260   3.440  0.00  0.00    +0.002 C 
ATOM     19  C   LIG    1       22.907 -19.371   3.267  0.00  0.00    +0.022 C 
ENDBRANCH  12  14
ENDBRANCH  11  12
BRANCH  11  20
ATOM     20  O   LIG    1       24.241 -21.541   4.369  0.00  0.00    -0.481 OA
ATOM     21  H   LIG    1       24.695 -21.165   3.585  0.00  0.00    +0.295 HD
ENDBRANCH  11  20
ENDBRANCH   7  10
ENDBRANCH   4   7
BRANCH   1  22
ATOM     22  C   LIG    1       29.181 -15.273   4.228  0.00  0.00    +0.054 C 
BRANCH  22  23
ATOM     23  C   LIG    1       28.710 -14.122   5.126  0.00  0.00    +0.121 C 
BRANCH  23  28
ATOM     24  C   LIG    1       23.116 -11.766   6.091  0.00  0.00    +0.121 A 
ATOM     25  C   LIG    1       24.330 -12.391   6.350  0.00  0.00    +0.059 A 
ATOM     26  C   LIG    1       25.216 -12.704   5.317  0.00  0.00    +0.045 A 
ATOM     27  C   LIG    1       26.459 -13.411   5.687  0.00  0.00    +0.253 C 
ATOM     28  N   LIG    1       27.422 -13.572   4.702  0.00  0.00    -0.237 N 
ATOM     29  C   LIG    1       27.301 -13.106   3.398  0.00  0.00    +0.232 C 
ATOM     30  C   LIG    1       25.880 -12.785   2.890  0.00  0.00    +0.068 C 
ATOM     31  C   LIG    1       25.350 -14.085   2.254  0.00  0.00    +0.025 C 
ATOM     32  C   LIG    1       25.997 -11.687   1.813  0.00  0.00    +0.025 C 
ATOM     33  O   LIG    1       28.277 -13.054   2.644  0.00  0.00    -0.274 OA
ATOM     34  O   LIG    1       26.605 -13.798   6.844  0.00  0.00    -0.270 OA
ATOM     35  C   LIG    1       24.919 -12.379   3.995  0.00  0.00    -0.021 A 
ATOM     36  C   LIG    1       23.682 -11.755   3.735  0.00  0.00    +0.009 A 
ATOM     37  C   LIG    1       22.793 -11.447   4.775  0.00  0.00    +0.046 A 
BRANCH  24  39
ATOM     38  C   LIG    1       20.882 -11.962   6.822  0.00  0.00    +0.277 C 
ATOM     39  O   LIG    1       22.195 -11.447   7.052  0.00  0.00    -0.495 OA
ENDBRANCH  24  39
ENDBRANCH  23  28
ENDBRANCH  22  23
ENDBRANCH   1  22
TORSDOF 9
ENDMDL
MODEL 4
REMARK VINA RESULT:      14.6      1.540      2.080
REMARK  Name = *****
REMARK                            x       y       z     vdW  Elec       q    Type
REMARK                         _______ _______ _______ _____ _____    ______ ____
ROOT
ATOM      1  C   LIG    1       22.437 -19.419   5.271  0.00  0.00    -0.046 A 
ATOM      2  C   LIG    1       21.889 -18.801   4.137  0.00  0.00    +0.005 A 
ATOM      3  C   LIG    1       21.904 -17.412   4.010  0.00  0.00    +0.029 A 
ATOM      4  C   LIG    1       22.459 -16.638   5.038  0.00  0.00    +0.113 A 
ATOM      5  C   LIG    1       23.004 -17.240   6.171  0.00  0.00    +0.029 A 
ATOM      6  C   LIG    1       22.988 -18.627   6.289  0.00  0.00    +0.005 A 
ENDROOT
BRANCH   4   7
ATOM      7  S   LIG    1       22.442 -14.865   4.912  0.00  0.00    +0.103 S 
ATOM      8  O   LIG    1       21.459 -14.373   5.857  0.00  0.00    -0.146 OA
ATOM      9  O   LIG    1       22.317 -14.555   3.500  0.00  0.00    -0.146 OA
BRANCH   7  10
ATOM     10  N   LIG    1       23.915 -14.468   5.420  0.00  0.00    -0.076 NA
ATOM     11  C   LIG    1       24.496 -13.358   5.146  0.00  0.00    +0.299 C 
BRANCH  11  12
ATOM     12  N   LIG    1       25.771 -13.037   5.487  0.00  0.00    -0.295 N 
ATOM     13  H   LIG    1       25.898 -12.063   5.738  0.00  0.00    +0.151 HD
BRANCH  12  14
ATOM     14  C   LIG    1       26.942 -13.797   5.074  0.00  0.00    +0.075 C 
ATOM     15  C   LIG    1       27.446 -13.366   3.691  0.00  0.00    +0.022 C 
ATOM     16  C   LIG    1       28.175 -12.026   3.685  0.00  0.00    +0.002 C 
ATOM     17  C   LIG    1       29.251 -11.931   4.760  0.00  0.00    +0.000 C 
ATOM     18  C   LIG    1       28.725 -12.313   6.139  0.00  0.00    +0.002 C 
ATOM     19  C   LIG    1       28.057 -13.686   6.123  0.00  0.00    +0.022 C 
ENDBRANCH  12  14
ENDBRANCH  11  12
BRANCH  11  20
ATOM     20  O   LIG    1       23.952 -12.334   4.472  0.00  0.00    -0.481 OA
ATOM     21  H   LIG    1       24.546 -12.007   3.764  0.00  0.00    +0.295 HD
ENDBRANCH  11  20
ENDBRANCH   7  10
ENDBRANCH   4   7
BRANCH   1  22
ATOM     22  C   LIG    1       22.416 -20.924   5.399  0.00  0.00    +0.054 C 
BRANCH  22  23
ATOM     23  C   LIG    1       23.688 -21.568   4.833  0.00  0.00    +0.121 C 
BRANCH  23  28
ATOM     24  C   LIG    1       26.652 -16.523   2.954  0.00  0.00    +0.121 A 
ATOM     25  C   LIG    1       25.699 -17.533   3.002  0.00  0.00    +0.059 A 
ATOM     26  C   LIG    1       25.833 -18.611   3.880  0.00  0.00    +0.045 A 
ATOM     27  C   LIG    1       24.793 -19.658   3.824  0.00  0.00    +0.253 C 
ATOM     28  N   LIG    1       24.819 -20.640   4.803  0.00  0.00    -0.237 N 
ATOM     29  C   LIG    1       25.747 -20.699   5.836  0.00  0.00    +0.232 C 
ATOM     30  C   LIG    1       27.062 -19.910   5.652  0.00  0.00    +0.068 C 
ATOM     31  C   LIG    1       28.053 -20.883   4.984  0.00  0.00    +0.025 C 
ATOM     32  C   LIG    1       27.579 -19.517   7.050  0.00  0.00    +0.025 C 
ATOM     33  O   LIG    1       25.576 -21.436   6.811  0.00  0.00    -0.274 OA
ATOM     34  O   LIG    1       23.938 -19.605   2.943  0.00  0.00    -0.270 OA
ATOM     35  C   LIG    1       26.918 -18.695   4.751  0.00  0.00    -0.021 A 
ATOM     36  C   LIG    1       27.888 -17.674   4.690  0.00  0.00    +0.009 A 
ATOM     37  C   LIG    1       27.752 -16.597   3.804  0.00  0.00    +0.046 A 
BRANCH  24  39
ATOM     38  C   LIG    1       25.531 -14.529   2.375  0.00  0.00    +0.277 C 
ATOM     39  O   LIG    1       26.592 -15.449   2.107  0.00  0.00    -0.495 OA
ENDBRANCH  24  39
ENDBRANCH  23  28
ENDBRANCH  22  23
ENDBRANCH   1  22
TORSDOF 9
ENDMDL
