MODEL 1
REMARK VINA RESULT:      -7.6      0.000      0.000
REMARK  Name = *****
REMARK                            x       y       z     vdW  Elec       q    Type
REMARK                         _______ _______ _______ _____ _____    ______ ____
ROOT
ATOM      1  C   LIG    1       29.591 -19.973   6.043  0.00  0.00    +0.138 C 
ATOM      2  N   LIG    1       28.293 -20.209   6.659  0.00  0.00    -0.272 N 
ATOM      3  C   LIG    1       28.278 -20.349   8.053  0.00  0.00    +0.241 C 
ATOM      4  O   LIG    1       29.311 -20.335   8.729  0.00  0.00    -0.273 OA
ATOM      5  C   LIG    1       26.916 -20.419   8.731  0.00  0.00    +0.238 C 
ATOM      6  N   LIG    1       26.287 -21.696   8.408  0.00  0.00    -0.273 NA
ATOM      7  C   LIG    1       25.870 -21.882   7.201  0.00  0.00    +0.078 C 
ATOM      8  C   LIG    1       25.929 -20.834   6.138  0.00  0.00    +0.028 A 
ATOM      9  C   LIG    1       24.763 -20.628   5.376  0.00  0.00    +0.096 A 
ATOM     10  C   LIG    1       24.791 -19.758   4.284  0.00  0.00    +0.274 A 
ATOM     11  C   LIG    1       25.967 -19.083   3.951  0.00  0.00    +0.086 A 
ATOM     12  C   LIG    1       27.112 -19.267   4.734  0.00  0.00    +0.031 A 
ATOM     13  C   LIG    1       27.112 -20.119   5.858  0.00  0.00    +0.046 A 
ENDROOT
BRANCH   7  14
ATOM     14  C   LIG    1       25.286 -23.225   6.881  0.00  0.00    +0.036 A 
ATOM     15  C   LIG    1       23.911 -23.469   6.918  0.00  0.00    +0.133 A 
ATOM     16  F   LIG    1       23.040 -22.499   7.233  0.00  0.00    -0.205 F 
ATOM     17  C   LIG    1       23.400 -24.730   6.613  0.00  0.00    +0.039 A 
ATOM     18  C   LIG    1       24.264 -25.762   6.248  0.00  0.00    +0.003 A 
ATOM     19  C   LIG    1       25.637 -25.525   6.182  0.00  0.00    +0.001 A 
ATOM     20  C   LIG    1       26.148 -24.261   6.493  0.00  0.00    +0.013 A 
ENDBRANCH   7  14
BRANCH  10  21
ATOM     21  N   LIG    1       23.583 -19.560   3.474  0.00  0.00    +0.080 N 
ATOM     22  O   LIG    1       23.458 -20.249   2.452  0.00  0.00    -0.576 OA
ATOM     23  O   LIG    1       22.760 -18.720   3.864  0.00  0.00    +0.041 OA
ENDBRANCH  10  21
TORSDOF 2
ENDMDL
MODEL 2
REMARK VINA RESULT:      -6.9      6.830      9.402
REMARK  Name = *****
REMARK                            x       y       z     vdW  Elec       q    Type
REMARK                         _______ _______ _______ _____ _____    ______ ____
ROOT
ATOM      1  C   LIG    1       23.453 -32.491   7.035  0.00  0.00    +0.138 C 
ATOM      2  N   LIG    1       24.654 -31.788   7.467  0.00  0.00    -0.272 N 
ATOM      3  C   LIG    1       25.697 -32.579   7.964  0.00  0.00    +0.241 C 
ATOM      4  O   LIG    1       25.595 -33.803   8.091  0.00  0.00    -0.273 OA
ATOM      5  C   LIG    1       27.021 -31.884   8.253  0.00  0.00    +0.238 C 
ATOM      6  N   LIG    1       26.863 -31.025   9.423  0.00  0.00    -0.273 NA
ATOM      7  C   LIG    1       26.149 -29.957   9.303  0.00  0.00    +0.078 C 
ATOM      8  C   LIG    1       25.538 -29.515   8.014  0.00  0.00    +0.028 A 
ATOM      9  C   LIG    1       25.704 -28.163   7.657  0.00  0.00    +0.096 A 
ATOM     10  C   LIG    1       25.048 -27.656   6.532  0.00  0.00    +0.274 A 
ATOM     11  C   LIG    1       24.238 -28.485   5.755  0.00  0.00    +0.086 A 
ATOM     12  C   LIG    1       24.106 -29.836   6.098  0.00  0.00    +0.031 A 
ATOM     13  C   LIG    1       24.773 -30.386   7.211  0.00  0.00    +0.046 A 
ENDROOT
BRANCH   7  14
ATOM     14  C   LIG    1       25.951 -29.128  10.536  0.00  0.00    +0.036 A 
ATOM     15  C   LIG    1       24.815 -29.245  11.341  0.00  0.00    +0.133 A 
ATOM     16  F   LIG    1       23.843 -30.122  11.048  0.00  0.00    -0.205 F 
ATOM     17  C   LIG    1       24.663 -28.459  12.483  0.00  0.00    +0.039 A 
ATOM     18  C   LIG    1       25.662 -27.556  12.844  0.00  0.00    +0.003 A 
ATOM     19  C   LIG    1       26.814 -27.448  12.065  0.00  0.00    +0.001 A 
ATOM     20  C   LIG    1       26.961 -28.232  10.917  0.00  0.00    +0.013 A 
ENDBRANCH   7  14
BRANCH  10  21
ATOM     21  N   LIG    1       25.202 -26.241   6.172  0.00  0.00    +0.080 N 
ATOM     22  O   LIG    1       26.267 -25.896   5.642  0.00  0.00    -0.576 OA
ATOM     23  O   LIG    1       24.257 -25.479   6.418  0.00  0.00    +0.041 OA
ENDBRANCH  10  21
TORSDOF 2
ENDMDL
MODEL 3
REMARK VINA RESULT:      -6.7      2.709      5.613
REMARK  Name = *****
REMARK                            x       y       z     vdW  Elec       q    Type
REMARK                         _______ _______ _______ _____ _____    ______ ____
ROOT
ATOM      1  C   LIG    1       25.657 -25.150   5.703  0.00  0.00    +0.138 C 
ATOM      2  N   LIG    1       25.055 -23.974   6.318  0.00  0.00    -0.272 N 
ATOM      3  C   LIG    1       23.728 -24.103   6.748  0.00  0.00    +0.241 C 
ATOM      4  O   LIG    1       23.073 -25.134   6.568  0.00  0.00    -0.273 OA
ATOM      5  C   LIG    1       23.141 -22.949   7.549  0.00  0.00    +0.238 C 
ATOM      6  N   LIG    1       22.941 -21.806   6.663  0.00  0.00    -0.273 NA
ATOM      7  C   LIG    1       23.983 -21.181   6.228  0.00  0.00    +0.078 C 
ATOM      8  C   LIG    1       25.377 -21.517   6.644  0.00  0.00    +0.028 A 
ATOM      9  C   LIG    1       26.207 -20.446   7.027  0.00  0.00    +0.096 A 
ATOM     10  C   LIG    1       27.558 -20.677   7.300  0.00  0.00    +0.274 A 
ATOM     11  C   LIG    1       28.086 -21.965   7.205  0.00  0.00    +0.086 A 
ATOM     12  C   LIG    1       27.246 -23.029   6.856  0.00  0.00    +0.031 A 
ATOM     13  C   LIG    1       25.874 -22.836   6.599  0.00  0.00    +0.046 A 
ENDROOT
BRANCH   7  14
ATOM     14  C   LIG    1       23.750 -20.053   5.270  0.00  0.00    +0.036 A 
ATOM     15  C   LIG    1       24.622 -19.778   4.213  0.00  0.00    +0.133 A 
ATOM     16  F   LIG    1       25.714 -20.527   4.001  0.00  0.00    -0.205 F 
ATOM     17  C   LIG    1       24.375 -18.721   3.338  0.00  0.00    +0.039 A 
ATOM     18  C   LIG    1       23.236 -17.935   3.500  0.00  0.00    +0.003 A 
ATOM     19  C   LIG    1       22.342 -18.214   4.535  0.00  0.00    +0.001 A 
ATOM     20  C   LIG    1       22.595 -19.270   5.414  0.00  0.00    +0.013 A 
ENDBRANCH   7  14
BRANCH  10  21
ATOM     21  N   LIG    1       28.429 -19.557   7.677  0.00  0.00    +0.080 N 
ATOM     22  O   LIG    1       28.553 -19.307   8.884  0.00  0.00    -0.576 OA
ATOM     23  O   LIG    1       28.990 -18.932   6.766  0.00  0.00    +0.041 OA
ENDBRANCH  10  21
TORSDOF 2
ENDMDL
MODEL 4
REMARK VINA RESULT:      -6.5      6.888      9.502
REMARK  Name = *****
REMARK                            x       y       z     vdW  Elec       q    Type
REMARK                         _______ _______ _______ _____ _____    ______ ____
ROOT
ATOM      1  C   LIG    1       24.951 -32.586   5.006  0.00  0.00    +0.138 C 
ATOM      2  N   LIG    1       25.505 -31.894   6.161  0.00  0.00    -0.272 N 
ATOM      3  C   LIG    1       26.371 -32.632   6.977  0.00  0.00    +0.241 C 
ATOM      4  O   LIG    1       26.614 -33.825   6.773  0.00  0.00    -0.273 OA
ATOM      5  C   LIG    1       27.096 -31.878   8.084  0.00  0.00    +0.238 C 
ATOM      6  N   LIG    1       26.135 -31.508   9.119  0.00  0.00    -0.273 NA
ATOM      7  C   LIG    1       25.268 -30.591   8.846  0.00  0.00    +0.078 C 
ATOM      8  C   LIG    1       25.246 -29.836   7.557  0.00  0.00    +0.028 A 
ATOM      9  C   LIG    1       25.125 -28.435   7.637  0.00  0.00    +0.096 A 
ATOM     10  C   LIG    1       24.966 -27.684   6.470  0.00  0.00    +0.274 A 
ATOM     11  C   LIG    1       24.938 -28.314   5.225  0.00  0.00    +0.086 A 
ATOM     12  C   LIG    1       25.094 -29.703   5.152  0.00  0.00    +0.031 A 
ATOM     13  C   LIG    1       25.280 -30.489   6.307  0.00  0.00    +0.046 A 
ENDROOT
BRANCH   7  14
ATOM     14  C   LIG    1       24.253 -30.276   9.903  0.00  0.00    +0.036 A 
ATOM     15  C   LIG    1       24.556 -29.492  11.020  0.00  0.00    +0.133 A 
ATOM     16  F   LIG    1       25.780 -28.972  11.192  0.00  0.00    -0.205 F 
ATOM     17  C   LIG    1       23.588 -29.217  11.984  0.00  0.00    +0.039 A 
ATOM     18  C   LIG    1       22.293 -29.710  11.831  0.00  0.00    +0.003 A 
ATOM     19  C   LIG    1       21.969 -30.472  10.708  0.00  0.00    +0.001 A 
ATOM     20  C   LIG    1       22.943 -30.752   9.745  0.00  0.00    +0.013 A 
ENDBRANCH   7  14
BRANCH  10  21
ATOM     21  N   LIG    1       24.816 -26.226   6.554  0.00  0.00    +0.080 N 
ATOM     22  O   LIG    1       25.811 -25.565   6.881  0.00  0.00    -0.576 OA
ATOM     23  O   LIG    1       23.705 -25.746   6.288  0.00  0.00    +0.041 OA
ENDBRANCH  10  21
TORSDOF 2
ENDMDL
MODEL 5
REMARK VINA RESULT:      -6.5      6.802     10.050
REMARK  Name = *****
REMARK                            x       y       z     vdW  Elec       q    Type
REMARK                         _______ _______ _______ _____ _____    ______ ____
ROOT
ATOM      1  C   LIG    1       27.161 -32.968   6.396  0.00  0.00    +0.138 C 
ATOM      2  N   LIG    1       26.034 -32.083   6.660  0.00  0.00    -0.272 N 
ATOM      3  C   LIG    1       24.861 -32.330   5.935  0.00  0.00    +0.241 C 
ATOM      4  O   LIG    1       24.792 -33.210   5.071  0.00  0.00    -0.273 OA
ATOM      5  C   LIG    1       23.623 -31.533   6.322  0.00  0.00    +0.238 C 
ATOM      6  N   LIG    1       23.804 -30.143   5.917  0.00  0.00    -0.273 NA
ATOM      7  C   LIG    1       24.660 -29.426   6.565  0.00  0.00    +0.078 C 
ATOM      8  C   LIG    1       25.418 -29.921   7.752  0.00  0.00    +0.028 A 
ATOM      9  C   LIG    1       25.458 -29.082   8.882  0.00  0.00    +0.096 A 
ATOM     10  C   LIG    1       26.257 -29.426   9.976  0.00  0.00    +0.274 A 
ATOM     11  C   LIG    1       27.007 -30.603   9.957  0.00  0.00    +0.086 A 
ATOM     12  C   LIG    1       26.934 -31.449   8.844  0.00  0.00    +0.031 A 
ATOM     13  C   LIG    1       26.120 -31.144   7.735  0.00  0.00    +0.046 A 
ENDROOT
BRANCH   7  14
ATOM     14  C   LIG    1       24.872 -28.021   6.087  0.00  0.00    +0.036 A 
ATOM     15  C   LIG    1       25.865 -27.689   5.161  0.00  0.00    +0.133 A 
ATOM     16  F   LIG    1       26.674 -28.625   4.644  0.00  0.00    -0.205 F 
ATOM     17  C   LIG    1       26.034 -26.371   4.736  0.00  0.00    +0.039 A 
ATOM     18  C   LIG    1       25.195 -25.370   5.222  0.00  0.00    +0.003 A 
ATOM     19  C   LIG    1       24.183 -25.691   6.127  0.00  0.00    +0.001 A 
ATOM     20  C   LIG    1       24.019 -27.011   6.556  0.00  0.00    +0.013 A 
ENDBRANCH   7  14
BRANCH  10  21
ATOM     21  N   LIG    1       26.318 -28.540  11.145  0.00  0.00    +0.080 N 
ATOM     22  O   LIG    1       27.362 -27.898  11.324  0.00  0.00    -0.576 OA
ATOM     23  O   LIG    1       25.321 -28.486  11.878  0.00  0.00    +0.041 OA
ENDBRANCH  10  21
TORSDOF 2
ENDMDL
MODEL 6
REMARK VINA RESULT:      -6.4      6.942      9.453
REMARK  Name = *****
REMARK                            x       y       z     vdW  Elec       q    Type
REMARK                         _______ _______ _______ _____ _____    ______ ____
ROOT
ATOM      1  C   LIG    1       26.974 -29.987  10.705  0.00  0.00    +0.138 C 
ATOM      2  N   LIG    1       25.754 -30.119   9.920  0.00  0.00    -0.272 N 
ATOM      3  C   LIG    1       24.716 -30.862  10.496  0.00  0.00    +0.241 C 
ATOM      4  O   LIG    1       24.838 -31.432  11.585  0.00  0.00    -0.273 OA
ATOM      5  C   LIG    1       23.376 -30.863   9.773  0.00  0.00    +0.238 C 
ATOM      6  N   LIG    1       23.498 -31.636   8.541  0.00  0.00    -0.273 NA
ATOM      7  C   LIG    1       24.196 -31.139   7.576  0.00  0.00    +0.078 C 
ATOM      8  C   LIG    1       24.821 -29.783   7.626  0.00  0.00    +0.028 A 
ATOM      9  C   LIG    1       24.637 -28.952   6.504  0.00  0.00    +0.096 A 
ATOM     10  C   LIG    1       25.303 -27.725   6.431  0.00  0.00    +0.274 A 
ATOM     11  C   LIG    1       26.140 -27.316   7.469  0.00  0.00    +0.086 A 
ATOM     12  C   LIG    1       26.291 -28.133   8.596  0.00  0.00    +0.031 A 
ATOM     13  C   LIG    1       25.615 -29.364   8.713  0.00  0.00    +0.046 A 
ENDROOT
BRANCH   7  14
ATOM     14  C   LIG    1       24.357 -31.981   6.347  0.00  0.00    +0.036 A 
ATOM     15  C   LIG    1       25.593 -32.154   5.717  0.00  0.00    +0.133 A 
ATOM     16  F   LIG    1       26.704 -31.574   6.195  0.00  0.00    -0.205 F 
ATOM     17  C   LIG    1       25.709 -32.947   4.576  0.00  0.00    +0.039 A 
ATOM     18  C   LIG    1       24.587 -33.594   4.061  0.00  0.00    +0.003 A 
ATOM     19  C   LIG    1       23.353 -33.453   4.696  0.00  0.00    +0.001 A 
ATOM     20  C   LIG    1       23.237 -32.653   5.836  0.00  0.00    +0.013 A 
ENDBRANCH   7  14
BRANCH  10  21
ATOM     21  N   LIG    1       25.130 -26.869   5.251  0.00  0.00    +0.080 N 
ATOM     22  O   LIG    1       26.058 -26.827   4.432  0.00  0.00    -0.576 OA
ATOM     23  O   LIG    1       24.067 -26.243   5.145  0.00  0.00    +0.041 OA
ENDBRANCH  10  21
TORSDOF 2
ENDMDL
MODEL 7
REMARK VINA RESULT:      -6.4      7.382     10.393
REMARK  Name = *****
REMARK                            x       y       z     vdW  Elec       q    Type
REMARK                         _______ _______ _______ _____ _____    ______ ____
ROOT
ATOM      1  C   LIG    1       27.759 -32.861   8.181  0.00  0.00    +0.138 C 
ATOM      2  N   LIG    1       26.628 -32.261   7.486  0.00  0.00    -0.272 N 
ATOM      3  C   LIG    1       26.581 -32.439   6.098  0.00  0.00    +0.241 C 
ATOM      4  O   LIG    1       27.475 -33.019   5.476  0.00  0.00    -0.273 OA
ATOM      5  C   LIG    1       25.321 -31.974   5.379  0.00  0.00    +0.238 C 
ATOM      6  N   LIG    1       25.279 -30.516   5.383  0.00  0.00    -0.273 NA
ATOM      7  C   LIG    1       25.051 -29.914   6.502  0.00  0.00    +0.078 C 
ATOM      8  C   LIG    1       24.753 -30.633   7.776  0.00  0.00    +0.028 A 
ATOM      9  C   LIG    1       23.654 -30.175   8.528  0.00  0.00    +0.096 A 
ATOM     10  C   LIG    1       23.401 -30.717   9.791  0.00  0.00    +0.274 A 
ATOM     11  C   LIG    1       24.226 -31.718  10.305  0.00  0.00    +0.086 A 
ATOM     12  C   LIG    1       25.295 -32.192   9.537  0.00  0.00    +0.031 A 
ATOM     13  C   LIG    1       25.564 -31.685   8.250  0.00  0.00    +0.046 A 
ENDROOT
BRANCH   7  14
ATOM     14  C   LIG    1       25.078 -28.416   6.488  0.00  0.00    +0.036 A 
ATOM     15  C   LIG    1       25.888 -27.676   7.354  0.00  0.00    +0.133 A 
ATOM     16  F   LIG    1       26.695 -28.280   8.238  0.00  0.00    -0.205 F 
ATOM     17  C   LIG    1       25.890 -26.282   7.314  0.00  0.00    +0.039 A 
ATOM     18  C   LIG    1       25.091 -25.611   6.389  0.00  0.00    +0.003 A 
ATOM     19  C   LIG    1       24.298 -26.337   5.502  0.00  0.00    +0.001 A 
ATOM     20  C   LIG    1       24.292 -27.735   5.547  0.00  0.00    +0.013 A 
ENDBRANCH   7  14
BRANCH  10  21
ATOM     21  N   LIG    1       22.270 -30.223  10.586  0.00  0.00    +0.080 N 
ATOM     22  O   LIG    1       21.132 -30.571  10.242  0.00  0.00    -0.576 OA
ATOM     23  O   LIG    1       22.522 -29.492  11.553  0.00  0.00    +0.041 OA
ENDBRANCH  10  21
TORSDOF 2
ENDMDL
MODEL 8
REMARK VINA RESULT:      -6.3      8.048      9.843
REMARK  Name = *****
REMARK                            x       y       z     vdW  Elec       q    Type
REMARK                         _______ _______ _______ _____ _____    ______ ____
ROOT
ATOM      1  C   LIG    1       26.920 -27.883  12.693  0.00  0.00    +0.138 C 
ATOM      2  N   LIG    1       26.616 -28.906  11.702  0.00  0.00    -0.272 N 
ATOM      3  C   LIG    1       27.706 -29.607  11.171  0.00  0.00    +0.241 C 
ATOM      4  O   LIG    1       28.873 -29.341  11.474  0.00  0.00    -0.273 OA
ATOM      5  C   LIG    1       27.398 -30.795  10.269  0.00  0.00    +0.238 C 
ATOM      6  N   LIG    1       26.856 -30.307   9.005  0.00  0.00    -0.273 NA
ATOM      7  C   LIG    1       25.669 -29.799   9.006  0.00  0.00    +0.078 C 
ATOM      8  C   LIG    1       24.794 -29.753  10.215  0.00  0.00    +0.028 A 
ATOM      9  C   LIG    1       23.460 -30.176  10.056  0.00  0.00    +0.096 A 
ATOM     10  C   LIG    1       22.556 -30.035  11.113  0.00  0.00    +0.274 A 
ATOM     11  C   LIG    1       22.972 -29.488  12.327  0.00  0.00    +0.086 A 
ATOM     12  C   LIG    1       24.307 -29.102  12.487  0.00  0.00    +0.031 A 
ATOM     13  C   LIG    1       25.251 -29.253  11.452  0.00  0.00    +0.046 A 
ENDROOT
BRANCH   7  14
ATOM     14  C   LIG    1       25.163 -29.247   7.707  0.00  0.00    +0.036 A 
ATOM     15  C   LIG    1       25.453 -27.947   7.285  0.00  0.00    +0.133 A 
ATOM     16  F   LIG    1       26.213 -27.128   8.026  0.00  0.00    -0.205 F 
ATOM     17  C   LIG    1       24.967 -27.466   6.069  0.00  0.00    +0.039 A 
ATOM     18  C   LIG    1       24.199 -28.292   5.250  0.00  0.00    +0.003 A 
ATOM     19  C   LIG    1       23.925 -29.600   5.647  0.00  0.00    +0.001 A 
ATOM     20  C   LIG    1       24.407 -30.079   6.869  0.00  0.00    +0.013 A 
ENDBRANCH   7  14
BRANCH  10  21
ATOM     21  N   LIG    1       21.159 -30.454  10.940  0.00  0.00    +0.080 N 
ATOM     22  O   LIG    1       20.325 -30.012  11.742  0.00  0.00    -0.576 OA
ATOM     23  O   LIG    1       20.900 -31.220  10.002  0.00  0.00    +0.041 OA
ENDBRANCH  10  21
TORSDOF 2
ENDMDL
MODEL 9
REMARK VINA RESULT:      -6.1      7.436     10.410
REMARK  Name = *****
REMARK                            x       y       z     vdW  Elec       q    Type
REMARK                         _______ _______ _______ _____ _____    ______ ____
ROOT
ATOM      1  C   LIG    1       22.303 -32.150   9.519  0.00  0.00    +0.138 C 
ATOM      2  N   LIG    1       23.599 -31.535   9.267  0.00  0.00    -0.272 N 
ATOM      3  C   LIG    1       24.203 -30.883  10.350  0.00  0.00    +0.241 C 
ATOM      4  O   LIG    1       23.650 -30.776  11.448  0.00  0.00    -0.273 OA
ATOM      5  C   LIG    1       25.631 -30.389  10.156  0.00  0.00    +0.238 C 
ATOM      6  N   LIG    1       25.624 -29.256   9.236  0.00  0.00    -0.273 NA
ATOM      7  C   LIG    1       25.367 -29.483   7.991  0.00  0.00    +0.078 C 
ATOM      8  C   LIG    1       25.151 -30.851   7.431  0.00  0.00    +0.028 A 
ATOM      9  C   LIG    1       25.843 -31.174   6.248  0.00  0.00    +0.096 A 
ATOM     10  C   LIG    1       25.586 -32.386   5.602  0.00  0.00    +0.274 A 
ATOM     11  C   LIG    1       24.654 -33.282   6.130  0.00  0.00    +0.086 A 
ATOM     12  C   LIG    1       23.996 -32.967   7.324  0.00  0.00    +0.031 A 
ATOM     13  C   LIG    1       24.250 -31.765   8.015  0.00  0.00    +0.046 A 
ENDROOT
BRANCH   7  14
ATOM     14  C   LIG    1       25.303 -28.294   7.081  0.00  0.00    +0.036 A 
ATOM     15  C   LIG    1       24.364 -28.192   6.050  0.00  0.00    +0.133 A 
ATOM     16  F   LIG    1       23.462 -29.160   5.834  0.00  0.00    -0.205 F 
ATOM     17  C   LIG    1       24.331 -27.071   5.222  0.00  0.00    +0.039 A 
ATOM     18  C   LIG    1       25.229 -26.025   5.430  0.00  0.00    +0.003 A 
ATOM     19  C   LIG    1       26.154 -26.102   6.471  0.00  0.00    +0.001 A 
ATOM     20  C   LIG    1       26.189 -27.229   7.297  0.00  0.00    +0.013 A 
ENDBRANCH   7  14
BRANCH  10  21
ATOM     21  N   LIG    1       26.289 -32.715   4.356  0.00  0.00    +0.080 N 
ATOM     22  O   LIG    1       27.320 -33.396   4.441  0.00  0.00    -0.576 OA
ATOM     23  O   LIG    1       25.807 -32.293   3.295  0.00  0.00    +0.041 OA
ENDBRANCH  10  21
TORSDOF 2
ENDMDL
