MODEL 1
REMARK VINA RESULT:      -8.1      0.000      0.000
REMARK  Name = *****
REMARK                            x       y       z     vdW  Elec       q    Type
REMARK                         _______ _______ _______ _____ _____    ______ ____
ROOT
ATOM      1  C   LIG    1       25.210 -21.325   7.007  0.00  0.00    +0.072 C 
ATOM      2  C   LIG    1       26.094 -21.094   8.257  0.00  0.00    +0.230 C 
ATOM      3  O   LIG    1       25.668 -21.044   9.409  0.00  0.00    -0.274 OA
ATOM      4  N   LIG    1       27.447 -20.962   8.037  0.00  0.00    -0.256 N 
ATOM      5  H   LIG    1       28.011 -20.866   8.870  0.00  0.00    +0.158 HD
ATOM      6  C   LIG    1       28.056 -20.537   6.887  0.00  0.00    +0.219 C 
ATOM      7  O   LIG    1       29.239 -20.203   6.885  0.00  0.00    -0.275 OA
ATOM      8  C   LIG    1       27.212 -20.508   5.640  0.00  0.00    +0.097 C 
ATOM      9  C   LIG    1       25.741 -20.288   5.974  0.00  0.00    +0.030 C 
ENDROOT
BRANCH   1  10
ATOM     10  C   LIG    1       25.296 -22.779   6.501  0.00  0.00    -0.032 A 
ATOM     11  C   LIG    1       25.853 -23.794   7.298  0.00  0.00    +0.006 A 
ATOM     12  C   LIG    1       25.945 -25.113   6.836  0.00  0.00    +0.023 A 
ATOM     13  C   LIG    1       25.438 -25.473   5.590  0.00  0.00    +0.025 A 
ATOM     14  C   LIG    1       24.909 -24.472   4.779  0.00  0.00    +0.023 A 
ATOM     15  C   LIG    1       24.804 -23.152   5.239  0.00  0.00    +0.006 A 
BRANCH  13  16
ATOM     16  N   LIG    1       25.663 -26.755   5.077  0.00  0.00    -0.358 N 
ATOM     17  H   LIG    1       25.048 -27.003   4.308  0.00  0.00    +0.142 HD
ATOM     18  H   LIG    1       26.637 -26.948   4.865  0.00  0.00    +0.142 HD
ENDBRANCH  13  16
ENDBRANCH   1  10
BRANCH   1  20
ATOM     19  C   LIG    1       22.952 -20.238   6.193  0.00  0.00    +0.005 C 
ATOM     20  C   LIG    1       23.725 -20.952   7.300  0.00  0.00    +0.017 C 
ENDBRANCH   1  20
TORSDOF 3
ENDMDL
MODEL 2
REMARK VINA RESULT:      -8.0      2.713      4.887
REMARK  Name = *****
REMARK                            x       y       z     vdW  Elec       q    Type
REMARK                         _______ _______ _______ _____ _____    ______ ____
ROOT
ATOM      1  C   LIG    1       24.205 -20.688   5.441  0.00  0.00    +0.072 C 
ATOM      2  C   LIG    1       24.187 -21.949   4.544  0.00  0.00    +0.230 C 
ATOM      3  O   LIG    1       24.268 -21.929   3.318  0.00  0.00    -0.274 OA
ATOM      4  N   LIG    1       24.097 -23.162   5.189  0.00  0.00    -0.256 N 
ATOM      5  H   LIG    1       24.142 -23.973   4.589  0.00  0.00    +0.158 HD
ATOM      6  C   LIG    1       23.556 -23.398   6.424  0.00  0.00    +0.219 C 
ATOM      7  O   LIG    1       23.287 -24.542   6.788  0.00  0.00    -0.275 OA
ATOM      8  C   LIG    1       23.319 -22.200   7.305  0.00  0.00    +0.097 C 
ATOM      9  C   LIG    1       23.070 -20.946   6.475  0.00  0.00    +0.030 C 
ENDROOT
BRANCH   1  10
ATOM     10  C   LIG    1       25.582 -20.468   6.100  0.00  0.00    -0.032 A 
ATOM     11  C   LIG    1       25.765 -20.649   7.481  0.00  0.00    +0.006 A 
ATOM     12  C   LIG    1       27.011 -20.437   8.084  0.00  0.00    +0.023 A 
ATOM     13  C   LIG    1       28.125 -20.090   7.324  0.00  0.00    +0.025 A 
ATOM     14  C   LIG    1       27.952 -19.879   5.958  0.00  0.00    +0.023 A 
ATOM     15  C   LIG    1       26.710 -20.100   5.347  0.00  0.00    +0.006 A 
BRANCH  13  16
ATOM     16  N   LIG    1       29.327 -19.738   7.948  0.00  0.00    -0.358 N 
ATOM     17  H   LIG    1       29.232 -19.545   8.940  0.00  0.00    +0.142 HD
ATOM     18  H   LIG    1       30.093 -20.374   7.752  0.00  0.00    +0.142 HD
ENDBRANCH  13  16
ENDBRANCH   1  10
BRANCH   1  20
ATOM     19  C   LIG    1       22.389 -18.873   4.848  0.00  0.00    +0.005 C 
ATOM     20  C   LIG    1       23.798 -19.421   4.629  0.00  0.00    +0.017 C 
ENDBRANCH   1  20
TORSDOF 3
ENDMDL
MODEL 3
REMARK VINA RESULT:      -7.8      1.301      1.500
REMARK  Name = *****
REMARK                            x       y       z     vdW  Elec       q    Type
REMARK                         _______ _______ _______ _____ _____    ______ ____
ROOT
ATOM      1  C   LIG    1       24.547 -21.534   6.042  0.00  0.00    +0.072 C 
ATOM      2  C   LIG    1       24.281 -21.057   7.490  0.00  0.00    +0.230 C 
ATOM      3  O   LIG    1       23.162 -20.905   7.976  0.00  0.00    -0.274 OA
ATOM      4  N   LIG    1       25.389 -20.815   8.271  0.00  0.00    -0.256 N 
ATOM      5  H   LIG    1       25.192 -20.557   9.228  0.00  0.00    +0.158 HD
ATOM      6  C   LIG    1       26.643 -20.480   7.838  0.00  0.00    +0.219 C 
ATOM      7  O   LIG    1       27.481 -20.029   8.617  0.00  0.00    -0.275 OA
ATOM      8  C   LIG    1       26.940 -20.697   6.378  0.00  0.00    +0.097 C 
ATOM      9  C   LIG    1       25.675 -20.588   5.534  0.00  0.00    +0.030 C 
ENDROOT
BRANCH   1  10
ATOM     10  C   LIG    1       24.940 -23.025   5.989  0.00  0.00    -0.032 A 
ATOM     11  C   LIG    1       25.454 -23.681   7.120  0.00  0.00    +0.006 A 
ATOM     12  C   LIG    1       25.825 -25.031   7.072  0.00  0.00    +0.023 A 
ATOM     13  C   LIG    1       25.647 -25.782   5.913  0.00  0.00    +0.025 A 
ATOM     14  C   LIG    1       25.165 -25.137   4.777  0.00  0.00    +0.023 A 
ATOM     15  C   LIG    1       24.782 -23.790   4.821  0.00  0.00    +0.006 A 
BRANCH  13  16
ATOM     16  N   LIG    1       26.152 -27.084   5.827  0.00  0.00    -0.358 N 
ATOM     17  H   LIG    1       25.820 -27.701   6.561  0.00  0.00    +0.142 HD
ATOM     18  H   LIG    1       26.063 -27.500   4.906  0.00  0.00    +0.142 HD
ENDBRANCH  13  16
ENDBRANCH   1  10
BRANCH   1  20
ATOM     19  C   LIG    1       23.033 -19.842   4.705  0.00  0.00    +0.005 C 
ATOM     20  C   LIG    1       23.303 -21.282   5.135  0.00  0.00    +0.017 C 
ENDBRANCH   1  20
TORSDOF 3
ENDMDL
MODEL 4
REMARK VINA RESULT:      -7.8      2.136      2.977
REMARK  Name = *****
REMARK                            x       y       z     vdW  Elec       q    Type
REMARK                         _______ _______ _______ _____ _____    ______ ____
ROOT
ATOM      1  C   LIG    1       25.212 -21.724   7.126  0.00  0.00    +0.072 C 
ATOM      2  C   LIG    1       26.131 -21.037   6.087  0.00  0.00    +0.230 C 
ATOM      3  O   LIG    1       27.331 -20.831   6.250  0.00  0.00    -0.274 OA
ATOM      4  N   LIG    1       25.542 -20.660   4.900  0.00  0.00    -0.256 N 
ATOM      5  H   LIG    1       26.171 -20.263   4.216  0.00  0.00    +0.158 HD
ATOM      6  C   LIG    1       24.220 -20.373   4.693  0.00  0.00    +0.219 C 
ATOM      7  O   LIG    1       23.853 -19.795   3.671  0.00  0.00    -0.275 OA
ATOM      8  C   LIG    1       23.253 -20.804   5.763  0.00  0.00    +0.097 C 
ATOM      9  C   LIG    1       23.926 -20.846   7.130  0.00  0.00    +0.030 C 
ENDROOT
BRANCH   1  10
ATOM     10  C   LIG    1       24.936 -23.198   6.767  0.00  0.00    -0.032 A 
ATOM     11  C   LIG    1       25.988 -24.089   6.496  0.00  0.00    +0.006 A 
ATOM     12  C   LIG    1       25.741 -25.425   6.156  0.00  0.00    +0.023 A 
ATOM     13  C   LIG    1       24.442 -25.928   6.125  0.00  0.00    +0.025 A 
ATOM     14  C   LIG    1       23.389 -25.048   6.363  0.00  0.00    +0.023 A 
ATOM     15  C   LIG    1       23.630 -23.713   6.715  0.00  0.00    +0.006 A 
BRANCH  13  16
ATOM     16  N   LIG    1       24.193 -27.217   5.644  0.00  0.00    -0.358 N 
ATOM     17  H   LIG    1       24.422 -27.340   4.662  0.00  0.00    +0.142 HD
ATOM     18  H   LIG    1       24.583 -27.955   6.223  0.00  0.00    +0.142 HD
ENDBRANCH  13  16
ENDBRANCH   1  10
BRANCH   1  20
ATOM     19  C   LIG    1       26.049 -20.237   9.135  0.00  0.00    +0.005 C 
ATOM     20  C   LIG    1       25.826 -21.633   8.557  0.00  0.00    +0.017 C 
ENDBRANCH   1  20
TORSDOF 3
ENDMDL
MODEL 5
REMARK VINA RESULT:      -7.8      2.558      4.849
REMARK  Name = *****
REMARK                            x       y       z     vdW  Elec       q    Type
REMARK                         _______ _______ _______ _____ _____    ______ ____
ROOT
ATOM      1  C   LIG    1       24.225 -21.243   5.970  0.00  0.00    +0.072 C 
ATOM      2  C   LIG    1       24.348 -21.897   4.573  0.00  0.00    +0.230 C 
ATOM      3  O   LIG    1       24.086 -21.329   3.515  0.00  0.00    -0.274 OA
ATOM      4  N   LIG    1       24.805 -23.196   4.540  0.00  0.00    -0.256 N 
ATOM      5  H   LIG    1       24.929 -23.585   3.616  0.00  0.00    +0.158 HD
ATOM      6  C   LIG    1       24.712 -24.125   5.541  0.00  0.00    +0.219 C 
ATOM      7  O   LIG    1       24.909 -25.318   5.315  0.00  0.00    -0.275 OA
ATOM      8  C   LIG    1       24.371 -23.615   6.916  0.00  0.00    +0.097 C 
ATOM      9  C   LIG    1       23.541 -22.338   6.840  0.00  0.00    +0.030 C 
ENDROOT
BRANCH   1  10
ATOM     10  C   LIG    1       25.595 -20.801   6.523  0.00  0.00    -0.032 A 
ATOM     11  C   LIG    1       26.638 -20.419   5.661  0.00  0.00    +0.006 A 
ATOM     12  C   LIG    1       27.888 -20.031   6.159  0.00  0.00    +0.023 A 
ATOM     13  C   LIG    1       28.123 -19.960   7.530  0.00  0.00    +0.025 A 
ATOM     14  C   LIG    1       27.108 -20.363   8.394  0.00  0.00    +0.023 A 
ATOM     15  C   LIG    1       25.851 -20.742   7.903  0.00  0.00    +0.006 A 
BRANCH  13  16
ATOM     16  N   LIG    1       29.411 -19.714   8.016  0.00  0.00    -0.358 N 
ATOM     17  H   LIG    1       30.066 -19.408   7.303  0.00  0.00    +0.142 HD
ATOM     18  H   LIG    1       29.434 -19.120   8.838  0.00  0.00    +0.142 HD
ENDBRANCH  13  16
ENDBRANCH   1  10
BRANCH   1  20
ATOM     19  C   LIG    1       22.059 -20.114   4.981  0.00  0.00    +0.005 C 
ATOM     20  C   LIG    1       23.252 -20.025   5.931  0.00  0.00    +0.017 C 
ENDBRANCH   1  20
TORSDOF 3
ENDMDL
MODEL 6
REMARK VINA RESULT:      -7.4      2.744      4.872
REMARK  Name = *****
REMARK                            x       y       z     vdW  Elec       q    Type
REMARK                         _______ _______ _______ _____ _____    ______ ____
ROOT
ATOM      1  C   LIG    1       24.777 -21.817   6.179  0.00  0.00    +0.072 C 
ATOM      2  C   LIG    1       23.569 -21.175   6.903  0.00  0.00    +0.230 C 
ATOM      3  O   LIG    1       23.079 -21.599   7.947  0.00  0.00    -0.274 OA
ATOM      4  N   LIG    1       23.041 -20.040   6.328  0.00  0.00    -0.256 N 
ATOM      5  H   LIG    1       22.288 -19.607   6.845  0.00  0.00    +0.158 HD
ATOM      6  C   LIG    1       23.106 -19.680   5.009  0.00  0.00    +0.219 C 
ATOM      7  O   LIG    1       22.380 -18.794   4.560  0.00  0.00    -0.275 OA
ATOM      8  C   LIG    1       24.106 -20.409   4.152  0.00  0.00    +0.097 C 
ATOM      9  C   LIG    1       24.362 -21.817   4.679  0.00  0.00    +0.030 C 
ENDROOT
BRANCH   1  10
ATOM     10  C   LIG    1       26.085 -21.044   6.444  0.00  0.00    -0.032 A 
ATOM     11  C   LIG    1       26.813 -20.464   5.390  0.00  0.00    +0.006 A 
ATOM     12  C   LIG    1       28.008 -19.773   5.626  0.00  0.00    +0.023 A 
ATOM     13  C   LIG    1       28.488 -19.593   6.921  0.00  0.00    +0.025 A 
ATOM     14  C   LIG    1       27.792 -20.187   7.970  0.00  0.00    +0.023 A 
ATOM     15  C   LIG    1       26.590 -20.870   7.743  0.00  0.00    +0.006 A 
BRANCH  13  16
ATOM     16  N   LIG    1       29.752 -19.032   7.136  0.00  0.00    -0.358 N 
ATOM     17  H   LIG    1       30.516 -19.692   7.034  0.00  0.00    +0.142 HD
ATOM     18  H   LIG    1       29.915 -18.175   6.617  0.00  0.00    +0.142 HD
ENDBRANCH  13  16
ENDBRANCH   1  10
BRANCH   1  20
ATOM     19  C   LIG    1       25.112 -24.337   5.482  0.00  0.00    +0.005 C 
ATOM     20  C   LIG    1       24.949 -23.309   6.600  0.00  0.00    +0.017 C 
ENDBRANCH   1  20
TORSDOF 3
ENDMDL
MODEL 7
REMARK VINA RESULT:      -7.2      2.546      4.638
REMARK  Name = *****
REMARK                            x       y       z     vdW  Elec       q    Type
REMARK                         _______ _______ _______ _____ _____    ______ ____
ROOT
ATOM      1  C   LIG    1       24.819 -21.697   6.277  0.00  0.00    +0.072 C 
ATOM      2  C   LIG    1       24.491 -22.154   4.834  0.00  0.00    +0.230 C 
ATOM      3  O   LIG    1       23.904 -21.464   4.004  0.00  0.00    -0.274 OA
ATOM      4  N   LIG    1       24.918 -23.414   4.477  0.00  0.00    -0.256 N 
ATOM      5  H   LIG    1       24.741 -23.671   3.516  0.00  0.00    +0.158 HD
ATOM      6  C   LIG    1       25.152 -24.471   5.314  0.00  0.00    +0.219 C 
ATOM      7  O   LIG    1       25.269 -25.613   4.872  0.00  0.00    -0.275 OA
ATOM      8  C   LIG    1       25.265 -24.164   6.784  0.00  0.00    +0.097 C 
ATOM      9  C   LIG    1       24.451 -22.929   7.154  0.00  0.00    +0.030 C 
ENDROOT
BRANCH   1  10
ATOM     10  C   LIG    1       26.292 -21.268   6.425  0.00  0.00    -0.032 A 
ATOM     11  C   LIG    1       27.128 -21.858   7.389  0.00  0.00    +0.006 A 
ATOM     12  C   LIG    1       28.463 -21.461   7.535  0.00  0.00    +0.023 A 
ATOM     13  C   LIG    1       29.022 -20.502   6.692  0.00  0.00    +0.025 A 
ATOM     14  C   LIG    1       28.198 -19.890   5.752  0.00  0.00    +0.023 A 
ATOM     15  C   LIG    1       26.864 -20.290   5.593  0.00  0.00    +0.006 A 
BRANCH  13  16
ATOM     16  N   LIG    1       30.307 -20.007   6.938  0.00  0.00    -0.358 N 
ATOM     17  H   LIG    1       30.936 -20.687   7.354  0.00  0.00    +0.142 HD
ATOM     18  H   LIG    1       30.725 -19.536   6.142  0.00  0.00    +0.142 HD
ENDBRANCH  13  16
ENDBRANCH   1  10
BRANCH   1  20
ATOM     19  C   LIG    1       23.203 -20.657   8.081  0.00  0.00    +0.005 C 
ATOM     20  C   LIG    1       23.881 -20.532   6.717  0.00  0.00    +0.017 C 
ENDBRANCH   1  20
TORSDOF 3
ENDMDL
MODEL 8
REMARK VINA RESULT:      -6.7      2.423      4.076
REMARK  Name = *****
REMARK                            x       y       z     vdW  Elec       q    Type
REMARK                         _______ _______ _______ _____ _____    ______ ____
ROOT
ATOM      1  C   LIG    1       24.816 -22.172   7.287  0.00  0.00    +0.072 C 
ATOM      2  C   LIG    1       26.133 -22.864   6.858  0.00  0.00    +0.230 C 
ATOM      3  O   LIG    1       26.204 -24.008   6.415  0.00  0.00    -0.274 OA
ATOM      4  N   LIG    1       27.285 -22.117   6.971  0.00  0.00    -0.256 N 
ATOM      5  H   LIG    1       28.124 -22.568   6.636  0.00  0.00    +0.158 HD
ATOM      6  C   LIG    1       27.504 -21.068   7.823  0.00  0.00    +0.219 C 
ATOM      7  O   LIG    1       28.642 -20.649   8.029  0.00  0.00    -0.275 OA
ATOM      8  C   LIG    1       26.293 -20.457   8.477  0.00  0.00    +0.097 C 
ATOM      9  C   LIG    1       25.175 -21.481   8.635  0.00  0.00    +0.030 C 
ENDROOT
BRANCH   1  10
ATOM     10  C   LIG    1       24.310 -21.184   6.217  0.00  0.00    -0.032 A 
ATOM     11  C   LIG    1       25.015 -20.986   5.017  0.00  0.00    +0.006 A 
ATOM     12  C   LIG    1       24.565 -20.080   4.050  0.00  0.00    +0.023 A 
ATOM     13  C   LIG    1       23.373 -19.380   4.223  0.00  0.00    +0.025 A 
ATOM     14  C   LIG    1       22.680 -19.544   5.419  0.00  0.00    +0.023 A 
ATOM     15  C   LIG    1       23.118 -20.458   6.386  0.00  0.00    +0.006 A 
BRANCH  13  16
ATOM     16  N   LIG    1       23.007 -18.372   3.324  0.00  0.00    -0.358 N 
ATOM     17  H   LIG    1       23.336 -18.528   2.377  0.00  0.00    +0.142 HD
ATOM     18  H   LIG    1       22.021 -18.133   3.353  0.00  0.00    +0.142 HD
ENDBRANCH  13  16
ENDBRANCH   1  10
BRANCH   1  20
ATOM     19  C   LIG    1       22.890 -23.750   6.422  0.00  0.00    +0.005 C 
ATOM     20  C   LIG    1       23.710 -23.226   7.599  0.00  0.00    +0.017 C 
ENDBRANCH   1  20
TORSDOF 3
ENDMDL
MODEL 9
REMARK VINA RESULT:      -6.4      2.766      4.739
REMARK  Name = *****
REMARK                            x       y       z     vdW  Elec       q    Type
REMARK                         _______ _______ _______ _____ _____    ______ ____
ROOT
ATOM      1  C   LIG    1       24.891 -21.917   7.373  0.00  0.00    +0.072 C 
ATOM      2  C   LIG    1       23.482 -22.558   7.352  0.00  0.00    +0.230 C 
ATOM      3  O   LIG    1       22.529 -22.163   8.019  0.00  0.00    -0.274 OA
ATOM      4  N   LIG    1       23.307 -23.629   6.503  0.00  0.00    -0.256 N 
ATOM      5  H   LIG    1       22.367 -23.997   6.465  0.00  0.00    +0.158 HD
ATOM      6  C   LIG    1       24.273 -24.486   6.051  0.00  0.00    +0.219 C 
ATOM      7  O   LIG    1       23.972 -25.553   5.519  0.00  0.00    -0.275 OA
ATOM      8  C   LIG    1       25.705 -24.054   6.228  0.00  0.00    +0.097 C 
ATOM      9  C   LIG    1       25.859 -23.135   7.434  0.00  0.00    +0.030 C 
ENDROOT
BRANCH   1  10
ATOM     10  C   LIG    1       25.132 -21.015   6.145  0.00  0.00    -0.032 A 
ATOM     11  C   LIG    1       26.419 -20.548   5.828  0.00  0.00    +0.006 A 
ATOM     12  C   LIG    1       26.639 -19.718   4.722  0.00  0.00    +0.023 A 
ATOM     13  C   LIG    1       25.595 -19.370   3.868  0.00  0.00    +0.025 A 
ATOM     14  C   LIG    1       24.311 -19.802   4.187  0.00  0.00    +0.023 A 
ATOM     15  C   LIG    1       24.085 -20.642   5.286  0.00  0.00    +0.006 A 
BRANCH  13  16
ATOM     16  N   LIG    1       25.794 -18.426   2.854  0.00  0.00    -0.358 N 
ATOM     17  H   LIG    1       26.726 -18.023   2.847  0.00  0.00    +0.142 HD
ATOM     18  H   LIG    1       25.507 -18.744   1.934  0.00  0.00    +0.142 HD
ENDBRANCH  13  16
ENDBRANCH   1  10
BRANCH   1  20
ATOM     19  C   LIG    1       26.460 -20.406   8.856  0.00  0.00    +0.005 C 
ATOM     20  C   LIG    1       25.110 -21.099   8.682  0.00  0.00    +0.017 C 
ENDBRANCH   1  20
TORSDOF 3
ENDMDL
