MODEL 1
REMARK VINA RESULT:      -4.6      0.000      0.000
REMARK  Name = *****
REMARK                            x       y       z     vdW  Elec       q    Type
REMARK                         _______ _______ _______ _____ _____    ______ ____
ROOT
ATOM      1  C   LIG    1       29.211 -19.012   5.899  0.00  0.00    +0.048 A 
ATOM      2  C   LIG    1       28.254 -20.042   5.963  0.00  0.00    +0.064 A 
ATOM      3  C   LIG    1       28.272 -20.847   7.107  0.00  0.00    +0.135 A 
ATOM      4  N   LIG    1       29.172 -20.755   8.113  0.00  0.00    -0.261 NA
ATOM      5  C   LIG    1       30.066 -19.752   8.017  0.00  0.00    +0.112 A 
ATOM      6  C   LIG    1       30.107 -18.856   6.962  0.00  0.00    +0.044 A 
ENDROOT
BRANCH   1   7
ATOM      7  N   LIG    1       29.155 -18.008   4.912  0.00  0.00    -0.356 N 
ATOM      8  H   LIG    1       29.306 -17.071   5.259  0.00  0.00    +0.142 HD
ATOM      9  H   LIG    1       28.349 -18.073   4.299  0.00  0.00    +0.142 HD
ENDBRANCH   1   7
BRANCH   2  10
ATOM     10  N   LIG    1       27.189 -20.127   5.047  0.00  0.00    -0.355 N 
ATOM     11  H   LIG    1       27.474 -20.356   4.104  0.00  0.00    +0.142 HD
ATOM     12  H   LIG    1       26.415 -20.699   5.368  0.00  0.00    +0.142 HD
ENDBRANCH   2  10
TORSDOF 2
ENDMDL
MODEL 2
REMARK VINA RESULT:      -4.6      0.757      2.236
REMARK  Name = *****
REMARK                            x       y       z     vdW  Elec       q    Type
REMARK                         _______ _______ _______ _____ _____    ______ ____
ROOT
ATOM      1  C   LIG    1       28.301 -20.037   6.059  0.00  0.00    +0.048 A 
ATOM      2  C   LIG    1       29.244 -18.997   5.964  0.00  0.00    +0.064 A 
ATOM      3  C   LIG    1       30.346 -19.066   6.822  0.00  0.00    +0.135 A 
ATOM      4  N   LIG    1       30.537 -20.011   7.773  0.00  0.00    -0.261 NA
ATOM      5  C   LIG    1       29.616 -20.991   7.826  0.00  0.00    +0.112 A 
ATOM      6  C   LIG    1       28.516 -21.061   6.987  0.00  0.00    +0.044 A 
ENDROOT
BRANCH   1   7
ATOM      7  N   LIG    1       27.272 -20.194   5.109  0.00  0.00    -0.356 N 
ATOM      8  H   LIG    1       26.678 -20.997   5.264  0.00  0.00    +0.142 HD
ATOM      9  H   LIG    1       27.582 -20.118   4.145  0.00  0.00    +0.142 HD
ENDBRANCH   1   7
BRANCH   2  10
ATOM     10  N   LIG    1       29.213 -18.057   4.917  0.00  0.00    -0.355 N 
ATOM     11  H   LIG    1       28.408 -18.141   4.312  0.00  0.00    +0.142 HD
ATOM     12  H   LIG    1       29.375 -17.101   5.218  0.00  0.00    +0.142 HD
ENDBRANCH   2  10
TORSDOF 2
ENDMDL
MODEL 3
REMARK VINA RESULT:      -4.5      2.549      3.284
REMARK  Name = *****
REMARK                            x       y       z     vdW  Elec       q    Type
REMARK                         _______ _______ _______ _____ _____    ______ ____
ROOT
ATOM      1  C   LIG    1       26.935 -20.489   6.276  0.00  0.00    +0.048 A 
ATOM      2  C   LIG    1       25.640 -20.753   5.791  0.00  0.00    +0.064 A 
ATOM      3  C   LIG    1       24.626 -20.881   6.746  0.00  0.00    +0.135 A 
ATOM      4  N   LIG    1       24.805 -20.840   8.087  0.00  0.00    -0.261 NA
ATOM      5  C   LIG    1       26.057 -20.578   8.508  0.00  0.00    +0.112 A 
ATOM      6  C   LIG    1       27.129 -20.372   7.656  0.00  0.00    +0.044 A 
ENDROOT
BRANCH   1   7
ATOM      7  N   LIG    1       27.989 -20.125   5.414  0.00  0.00    -0.356 N 
ATOM      8  H   LIG    1       28.760 -19.657   5.870  0.00  0.00    +0.142 HD
ATOM      9  H   LIG    1       27.689 -19.652   4.568  0.00  0.00    +0.142 HD
ENDBRANCH   1   7
BRANCH   2  10
ATOM     10  N   LIG    1       25.326 -20.668   4.422  0.00  0.00    -0.355 N 
ATOM     11  H   LIG    1       25.842 -19.956   3.924  0.00  0.00    +0.142 HD
ATOM     12  H   LIG    1       25.335 -21.562   3.943  0.00  0.00    +0.142 HD
ENDBRANCH   2  10
TORSDOF 2
ENDMDL
MODEL 4
REMARK VINA RESULT:      -4.4      1.850      2.417
REMARK  Name = *****
REMARK                            x       y       z     vdW  Elec       q    Type
REMARK                         _______ _______ _______ _____ _____    ______ ____
ROOT
ATOM      1  C   LIG    1       30.317 -19.014   7.170  0.00  0.00    +0.048 A 
ATOM      2  C   LIG    1       30.246 -20.377   7.515  0.00  0.00    +0.064 A 
ATOM      3  C   LIG    1       30.961 -20.776   8.648  0.00  0.00    +0.135 A 
ATOM      4  N   LIG    1       31.760 -19.975   9.391  0.00  0.00    -0.261 NA
ATOM      5  C   LIG    1       31.794 -18.678   9.032  0.00  0.00    +0.112 A 
ATOM      6  C   LIG    1       31.082 -18.155   7.965  0.00  0.00    +0.044 A 
ENDROOT
BRANCH   1   7
ATOM      7  N   LIG    1       29.476 -18.453   6.188  0.00  0.00    -0.356 N 
ATOM      8  H   LIG    1       29.863 -18.455   5.254  0.00  0.00    +0.142 HD
ATOM      9  H   LIG    1       29.080 -17.555   6.444  0.00  0.00    +0.142 HD
ENDBRANCH   1   7
BRANCH   2  10
ATOM     10  N   LIG    1       29.333 -21.254   6.900  0.00  0.00    -0.355 N 
ATOM     11  H   LIG    1       29.644 -21.614   6.009  0.00  0.00    +0.142 HD
ATOM     12  H   LIG    1       28.987 -21.983   7.515  0.00  0.00    +0.142 HD
ENDBRANCH   2  10
TORSDOF 2
ENDMDL
MODEL 5
REMARK VINA RESULT:      -4.4      2.185      3.483
REMARK  Name = *****
REMARK                            x       y       z     vdW  Elec       q    Type
REMARK                         _______ _______ _______ _____ _____    ______ ____
ROOT
ATOM      1  C   LIG    1       25.882 -20.686   6.145  0.00  0.00    +0.048 A 
ATOM      2  C   LIG    1       27.217 -20.296   6.361  0.00  0.00    +0.064 A 
ATOM      3  C   LIG    1       27.660 -20.278   7.687  0.00  0.00    +0.135 A 
ATOM      4  N   LIG    1       26.892 -20.537   8.772  0.00  0.00    -0.261 NA
ATOM      5  C   LIG    1       25.624 -20.913   8.521  0.00  0.00    +0.112 A 
ATOM      6  C   LIG    1       25.091 -21.026   7.248  0.00  0.00    +0.044 A 
ENDROOT
BRANCH   1   7
ATOM      7  N   LIG    1       25.387 -20.953   4.853  0.00  0.00    -0.356 N 
ATOM      8  H   LIG    1       24.586 -21.569   4.830  0.00  0.00    +0.142 HD
ATOM      9  H   LIG    1       26.101 -21.215   4.181  0.00  0.00    +0.142 HD
ENDBRANCH   1   7
BRANCH   2  10
ATOM     10  N   LIG    1       28.131 -20.152   5.301  0.00  0.00    -0.355 N 
ATOM     11  H   LIG    1       28.070 -20.879   4.602  0.00  0.00    +0.142 HD
ATOM     12  H   LIG    1       28.144 -19.222   4.894  0.00  0.00    +0.142 HD
ENDBRANCH   2  10
TORSDOF 2
ENDMDL
MODEL 6
REMARK VINA RESULT:      -4.4      5.553      5.658
REMARK  Name = *****
REMARK                            x       y       z     vdW  Elec       q    Type
REMARK                         _______ _______ _______ _____ _____    ______ ____
ROOT
ATOM      1  C   LIG    1       24.023 -21.551   5.042  0.00  0.00    +0.048 A 
ATOM      2  C   LIG    1       24.546 -22.690   5.683  0.00  0.00    +0.064 A 
ATOM      3  C   LIG    1       24.436 -22.733   7.076  0.00  0.00    +0.135 A 
ATOM      4  N   LIG    1       23.934 -21.744   7.852  0.00  0.00    -0.261 NA
ATOM      5  C   LIG    1       23.438 -20.676   7.200  0.00  0.00    +0.112 A 
ATOM      6  C   LIG    1       23.436 -20.548   5.821  0.00  0.00    +0.044 A 
ENDROOT
BRANCH   1   7
ATOM      7  N   LIG    1       23.878 -21.489   3.642  0.00  0.00    -0.356 N 
ATOM      8  H   LIG    1       24.451 -22.148   3.133  0.00  0.00    +0.142 HD
ATOM      9  H   LIG    1       23.929 -20.551   3.260  0.00  0.00    +0.142 HD
ENDBRANCH   1   7
BRANCH   2  10
ATOM     10  N   LIG    1       24.952 -23.829   4.963  0.00  0.00    -0.355 N 
ATOM     11  H   LIG    1       25.695 -23.654   4.300  0.00  0.00    +0.142 HD
ATOM     12  H   LIG    1       25.132 -24.640   5.545  0.00  0.00    +0.142 HD
ENDBRANCH   2  10
TORSDOF 2
ENDMDL
MODEL 7
REMARK VINA RESULT:      -4.4      3.874      5.212
REMARK  Name = *****
REMARK                            x       y       z     vdW  Elec       q    Type
REMARK                         _______ _______ _______ _____ _____    ______ ____
ROOT
ATOM      1  C   LIG    1       24.077 -21.171   5.100  0.00  0.00    +0.048 A 
ATOM      2  C   LIG    1       25.300 -20.657   5.570  0.00  0.00    +0.064 A 
ATOM      3  C   LIG    1       25.480 -20.631   6.956  0.00  0.00    +0.135 A 
ATOM      4  N   LIG    1       24.552 -20.995   7.872  0.00  0.00    -0.261 NA
ATOM      5  C   LIG    1       23.399 -21.488   7.381  0.00  0.00    +0.112 A 
ATOM      6  C   LIG    1       23.131 -21.619   6.028  0.00  0.00    +0.044 A 
ENDROOT
BRANCH   1   7
ATOM      7  N   LIG    1       23.865 -21.450   3.735  0.00  0.00    -0.356 N 
ATOM      8  H   LIG    1       22.974 -21.880   3.529  0.00  0.00    +0.142 HD
ATOM      9  H   LIG    1       24.641 -21.923   3.283  0.00  0.00    +0.142 HD
ENDBRANCH   1   7
BRANCH   2  10
ATOM     10  N   LIG    1       26.378 -20.392   4.704  0.00  0.00    -0.355 N 
ATOM     11  H   LIG    1       26.620 -21.166   4.100  0.00  0.00    +0.142 HD
ATOM     12  H   LIG    1       26.294 -19.516   4.200  0.00  0.00    +0.142 HD
ENDBRANCH   2  10
TORSDOF 2
ENDMDL
MODEL 8
REMARK VINA RESULT:      -4.3      1.861      3.217
REMARK  Name = *****
REMARK                            x       y       z     vdW  Elec       q    Type
REMARK                         _______ _______ _______ _____ _____    ______ ____
ROOT
ATOM      1  C   LIG    1       30.884 -19.317   7.744  0.00  0.00    +0.048 A 
ATOM      2  C   LIG    1       30.680 -20.563   8.366  0.00  0.00    +0.064 A 
ATOM      3  C   LIG    1       29.606 -21.329   7.902  0.00  0.00    +0.135 A 
ATOM      4  N   LIG    1       28.718 -20.940   6.957  0.00  0.00    -0.261 NA
ATOM      5  C   LIG    1       28.954 -19.745   6.382  0.00  0.00    +0.112 A 
ATOM      6  C   LIG    1       30.020 -18.926   6.716  0.00  0.00    +0.044 A 
ENDROOT
BRANCH   1   7
ATOM      7  N   LIG    1       32.050 -18.558   7.970  0.00  0.00    -0.356 N 
ATOM      8  H   LIG    1       32.403 -18.081   7.152  0.00  0.00    +0.142 HD
ATOM      9  H   LIG    1       32.775 -19.052   8.479  0.00  0.00    +0.142 HD
ENDBRANCH   1   7
BRANCH   2  10
ATOM     10  N   LIG    1       31.626 -21.119   9.248  0.00  0.00    -0.355 N 
ATOM     11  H   LIG    1       32.466 -21.450   8.795  0.00  0.00    +0.142 HD
ATOM     12  H   LIG    1       31.823 -20.540  10.058  0.00  0.00    +0.142 HD
ENDBRANCH   2  10
TORSDOF 2
ENDMDL
MODEL 9
REMARK VINA RESULT:      -4.3      1.272      2.502
REMARK  Name = *****
REMARK                            x       y       z     vdW  Elec       q    Type
REMARK                         _______ _______ _______ _____ _____    ______ ____
ROOT
ATOM      1  C   LIG    1       29.362 -19.287   6.426  0.00  0.00    +0.048 A 
ATOM      2  C   LIG    1       30.359 -19.705   7.328  0.00  0.00    +0.064 A 
ATOM      3  C   LIG    1       30.048 -20.796   8.146  0.00  0.00    +0.135 A 
ATOM      4  N   LIG    1       28.852 -21.428   8.185  0.00  0.00    -0.261 NA
ATOM      5  C   LIG    1       27.929 -21.002   7.302  0.00  0.00    +0.112 A 
ATOM      6  C   LIG    1       28.143 -19.972   6.401  0.00  0.00    +0.044 A 
ENDROOT
BRANCH   1   7
ATOM      7  N   LIG    1       29.630 -18.350   5.408  0.00  0.00    -0.356 N 
ATOM      8  H   LIG    1       28.808 -17.920   5.008  0.00  0.00    +0.142 HD
ATOM      9  H   LIG    1       30.282 -18.678   4.703  0.00  0.00    +0.142 HD
ENDBRANCH   1   7
BRANCH   2  10
ATOM     10  N   LIG    1       31.676 -19.213   7.263  0.00  0.00    -0.355 N 
ATOM     11  H   LIG    1       32.030 -19.107   6.323  0.00  0.00    +0.142 HD
ATOM     12  H   LIG    1       31.835 -18.390   7.835  0.00  0.00    +0.142 HD
ENDBRANCH   2  10
TORSDOF 2
ENDMDL
