MODEL 1
REMARK VINA RESULT:      -7.9      0.000      0.000
REMARK  Name = *****
REMARK                            x       y       z     vdW  Elec       q    Type
REMARK                         _______ _______ _______ _____ _____    ______ ____
ROOT
ATOM      1  C   LIG    1       29.105 -20.881   7.442  0.00  0.00    +0.298 C 
ATOM      2  N   LIG    1       27.966 -20.843   6.856  0.00  0.00    -0.076 NA
ENDROOT
BRANCH   2   3
ATOM      3  S   LIG    1       26.687 -21.577   7.526  0.00  0.00    +0.103 S 
ATOM      4  O   LIG    1       26.464 -21.103   8.883  0.00  0.00    -0.146 OA
ATOM      5  O   LIG    1       26.718 -22.996   7.234  0.00  0.00    -0.146 OA
BRANCH   3   6
ATOM      6  C   LIG    1       25.336 -20.891   6.569  0.00  0.00    +0.113 A 
ATOM      7  C   LIG    1       24.057 -20.847   7.134  0.00  0.00    +0.029 A 
ATOM      8  C   LIG    1       22.996 -20.315   6.401  0.00  0.00    +0.005 A 
ATOM      9  C   LIG    1       23.204 -19.828   5.103  0.00  0.00    -0.050 A 
ATOM     10  C   LIG    1       22.056 -19.228   4.345  0.00  0.00    +0.044 C 
ATOM     11  C   LIG    1       24.486 -19.901   4.540  0.00  0.00    +0.005 A 
ATOM     12  C   LIG    1       25.554 -20.436   5.267  0.00  0.00    +0.029 A 
ENDBRANCH   3   6
ENDBRANCH   2   3
BRANCH   1  13
ATOM     13  N   LIG    1       30.252 -20.285   7.017  0.00  0.00    -0.298 N 
ATOM     14  H   LIG    1       30.806 -20.842   6.379  0.00  0.00    +0.150 HD
BRANCH  13  15
ATOM     15  C   LIG    1       31.057 -19.467   7.912  0.00  0.00    +0.106 C 
BRANCH  15  16
ATOM     16  C   LIG    1       30.324 -18.166   8.245  0.00  0.00    +0.018 C 
BRANCH  16  18
ATOM     17  C   LIG    1       30.336 -17.329  10.628  0.00  0.00    +0.004 C 
ATOM     18  C   LIG    1       31.062 -17.328   9.293  0.00  0.00    -0.002 C 
ENDBRANCH  16  18
ENDBRANCH  15  16
ENDBRANCH  13  15
ENDBRANCH   1  13
BRANCH   1  19
ATOM     19  O   LIG    1       29.318 -21.534   8.592  0.00  0.00    -0.481 OA
ATOM     20  H   LIG    1       30.256 -21.728   8.717  0.00  0.00    +0.295 HD
ENDBRANCH   1  19
TORSDOF 7
ENDMDL
MODEL 2
REMARK VINA RESULT:      -7.7      2.122      7.382
REMARK  Name = *****
REMARK                            x       y       z     vdW  Elec       q    Type
REMARK                         _______ _______ _______ _____ _____    ______ ____
ROOT
ATOM      1  C   LIG    1       28.547 -20.638   7.390  0.00  0.00    +0.298 C 
ATOM      2  N   LIG    1       29.251 -19.893   8.159  0.00  0.00    -0.076 NA
ENDROOT
BRANCH   2   3
ATOM      3  S   LIG    1       30.456 -19.004   7.544  0.00  0.00    +0.103 S 
ATOM      4  O   LIG    1       29.947 -18.003   6.619  0.00  0.00    -0.146 OA
ATOM      5  O   LIG    1       31.565 -19.858   7.172  0.00  0.00    -0.146 OA
BRANCH   3   6
ATOM      6  C   LIG    1       30.989 -18.075   8.980  0.00  0.00    +0.113 A 
ATOM      7  C   LIG    1       30.135 -17.979  10.083  0.00  0.00    +0.029 A 
ATOM      8  C   LIG    1       30.539 -17.260  11.209  0.00  0.00    +0.005 A 
ATOM      9  C   LIG    1       31.790 -16.631  11.238  0.00  0.00    -0.050 A 
ATOM     10  C   LIG    1       32.219 -15.891  12.472  0.00  0.00    +0.044 C 
ATOM     11  C   LIG    1       32.627 -16.714  10.116  0.00  0.00    +0.005 A 
ATOM     12  C   LIG    1       32.228 -17.431   8.983  0.00  0.00    +0.029 A 
ENDBRANCH   3   6
ENDBRANCH   2   3
BRANCH   1  13
ATOM     13  N   LIG    1       27.488 -21.408   7.760  0.00  0.00    -0.298 N 
ATOM     14  H   LIG    1       27.406 -22.283   7.257  0.00  0.00    +0.150 HD
BRANCH  13  15
ATOM     15  C   LIG    1       26.201 -20.816   8.093  0.00  0.00    +0.106 C 
BRANCH  15  16
ATOM     16  C   LIG    1       25.317 -20.730   6.846  0.00  0.00    +0.018 C 
BRANCH  16  18
ATOM     17  C   LIG    1       22.967 -20.340   6.011  0.00  0.00    +0.004 C 
ATOM     18  C   LIG    1       23.824 -20.796   7.179  0.00  0.00    -0.002 C 
ENDBRANCH  16  18
ENDBRANCH  15  16
ENDBRANCH  13  15
ENDBRANCH   1  13
BRANCH   1  19
ATOM     19  O   LIG    1       28.771 -20.754   6.075  0.00  0.00    -0.481 OA
ATOM     20  H   LIG    1       29.715 -20.846   5.886  0.00  0.00    +0.295 HD
ENDBRANCH   1  19
TORSDOF 7
ENDMDL
MODEL 3
REMARK VINA RESULT:      -7.6      2.465      3.541
REMARK  Name = *****
REMARK                            x       y       z     vdW  Elec       q    Type
REMARK                         _______ _______ _______ _____ _____    ______ ____
ROOT
ATOM      1  C   LIG    1       30.835 -18.622   9.415  0.00  0.00    +0.298 C 
ATOM      2  N   LIG    1       29.740 -18.950   8.837  0.00  0.00    -0.076 NA
ENDROOT
BRANCH   2   3
ATOM      3  S   LIG    1       29.710 -20.205   7.814  0.00  0.00    +0.103 S 
ATOM      4  O   LIG    1       30.082 -21.438   8.488  0.00  0.00    -0.146 OA
ATOM      5  O   LIG    1       30.326 -19.836   6.555  0.00  0.00    -0.146 OA
BRANCH   3   6
ATOM      6  C   LIG    1       27.955 -20.367   7.491  0.00  0.00    +0.113 A 
ATOM      7  C   LIG    1       27.080 -20.548   8.568  0.00  0.00    +0.029 A 
ATOM      8  C   LIG    1       25.711 -20.674   8.331  0.00  0.00    +0.005 A 
ATOM      9  C   LIG    1       25.209 -20.625   7.023  0.00  0.00    -0.050 A 
ATOM     10  C   LIG    1       23.729 -20.729   6.793  0.00  0.00    +0.044 C 
ATOM     11  C   LIG    1       26.100 -20.469   5.952  0.00  0.00    +0.005 A 
ATOM     12  C   LIG    1       27.474 -20.344   6.180  0.00  0.00    +0.029 A 
ENDBRANCH   3   6
ENDBRANCH   2   3
BRANCH   1  13
ATOM     13  N   LIG    1       31.001 -17.618  10.320  0.00  0.00    -0.298 N 
ATOM     14  H   LIG    1       30.139 -17.224  10.675  0.00  0.00    +0.150 HD
BRANCH  13  15
ATOM     15  C   LIG    1       32.064 -16.636  10.174  0.00  0.00    +0.106 C 
BRANCH  15  16
ATOM     16  C   LIG    1       32.784 -16.431  11.509  0.00  0.00    +0.018 C 
BRANCH  16  18
ATOM     17  C   LIG    1       32.449 -16.193  14.000  0.00  0.00    +0.004 C 
ATOM     18  C   LIG    1       31.834 -15.989  12.626  0.00  0.00    -0.002 C 
ENDBRANCH  16  18
ENDBRANCH  15  16
ENDBRANCH  13  15
ENDBRANCH   1  13
BRANCH   1  19
ATOM     19  O   LIG    1       31.997 -19.250   9.198  0.00  0.00    -0.481 OA
ATOM     20  H   LIG    1       32.105 -19.476   8.265  0.00  0.00    +0.295 HD
ENDBRANCH   1  19
TORSDOF 7
ENDMDL
MODEL 4
REMARK VINA RESULT:      -7.4      2.782      3.519
REMARK  Name = *****
REMARK                            x       y       z     vdW  Elec       q    Type
REMARK                         _______ _______ _______ _____ _____    ______ ____
ROOT
ATOM      1  C   LIG    1       27.280 -20.267   7.219  0.00  0.00    +0.298 C 
ATOM      2  N   LIG    1       26.099 -20.553   6.814  0.00  0.00    -0.076 NA
ENDROOT
BRANCH   2   3
ATOM      3  S   LIG    1       25.012 -21.157   7.852  0.00  0.00    +0.103 S 
ATOM      4  O   LIG    1       23.704 -20.553   7.649  0.00  0.00    -0.146 OA
ATOM      5  O   LIG    1       25.587 -21.246   9.179  0.00  0.00    -0.146 OA
BRANCH   3   6
ATOM      6  C   LIG    1       24.841 -22.839   7.259  0.00  0.00    +0.113 A 
ATOM      7  C   LIG    1       23.573 -23.307   6.898  0.00  0.00    +0.029 A 
ATOM      8  C   LIG    1       23.426 -24.614   6.433  0.00  0.00    +0.005 A 
ATOM      9  C   LIG    1       24.538 -25.460   6.330  0.00  0.00    -0.050 A 
ATOM     10  C   LIG    1       24.363 -26.852   5.795  0.00  0.00    +0.044 C 
ATOM     11  C   LIG    1       25.799 -24.986   6.719  0.00  0.00    +0.005 A 
ATOM     12  C   LIG    1       25.955 -23.678   7.188  0.00  0.00    +0.029 A 
ENDBRANCH   3   6
ENDBRANCH   2   3
BRANCH   1  13
ATOM     13  N   LIG    1       28.280 -19.724   6.472  0.00  0.00    -0.298 N 
ATOM     14  H   LIG    1       28.066 -19.626   5.487  0.00  0.00    +0.150 HD
BRANCH  13  15
ATOM     15  C   LIG    1       29.676 -20.049   6.726  0.00  0.00    +0.106 C 
BRANCH  15  16
ATOM     16  C   LIG    1       30.454 -18.786   7.102  0.00  0.00    +0.018 C 
BRANCH  16  18
ATOM     17  C   LIG    1       30.194 -17.759   9.394  0.00  0.00    +0.004 C 
ATOM     18  C   LIG    1       30.923 -18.798   8.560  0.00  0.00    -0.002 C 
ENDBRANCH  16  18
ENDBRANCH  15  16
ENDBRANCH  13  15
ENDBRANCH   1  13
BRANCH   1  19
ATOM     19  O   LIG    1       27.694 -20.469   8.476  0.00  0.00    -0.481 OA
ATOM     20  H   LIG    1       28.188 -19.708   8.810  0.00  0.00    +0.295 HD
ENDBRANCH   1  19
TORSDOF 7
ENDMDL
MODEL 5
REMARK VINA RESULT:      -7.4      2.825      3.866
REMARK  Name = *****
REMARK                            x       y       z     vdW  Elec       q    Type
REMARK                         _______ _______ _______ _____ _____    ______ ____
ROOT
ATOM      1  C   LIG    1       26.772 -20.447   6.110  0.00  0.00    +0.298 C 
ATOM      2  N   LIG    1       26.800 -20.796   7.342  0.00  0.00    -0.076 NA
ENDROOT
BRANCH   2   3
ATOM      3  S   LIG    1       25.425 -21.182   8.105  0.00  0.00    +0.103 S 
ATOM      4  O   LIG    1       24.331 -20.327   7.675  0.00  0.00    -0.146 OA
ATOM      5  O   LIG    1       25.683 -21.399   9.515  0.00  0.00    -0.146 OA
BRANCH   3   6
ATOM      6  C   LIG    1       25.060 -22.789   7.402  0.00  0.00    +0.113 A 
ATOM      7  C   LIG    1       26.106 -23.694   7.195  0.00  0.00    +0.029 A 
ATOM      8  C   LIG    1       25.835 -24.949   6.650  0.00  0.00    +0.005 A 
ATOM      9  C   LIG    1       24.525 -25.305   6.304  0.00  0.00    -0.050 A 
ATOM     10  C   LIG    1       24.250 -26.673   5.750  0.00  0.00    +0.044 C 
ATOM     11  C   LIG    1       23.489 -24.379   6.493  0.00  0.00    +0.005 A 
ATOM     12  C   LIG    1       23.753 -23.118   7.037  0.00  0.00    +0.029 A 
ENDBRANCH   3   6
ENDBRANCH   2   3
BRANCH   1  13
ATOM     13  N   LIG    1       27.845 -20.130   5.335  0.00  0.00    -0.298 N 
ATOM     14  H   LIG    1       28.377 -20.926   5.005  0.00  0.00    +0.150 HD
BRANCH  13  15
ATOM     15  C   LIG    1       28.673 -18.969   5.626  0.00  0.00    +0.106 C 
BRANCH  15  16
ATOM     16  C   LIG    1       29.905 -19.385   6.434  0.00  0.00    +0.018 C 
BRANCH  16  18
ATOM     17  C   LIG    1       31.042 -19.143   8.676  0.00  0.00    +0.004 C 
ATOM     18  C   LIG    1       30.147 -18.478   7.643  0.00  0.00    -0.002 C 
ENDBRANCH  16  18
ENDBRANCH  15  16
ENDBRANCH  13  15
ENDBRANCH   1  13
BRANCH   1  19
ATOM     19  O   LIG    1       25.641 -20.349   5.401  0.00  0.00    -0.481 OA
ATOM     20  H   LIG    1       25.261 -21.220   5.223  0.00  0.00    +0.295 HD
ENDBRANCH   1  19
TORSDOF 7
ENDMDL
MODEL 6
REMARK VINA RESULT:      -7.3      4.005      7.024
REMARK  Name = *****
REMARK                            x       y       z     vdW  Elec       q    Type
REMARK                         _______ _______ _______ _____ _____    ______ ____
ROOT
ATOM      1  C   LIG    1       23.849 -23.794   6.276  0.00  0.00    +0.298 C 
ATOM      2  N   LIG    1       24.807 -22.945   6.312  0.00  0.00    -0.076 NA
ENDROOT
BRANCH   2   3
ATOM      3  S   LIG    1       24.540 -21.448   6.869  0.00  0.00    +0.103 S 
ATOM      4  O   LIG    1       24.210 -21.469   8.285  0.00  0.00    -0.146 OA
ATOM      5  O   LIG    1       23.723 -20.706   5.930  0.00  0.00    -0.146 OA
BRANCH   3   6
ATOM      6  C   LIG    1       26.182 -20.734   6.789  0.00  0.00    +0.113 A 
ATOM      7  C   LIG    1       26.658 -20.261   5.562  0.00  0.00    +0.029 A 
ATOM      8  C   LIG    1       27.933 -19.702   5.485  0.00  0.00    +0.005 A 
ATOM      9  C   LIG    1       28.740 -19.615   6.628  0.00  0.00    -0.050 A 
ATOM     10  C   LIG    1       30.096 -18.978   6.531  0.00  0.00    +0.044 C 
ATOM     11  C   LIG    1       28.260 -20.116   7.846  0.00  0.00    +0.005 A 
ATOM     12  C   LIG    1       26.984 -20.681   7.931  0.00  0.00    +0.029 A 
ENDBRANCH   3   6
ENDBRANCH   2   3
BRANCH   1  13
ATOM     13  N   LIG    1       23.934 -25.090   5.867  0.00  0.00    -0.298 N 
ATOM     14  H   LIG    1       23.699 -25.773   6.577  0.00  0.00    +0.150 HD
BRANCH  13  15
ATOM     15  C   LIG    1       24.993 -25.534   4.973  0.00  0.00    +0.106 C 
BRANCH  15  16
ATOM     16  C   LIG    1       25.843 -26.612   5.651  0.00  0.00    +0.018 C 
BRANCH  16  18
ATOM     17  C   LIG    1       24.369 -28.661   5.622  0.00  0.00    +0.004 C 
ATOM     18  C   LIG    1       25.003 -27.583   6.485  0.00  0.00    -0.002 C 
ENDBRANCH  16  18
ENDBRANCH  15  16
ENDBRANCH  13  15
ENDBRANCH   1  13
BRANCH   1  19
ATOM     19  O   LIG    1       22.597 -23.506   6.652  0.00  0.00    -0.481 OA
ATOM     20  H   LIG    1       22.061 -23.222   5.899  0.00  0.00    +0.295 HD
ENDBRANCH   1  19
TORSDOF 7
ENDMDL
MODEL 7
REMARK VINA RESULT:      -7.2      2.359      6.284
REMARK  Name = *****
REMARK                            x       y       z     vdW  Elec       q    Type
REMARK                         _______ _______ _______ _____ _____    ______ ____
ROOT
ATOM      1  C   LIG    1       23.716 -20.920   6.964  0.00  0.00    +0.298 C 
ATOM      2  N   LIG    1       24.990 -20.798   6.903  0.00  0.00    -0.076 NA
ENDROOT
BRANCH   2   3
ATOM      3  S   LIG    1       25.937 -21.743   7.815  0.00  0.00    +0.103 S 
ATOM      4  O   LIG    1       26.029 -23.083   7.259  0.00  0.00    -0.146 OA
ATOM      5  O   LIG    1       25.635 -21.544   9.218  0.00  0.00    -0.146 OA
BRANCH   3   6
ATOM      6  C   LIG    1       27.551 -21.015   7.535  0.00  0.00    +0.113 A 
ATOM      7  C   LIG    1       27.695 -20.048   6.535  0.00  0.00    +0.029 A 
ATOM      8  C   LIG    1       28.946 -19.472   6.308  0.00  0.00    +0.005 A 
ATOM      9  C   LIG    1       30.056 -19.860   7.071  0.00  0.00    -0.050 A 
ATOM     10  C   LIG    1       31.384 -19.204   6.833  0.00  0.00    +0.044 C 
ATOM     11  C   LIG    1       29.901 -20.849   8.052  0.00  0.00    +0.005 A 
ATOM     12  C   LIG    1       28.652 -21.433   8.285  0.00  0.00    +0.029 A 
ENDBRANCH   3   6
ENDBRANCH   2   3
BRANCH   1  13
ATOM     13  N   LIG    1       22.802 -20.222   6.235  0.00  0.00    -0.298 N 
ATOM     14  H   LIG    1       21.901 -20.110   6.683  0.00  0.00    +0.150 HD
BRANCH  13  15
ATOM     15  C   LIG    1       22.711 -20.375   4.790  0.00  0.00    +0.106 C 
BRANCH  15  16
ATOM     16  C   LIG    1       23.336 -19.167   4.088  0.00  0.00    +0.018 C 
BRANCH  16  18
ATOM     17  C   LIG    1       25.538 -18.153   3.382  0.00  0.00    +0.004 C 
ATOM     18  C   LIG    1       24.765 -19.441   3.611  0.00  0.00    -0.002 C 
ENDBRANCH  16  18
ENDBRANCH  15  16
ENDBRANCH  13  15
ENDBRANCH   1  13
BRANCH   1  19
ATOM     19  O   LIG    1       23.099 -21.783   7.780  0.00  0.00    -0.481 OA
ATOM     20  H   LIG    1       22.615 -22.454   7.280  0.00  0.00    +0.295 HD
ENDBRANCH   1  19
TORSDOF 7
ENDMDL
MODEL 8
REMARK VINA RESULT:      -7.1      1.629      7.083
REMARK  Name = *****
REMARK                            x       y       z     vdW  Elec       q    Type
REMARK                         _______ _______ _______ _____ _____    ______ ____
ROOT
ATOM      1  C   LIG    1       26.926 -20.849   7.986  0.00  0.00    +0.298 C 
ATOM      2  N   LIG    1       27.894 -20.075   8.309  0.00  0.00    -0.076 NA
ENDROOT
BRANCH   2   3
ATOM      3  S   LIG    1       29.377 -20.344   7.717  0.00  0.00    +0.103 S 
ATOM      4  O   LIG    1       29.423 -20.089   6.286  0.00  0.00    -0.146 OA
ATOM      5  O   LIG    1       29.917 -21.571   8.267  0.00  0.00    -0.146 OA
BRANCH   3   6
ATOM      6  C   LIG    1       30.310 -19.003   8.455  0.00  0.00    +0.113 A 
ATOM      7  C   LIG    1       29.705 -18.216   9.439  0.00  0.00    +0.029 A 
ATOM      8  C   LIG    1       30.420 -17.170  10.023  0.00  0.00    +0.005 A 
ATOM      9  C   LIG    1       31.737 -16.901   9.626  0.00  0.00    -0.050 A 
ATOM     10  C   LIG    1       32.500 -15.793  10.290  0.00  0.00    +0.044 C 
ATOM     11  C   LIG    1       32.322 -17.683   8.619  0.00  0.00    +0.005 A 
ATOM     12  C   LIG    1       31.611 -18.732   8.027  0.00  0.00    +0.029 A 
ENDBRANCH   3   6
ENDBRANCH   2   3
BRANCH   1  13
ATOM     13  N   LIG    1       25.628 -20.724   8.376  0.00  0.00    -0.298 N 
ATOM     14  H   LIG    1       25.494 -20.641   9.376  0.00  0.00    +0.150 HD
BRANCH  13  15
ATOM     15  C   LIG    1       24.564 -21.465   7.714  0.00  0.00    +0.106 C 
BRANCH  15  16
ATOM     16  C   LIG    1       23.474 -20.506   7.227  0.00  0.00    +0.018 C 
BRANCH  16  18
ATOM     17  C   LIG    1       22.535 -19.509   5.106  0.00  0.00    +0.004 C 
ATOM     18  C   LIG    1       23.074 -20.764   5.772  0.00  0.00    -0.002 C 
ENDBRANCH  16  18
ENDBRANCH  15  16
ENDBRANCH  13  15
ENDBRANCH   1  13
BRANCH   1  19
ATOM     19  O   LIG    1       27.073 -21.915   7.190  0.00  0.00    -0.481 OA
ATOM     20  H   LIG    1       26.218 -22.302   6.960  0.00  0.00    +0.295 HD
ENDBRANCH   1  19
TORSDOF 7
ENDMDL
MODEL 9
REMARK VINA RESULT:      -7.0      2.888      3.920
REMARK  Name = *****
REMARK                            x       y       z     vdW  Elec       q    Type
REMARK                         _______ _______ _______ _____ _____    ______ ____
ROOT
ATOM      1  C   LIG    1       26.726 -20.448   7.978  0.00  0.00    +0.298 C 
ATOM      2  N   LIG    1       26.119 -20.547   6.854  0.00  0.00    -0.076 NA
ENDROOT
BRANCH   2   3
ATOM      3  S   LIG    1       24.544 -20.922   6.815  0.00  0.00    +0.103 S 
ATOM      4  O   LIG    1       23.930 -20.472   5.576  0.00  0.00    -0.146 OA
ATOM      5  O   LIG    1       23.931 -20.626   8.094  0.00  0.00    -0.146 OA
BRANCH   3   6
ATOM      6  C   LIG    1       24.601 -22.708   6.680  0.00  0.00    +0.113 A 
ATOM      7  C   LIG    1       25.844 -23.344   6.606  0.00  0.00    +0.029 A 
ATOM      8  C   LIG    1       25.903 -24.735   6.503  0.00  0.00    +0.005 A 
ATOM      9  C   LIG    1       24.726 -25.494   6.467  0.00  0.00    -0.050 A 
ATOM     10  C   LIG    1       24.811 -26.991   6.389  0.00  0.00    +0.044 C 
ATOM     11  C   LIG    1       23.486 -24.841   6.516  0.00  0.00    +0.005 A 
ATOM     12  C   LIG    1       23.418 -23.448   6.617  0.00  0.00    +0.029 A 
ENDBRANCH   3   6
ENDBRANCH   2   3
BRANCH   1  13
ATOM     13  N   LIG    1       28.030 -20.108   8.164  0.00  0.00    -0.298 N 
ATOM     14  H   LIG    1       28.177 -19.167   8.506  0.00  0.00    +0.150 HD
BRANCH  13  15
ATOM     15  C   LIG    1       29.067 -20.551   7.243  0.00  0.00    +0.106 C 
BRANCH  15  16
ATOM     16  C   LIG    1       30.393 -19.857   7.563  0.00  0.00    +0.018 C 
BRANCH  16  18
ATOM     17  C   LIG    1       31.472 -17.907   8.750  0.00  0.00    +0.004 C 
ATOM     18  C   LIG    1       30.196 -18.446   8.125  0.00  0.00    -0.002 C 
ENDBRANCH  16  18
ENDBRANCH  15  16
ENDBRANCH  13  15
ENDBRANCH   1  13
BRANCH   1  19
ATOM     19  O   LIG    1       26.130 -20.671   9.156  0.00  0.00    -0.481 OA
ATOM     20  H   LIG    1       26.001 -21.616   9.311  0.00  0.00    +0.295 HD
ENDBRANCH   1  19
TORSDOF 7
ENDMDL
