MODEL 1
REMARK VINA RESULT:      -6.0      0.000      0.000
REMARK  Name = *****
REMARK                            x       y       z     vdW  Elec       q    Type
REMARK                         _______ _______ _______ _____ _____    ______ ____
ROOT
ATOM      1  C   LIG    1       24.120 -25.605   6.108  0.00  0.00    +0.069 C 
ATOM      2  C   LIG    1       24.588 -24.265   6.594  0.00  0.00    +0.080 A 
ATOM      3  C   LIG    1       23.705 -23.185   6.675  0.00  0.00    +0.143 A 
ATOM      4  C   LIG    1       24.156 -21.940   7.149  0.00  0.00    +0.028 A 
ATOM      5  C   LIG    1       25.516 -21.830   7.508  0.00  0.00    +0.005 A 
ATOM      6  C   LIG    1       26.317 -22.966   7.392  0.00  0.00    +0.117 A 
ATOM      7  N   LIG    1       25.889 -24.169   6.953  0.00  0.00    -0.256 NA
ENDROOT
BRANCH   3   8
ATOM      8  O   LIG    1       22.405 -23.377   6.294  0.00  0.00    -0.505 OA
ATOM      9  H   LIG    1       21.851 -23.142   7.072  0.00  0.00    +0.292 HD
ENDBRANCH   3   8
BRANCH   4  10
ATOM     10  C   LIG    1       23.257 -20.728   7.194  0.00  0.00    +0.195 C 
BRANCH  10  11
ATOM     11  O   LIG    1       22.789 -20.380   5.887  0.00  0.00    -0.390 OA
ATOM     12  H   LIG    1       22.052 -20.988   5.699  0.00  0.00    +0.210 HD
ENDBRANCH  10  11
ENDBRANCH   4  10
BRANCH   5  13
ATOM     13  C   LIG    1       26.135 -20.563   8.031  0.00  0.00    +0.193 C 
BRANCH  13  14
ATOM     14  O   LIG    1       25.953 -20.483   9.437  0.00  0.00    -0.390 OA
ATOM     15  H   LIG    1       25.006 -20.316   9.588  0.00  0.00    +0.210 HD
ENDBRANCH  13  14
ENDBRANCH   5  13
TORSDOF 5
ENDMDL
MODEL 2
REMARK VINA RESULT:      -5.9      2.839      4.468
REMARK  Name = *****
REMARK                            x       y       z     vdW  Elec       q    Type
REMARK                         _______ _______ _______ _____ _____    ______ ____
ROOT
ATOM      1  C   LIG    1       27.222 -20.822   7.957  0.00  0.00    +0.069 C 
ATOM      2  C   LIG    1       25.975 -20.679   7.136  0.00  0.00    +0.080 A 
ATOM      3  C   LIG    1       26.047 -20.405   5.768  0.00  0.00    +0.143 A 
ATOM      4  C   LIG    1       24.868 -20.290   5.008  0.00  0.00    +0.028 A 
ATOM      5  C   LIG    1       23.638 -20.439   5.682  0.00  0.00    +0.005 A 
ATOM      6  C   LIG    1       23.671 -20.712   7.051  0.00  0.00    +0.117 A 
ATOM      7  N   LIG    1       24.798 -20.839   7.784  0.00  0.00    -0.256 NA
ENDROOT
BRANCH   3   8
ATOM      8  O   LIG    1       27.282 -20.263   5.195  0.00  0.00    -0.505 OA
ATOM      9  H   LIG    1       27.332 -20.931   4.477  0.00  0.00    +0.292 HD
ENDBRANCH   3   8
BRANCH   4  10
ATOM     10  C   LIG    1       24.893 -19.932   3.542  0.00  0.00    +0.195 C 
BRANCH  10  11
ATOM     11  O   LIG    1       25.691 -18.768   3.305  0.00  0.00    -0.390 OA
ATOM     12  H   LIG    1       26.590 -18.999   3.600  0.00  0.00    +0.210 HD
ENDBRANCH  10  11
ENDBRANCH   4  10
BRANCH   5  13
ATOM     13  C   LIG    1       22.301 -20.344   5.000  0.00  0.00    +0.193 C 
BRANCH  13  14
ATOM     14  O   LIG    1       21.715 -21.635   4.909  0.00  0.00    -0.390 OA
ATOM     15  H   LIG    1       21.979 -22.003   4.048  0.00  0.00    +0.210 HD
ENDBRANCH  13  14
ENDBRANCH   5  13
TORSDOF 5
ENDMDL
MODEL 3
REMARK VINA RESULT:      -5.9      2.851      4.367
REMARK  Name = *****
REMARK                            x       y       z     vdW  Elec       q    Type
REMARK                         _______ _______ _______ _____ _____    ______ ____
ROOT
ATOM      1  C   LIG    1       29.239 -20.141   7.665  0.00  0.00    +0.069 C 
ATOM      2  C   LIG    1       27.770 -20.317   7.413  0.00  0.00    +0.080 A 
ATOM      3  C   LIG    1       27.261 -20.300   6.112  0.00  0.00    +0.143 A 
ATOM      4  C   LIG    1       25.884 -20.483   5.891  0.00  0.00    +0.028 A 
ATOM      5  C   LIG    1       25.057 -20.656   7.021  0.00  0.00    +0.005 A 
ATOM      6  C   LIG    1       25.661 -20.658   8.279  0.00  0.00    +0.117 A 
ATOM      7  N   LIG    1       26.984 -20.499   8.498  0.00  0.00    -0.256 NA
ENDROOT
BRANCH   3   8
ATOM      8  O   LIG    1       28.133 -20.114   5.073  0.00  0.00    -0.505 OA
ATOM      9  H   LIG    1       27.955 -19.214   4.721  0.00  0.00    +0.292 HD
ENDBRANCH   3   8
BRANCH   4  10
ATOM     10  C   LIG    1       25.278 -20.409   4.510  0.00  0.00    +0.195 C 
BRANCH  10  11
ATOM     11  O   LIG    1       25.825 -19.319   3.761  0.00  0.00    -0.390 OA
ATOM     12  H   LIG    1       26.674 -19.639   3.408  0.00  0.00    +0.210 HD
ENDBRANCH  10  11
ENDBRANCH   4  10
BRANCH   5  13
ATOM     13  C   LIG    1       23.570 -20.864   6.936  0.00  0.00    +0.193 C 
BRANCH  13  14
ATOM     14  O   LIG    1       23.143 -21.718   7.987  0.00  0.00    -0.390 OA
ATOM     15  H   LIG    1       23.947 -22.037   8.434  0.00  0.00    +0.210 HD
ENDBRANCH  13  14
ENDBRANCH   5  13
TORSDOF 5
ENDMDL
MODEL 4
REMARK VINA RESULT:      -5.8      2.726      3.768
REMARK  Name = *****
REMARK                            x       y       z     vdW  Elec       q    Type
REMARK                         _______ _______ _______ _____ _____    ______ ____
ROOT
ATOM      1  C   LIG    1       22.418 -20.845   5.344  0.00  0.00    +0.069 C 
ATOM      2  C   LIG    1       23.888 -20.670   5.590  0.00  0.00    +0.080 A 
ATOM      3  C   LIG    1       24.457 -21.031   6.814  0.00  0.00    +0.143 A 
ATOM      4  C   LIG    1       25.839 -20.876   7.023  0.00  0.00    +0.028 A 
ATOM      5  C   LIG    1       26.603 -20.330   5.970  0.00  0.00    +0.005 A 
ATOM      6  C   LIG    1       25.942 -20.001   4.786  0.00  0.00    +0.117 A 
ATOM      7  N   LIG    1       24.619 -20.161   4.571  0.00  0.00    -0.256 NA
ENDROOT
BRANCH   3   8
ATOM      8  O   LIG    1       23.640 -21.543   7.786  0.00  0.00    -0.505 OA
ATOM      9  H   LIG    1       23.609 -20.872   8.503  0.00  0.00    +0.292 HD
ENDBRANCH   3   8
BRANCH   4  10
ATOM     10  C   LIG    1       26.488 -21.192   8.349  0.00  0.00    +0.195 C 
BRANCH  10  11
ATOM     11  O   LIG    1       25.866 -20.470   9.416  0.00  0.00    -0.390 OA
ATOM     12  H   LIG    1       26.593 -20.066   9.923  0.00  0.00    +0.210 HD
ENDBRANCH  10  11
ENDBRANCH   4  10
BRANCH   5  13
ATOM     13  C   LIG    1       28.088 -20.109   6.051  0.00  0.00    +0.193 C 
BRANCH  13  14
ATOM     14  O   LIG    1       28.474 -19.094   5.135  0.00  0.00    -0.390 OA
ATOM     15  H   LIG    1       29.375 -19.311   4.839  0.00  0.00    +0.210 HD
ENDBRANCH  13  14
ENDBRANCH   5  13
TORSDOF 5
ENDMDL
MODEL 5
REMARK VINA RESULT:      -5.6      2.279      3.158
REMARK  Name = *****
REMARK                            x       y       z     vdW  Elec       q    Type
REMARK                         _______ _______ _______ _____ _____    ______ ____
ROOT
ATOM      1  C   LIG    1       24.807 -19.748   3.225  0.00  0.00    +0.069 C 
ATOM      2  C   LIG    1       25.013 -20.301   4.605  0.00  0.00    +0.080 A 
ATOM      3  C   LIG    1       24.015 -21.053   5.230  0.00  0.00    +0.143 A 
ATOM      4  C   LIG    1       24.231 -21.579   6.517  0.00  0.00    +0.028 A 
ATOM      5  C   LIG    1       25.465 -21.300   7.140  0.00  0.00    +0.005 A 
ATOM      6  C   LIG    1       26.397 -20.540   6.433  0.00  0.00    +0.117 A 
ATOM      7  N   LIG    1       26.205 -20.044   5.192  0.00  0.00    -0.256 NA
ENDROOT
BRANCH   3   8
ATOM      8  O   LIG    1       22.842 -21.267   4.558  0.00  0.00    -0.505 OA
ATOM      9  H   LIG    1       22.218 -20.573   4.863  0.00  0.00    +0.292 HD
ENDBRANCH   3   8
BRANCH   4  10
ATOM     10  C   LIG    1       23.160 -22.343   7.258  0.00  0.00    +0.195 C 
BRANCH  10  11
ATOM     11  O   LIG    1       22.688 -23.454   6.490  0.00  0.00    -0.390 OA
ATOM     12  H   LIG    1       21.887 -23.770   6.945  0.00  0.00    +0.210 HD
ENDBRANCH  10  11
ENDBRANCH   4  10
BRANCH   5  13
ATOM     13  C   LIG    1       25.833 -21.797   8.510  0.00  0.00    +0.193 C 
BRANCH  13  14
ATOM     14  O   LIG    1       25.877 -20.708   9.422  0.00  0.00    -0.390 OA
ATOM     15  H   LIG    1       25.623 -21.061  10.293  0.00  0.00    +0.210 HD
ENDBRANCH  13  14
ENDBRANCH   5  13
TORSDOF 5
ENDMDL
MODEL 6
REMARK VINA RESULT:      -5.6      4.285      5.446
REMARK  Name = *****
REMARK                            x       y       z     vdW  Elec       q    Type
REMARK                         _______ _______ _______ _____ _____    ______ ____
ROOT
ATOM      1  C   LIG    1       26.439 -21.968   6.966  0.00  0.00    +0.069 C 
ATOM      2  C   LIG    1       27.733 -21.227   7.132  0.00  0.00    +0.080 A 
ATOM      3  C   LIG    1       28.147 -20.289   6.183  0.00  0.00    +0.143 A 
ATOM      4  C   LIG    1       29.354 -19.590   6.362  0.00  0.00    +0.028 A 
ATOM      5  C   LIG    1       30.121 -19.890   7.507  0.00  0.00    +0.005 A 
ATOM      6  C   LIG    1       29.622 -20.842   8.397  0.00  0.00    +0.117 A 
ATOM      7  N   LIG    1       28.457 -21.507   8.240  0.00  0.00    -0.256 NA
ENDROOT
BRANCH   3   8
ATOM      8  O   LIG    1       27.347 -20.067   5.094  0.00  0.00    -0.505 OA
ATOM      9  H   LIG    1       27.590 -20.749   4.429  0.00  0.00    +0.292 HD
ENDBRANCH   3   8
BRANCH   4  10
ATOM     10  C   LIG    1       29.874 -18.615   5.333  0.00  0.00    +0.195 C 
BRANCH  10  11
ATOM     11  O   LIG    1       28.810 -17.848   4.760  0.00  0.00    -0.390 OA
ATOM     12  H   LIG    1       28.191 -17.668   5.490  0.00  0.00    +0.210 HD
ENDBRANCH  10  11
ENDBRANCH   4  10
BRANCH   5  13
ATOM     13  C   LIG    1       31.429 -19.222   7.828  0.00  0.00    +0.193 C 
BRANCH  13  14
ATOM     14  O   LIG    1       31.939 -19.726   9.054  0.00  0.00    -0.390 OA
ATOM     15  H   LIG    1       31.282 -19.514   9.740  0.00  0.00    +0.210 HD
ENDBRANCH  13  14
ENDBRANCH   5  13
TORSDOF 5
ENDMDL
MODEL 7
REMARK VINA RESULT:      -5.5      1.823      1.839
REMARK  Name = *****
REMARK                            x       y       z     vdW  Elec       q    Type
REMARK                         _______ _______ _______ _____ _____    ______ ____
ROOT
ATOM      1  C   LIG    1       24.829 -25.314   5.366  0.00  0.00    +0.069 C 
ATOM      2  C   LIG    1       25.193 -24.009   6.012  0.00  0.00    +0.080 A 
ATOM      3  C   LIG    1       25.004 -22.800   5.337  0.00  0.00    +0.143 A 
ATOM      4  C   LIG    1       25.335 -21.585   5.963  0.00  0.00    +0.028 A 
ATOM      5  C   LIG    1       25.876 -21.644   7.265  0.00  0.00    +0.005 A 
ATOM      6  C   LIG    1       26.026 -22.901   7.853  0.00  0.00    +0.117 A 
ATOM      7  N   LIG    1       25.696 -24.071   7.266  0.00  0.00    -0.256 NA
ENDROOT
BRANCH   3   8
ATOM      8  O   LIG    1       24.485 -22.834   4.071  0.00  0.00    -0.505 OA
ATOM      9  H   LIG    1       24.255 -23.772   3.891  0.00  0.00    +0.292 HD
ENDBRANCH   3   8
BRANCH   4  10
ATOM     10  C   LIG    1       25.209 -20.259   5.252  0.00  0.00    +0.195 C 
BRANCH  10  11
ATOM     11  O   LIG    1       26.096 -20.184   4.132  0.00  0.00    -0.390 OA
ATOM     12  H   LIG    1       26.649 -19.397   4.283  0.00  0.00    +0.210 HD
ENDBRANCH  10  11
ENDBRANCH   4  10
BRANCH   5  13
ATOM     13  C   LIG    1       26.273 -20.428   8.054  0.00  0.00    +0.193 C 
BRANCH  13  14
ATOM     14  O   LIG    1       25.914 -20.601   9.418  0.00  0.00    -0.390 OA
ATOM     15  H   LIG    1       26.514 -20.039   9.939  0.00  0.00    +0.210 HD
ENDBRANCH  13  14
ENDBRANCH   5  13
TORSDOF 5
ENDMDL
MODEL 8
REMARK VINA RESULT:      -5.5      3.134      4.075
REMARK  Name = *****
REMARK                            x       y       z     vdW  Elec       q    Type
REMARK                         _______ _______ _______ _____ _____    ______ ____
ROOT
ATOM      1  C   LIG    1       23.552 -19.633   3.703  0.00  0.00    +0.069 C 
ATOM      2  C   LIG    1       24.157 -20.131   4.983  0.00  0.00    +0.080 A 
ATOM      3  C   LIG    1       25.543 -20.241   5.123  0.00  0.00    +0.143 A 
ATOM      4  C   LIG    1       26.095 -20.693   6.335  0.00  0.00    +0.028 A 
ATOM      5  C   LIG    1       25.204 -21.044   7.370  0.00  0.00    +0.005 A 
ATOM      6  C   LIG    1       23.836 -20.899   7.132  0.00  0.00    +0.117 A 
ATOM      7  N   LIG    1       23.298 -20.451   5.977  0.00  0.00    -0.256 NA
ENDROOT
BRANCH   3   8
ATOM      8  O   LIG    1       26.336 -19.890   4.064  0.00  0.00    -0.505 OA
ATOM      9  H   LIG    1       25.863 -19.169   3.591  0.00  0.00    +0.292 HD
ENDBRANCH   3   8
BRANCH   4  10
ATOM     10  C   LIG    1       27.582 -20.890   6.513  0.00  0.00    +0.195 C 
BRANCH  10  11
ATOM     11  O   LIG    1       28.306 -19.704   6.170  0.00  0.00    -0.390 OA
ATOM     12  H   LIG    1       28.418 -19.211   7.003  0.00  0.00    +0.210 HD
ENDBRANCH  10  11
ENDBRANCH   4  10
BRANCH   5  13
ATOM     13  C   LIG    1       25.650 -21.541   8.717  0.00  0.00    +0.193 C 
BRANCH  13  14
ATOM     14  O   LIG    1       25.985 -20.439   9.549  0.00  0.00    -0.390 OA
ATOM     15  H   LIG    1       25.402 -19.705   9.291  0.00  0.00    +0.210 HD
ENDBRANCH  13  14
ENDBRANCH   5  13
TORSDOF 5
ENDMDL
MODEL 9
REMARK VINA RESULT:      -5.5      4.456      6.172
REMARK  Name = *****
REMARK                            x       y       z     vdW  Elec       q    Type
REMARK                         _______ _______ _______ _____ _____    ______ ____
ROOT
ATOM      1  C   LIG    1       28.991 -17.880   5.009  0.00  0.00    +0.069 C 
ATOM      2  C   LIG    1       29.413 -18.863   6.061  0.00  0.00    +0.080 A 
ATOM      3  C   LIG    1       28.541 -19.866   6.493  0.00  0.00    +0.143 A 
ATOM      4  C   LIG    1       28.957 -20.790   7.469  0.00  0.00    +0.028 A 
ATOM      5  C   LIG    1       30.258 -20.645   7.995  0.00  0.00    +0.005 A 
ATOM      6  C   LIG    1       31.053 -19.612   7.498  0.00  0.00    +0.117 A 
ATOM      7  N   LIG    1       30.667 -18.730   6.551  0.00  0.00    -0.256 NA
ENDROOT
BRANCH   3   8
ATOM      8  O   LIG    1       27.291 -19.927   5.939  0.00  0.00    -0.505 OA
ATOM      9  H   LIG    1       26.694 -20.272   6.639  0.00  0.00    +0.292 HD
ENDBRANCH   3   8
BRANCH   4  10
ATOM     10  C   LIG    1       28.030 -21.850   8.014  0.00  0.00    +0.195 C 
BRANCH  10  11
ATOM     11  O   LIG    1       26.955 -21.268   8.757  0.00  0.00    -0.390 OA
ATOM     12  H   LIG    1       26.792 -20.398   8.350  0.00  0.00    +0.210 HD
ENDBRANCH  10  11
ENDBRANCH   4  10
BRANCH   5  13
ATOM     13  C   LIG    1       30.837 -21.559   9.039  0.00  0.00    +0.193 C 
BRANCH  13  14
ATOM     14  O   LIG    1       32.181 -21.191   9.309  0.00  0.00    -0.390 OA
ATOM     15  H   LIG    1       32.386 -20.434   8.733  0.00  0.00    +0.210 HD
ENDBRANCH  13  14
ENDBRANCH   5  13
TORSDOF 5
ENDMDL
