MODEL 1
REMARK VINA RESULT:      -4.7      0.000      0.000
REMARK  Name = *****
REMARK                            x       y       z     vdW  Elec       q    Type
REMARK                         _______ _______ _______ _____ _____    ______ ____
ROOT
ATOM      1  CA  ASN A  1       26.282 -14.262   4.265  0.00  0.00    +0.169 C 
ENDROOT
BRANCH   1   2
ATOM      2  N   ASN A  1       26.563 -13.205   5.273  0.00  0.00    -0.318 NA
ATOM      3  H1  ASN A  1       27.208 -12.532   4.848  0.00  0.00    +0.119 HD
ATOM      4  H2  ASN A  1       25.704 -12.657   5.391  0.00  0.00    +0.119 HD
ENDBRANCH   1   2
BRANCH   1   5
ATOM      5  C   ASN A  1       27.045 -13.935   2.968  0.00  0.00    +0.322 C 
ATOM      6  O   ASN A  1       26.648 -14.262   1.851  0.00  0.00    -0.249 OA
BRANCH   5   7
ATOM      7  OXT ASN A  1       28.180 -13.229   3.148  0.00  0.00    -0.479 OA
ATOM      8  HXT ASN A  1       28.012 -12.295   3.422  0.00  0.00    +0.295 HD
ENDBRANCH   5   7
ENDBRANCH   1   5
BRANCH   1   9
ATOM      9  CB  ASN A  1       24.775 -14.329   4.021  0.00  0.00    +0.125 C 
BRANCH   9  13
ATOM     10  ND2 ASN A  1       23.889 -12.671   2.497  0.00  0.00    -0.329 N 
ATOM     11 HD21 ASN A  1       24.096 -13.296   1.729  0.00  0.00    +0.145 HD
ATOM     12 HD22 ASN A  1       23.489 -11.765   2.282  0.00  0.00    +0.145 HD
ATOM     13  CG  ASN A  1       24.201 -12.953   3.793  0.00  0.00    +0.212 C 
ATOM     14  OD1 ASN A  1       24.019 -12.139   4.692  0.00  0.00    -0.276 OA
ENDBRANCH   9  13
ENDBRANCH   1   9
TORSDOF 5
ENDMDL
MODEL 2
REMARK VINA RESULT:      -4.4      1.641      1.900
REMARK  Name = *****
REMARK                            x       y       z     vdW  Elec       q    Type
REMARK                         _______ _______ _______ _____ _____    ______ ____
ROOT
ATOM      1  CA  ASN A  1       26.619 -13.431   3.107  0.00  0.00    +0.169 C 
ENDROOT
BRANCH   1   2
ATOM      2  N   ASN A  1       26.415 -14.232   1.871  0.00  0.00    -0.318 NA
ATOM      3  H1  ASN A  1       27.196 -14.038   1.239  0.00  0.00    +0.119 HD
ATOM      4  H2  ASN A  1       26.557 -15.219   2.117  0.00  0.00    +0.119 HD
ENDBRANCH   1   2
BRANCH   1   5
ATOM      5  C   ASN A  1       27.970 -13.817   3.737  0.00  0.00    +0.322 C 
ATOM      6  O   ASN A  1       28.902 -13.025   3.873  0.00  0.00    -0.249 OA
BRANCH   5   7
ATOM      7  OXT ASN A  1       28.048 -15.096   4.159  0.00  0.00    -0.479 OA
ATOM      8  HXT ASN A  1       28.130 -15.741   3.415  0.00  0.00    +0.295 HD
ENDBRANCH   5   7
ENDBRANCH   1   5
BRANCH   1   9
ATOM      9  CB  ASN A  1       25.462 -13.695   4.069  0.00  0.00    +0.125 C 
BRANCH   9  13
ATOM     10  ND2 ASN A  1       23.794 -12.812   2.553  0.00  0.00    -0.329 N 
ATOM     11 HD21 ASN A  1       24.188 -13.386   1.819  0.00  0.00    +0.145 HD
ATOM     12 HD22 ASN A  1       23.014 -12.209   2.323  0.00  0.00    +0.145 HD
ATOM     13  CG  ASN A  1       24.315 -12.750   3.810  0.00  0.00    +0.212 C 
ATOM     14  OD1 ASN A  1       23.871 -11.980   4.656  0.00  0.00    -0.276 OA
ENDBRANCH   9  13
ENDBRANCH   1   9
TORSDOF 5
ENDMDL
MODEL 3
REMARK VINA RESULT:      -4.3      1.763      3.725
REMARK  Name = *****
REMARK                            x       y       z     vdW  Elec       q    Type
REMARK                         _______ _______ _______ _____ _____    ______ ____
ROOT
ATOM      1  CA  ASN A  1       25.299 -13.870   3.228  0.00  0.00    +0.169 C 
ENDROOT
BRANCH   1   2
ATOM      2  N   ASN A  1       26.097 -13.985   1.978  0.00  0.00    -0.318 NA
ATOM      3  H1  ASN A  1       25.882 -13.172   1.394  0.00  0.00    +0.119 HD
ATOM      4  H2  ASN A  1       27.082 -13.835   2.227  0.00  0.00    +0.119 HD
ENDBRANCH   1   2
BRANCH   1   5
ATOM      5  C   ASN A  1       24.308 -12.701   3.085  0.00  0.00    +0.322 C 
ATOM      6  O   ASN A  1       23.861 -12.074   4.044  0.00  0.00    -0.249 OA
BRANCH   5   7
ATOM      7  OXT ASN A  1       23.984 -12.392   1.812  0.00  0.00    -0.479 OA
ATOM      8  HXT ASN A  1       23.009 -12.410   1.650  0.00  0.00    +0.295 HD
ENDBRANCH   5   7
ENDBRANCH   1   5
BRANCH   1   9
ATOM      9  CB  ASN A  1       26.248 -13.653   4.406  0.00  0.00    +0.125 C 
BRANCH   9  13
ATOM     10  ND2 ASN A  1       27.855 -15.430   4.059  0.00  0.00    -0.329 N 
ATOM     11 HD21 ASN A  1       27.150 -16.096   4.346  0.00  0.00    +0.145 HD
ATOM     12 HD22 ASN A  1       28.775 -15.780   3.822  0.00  0.00    +0.145 HD
ATOM     13  CG  ASN A  1       27.652 -14.082   4.058  0.00  0.00    +0.212 C 
ATOM     14  OD1 ASN A  1       28.552 -13.294   3.789  0.00  0.00    -0.276 OA
ENDBRANCH   9  13
ENDBRANCH   1   9
TORSDOF 5
ENDMDL
MODEL 4
REMARK VINA RESULT:      -4.3      2.032      2.144
REMARK  Name = *****
REMARK                            x       y       z     vdW  Elec       q    Type
REMARK                         _______ _______ _______ _____ _____    ______ ____
ROOT
ATOM      1  CA  ASN A  1       26.719 -14.111   3.318  0.00  0.00    +0.169 C 
ENDROOT
BRANCH   1   2
ATOM      2  N   ASN A  1       26.082 -13.908   1.988  0.00  0.00    -0.318 NA
ATOM      3  H1  ASN A  1       26.299 -12.957   1.679  0.00  0.00    +0.119 HD
ATOM      4  H2  ASN A  1       26.589 -14.491   1.313  0.00  0.00    +0.119 HD
ENDBRANCH   1   2
BRANCH   1   5
ATOM      5  C   ASN A  1       26.929 -15.619   3.548  0.00  0.00    +0.322 C 
ATOM      6  O   ASN A  1       26.139 -16.477   3.158  0.00  0.00    -0.249 OA
BRANCH   5   7
ATOM      7  OXT ASN A  1       28.072 -15.935   4.190  0.00  0.00    -0.479 OA
ATOM      8  HXT ASN A  1       28.468 -16.784   3.874  0.00  0.00    +0.295 HD
ENDBRANCH   5   7
ENDBRANCH   1   5
BRANCH   1   9
ATOM      9  CB  ASN A  1       25.824 -13.504   4.396  0.00  0.00    +0.125 C 
BRANCH   9  13
ATOM     10  ND2 ASN A  1       23.683 -14.599   4.116  0.00  0.00    -0.329 N 
ATOM     11 HD21 ASN A  1       24.101 -15.457   4.451  0.00  0.00    +0.145 HD
ATOM     12 HD22 ASN A  1       22.709 -14.618   3.838  0.00  0.00    +0.145 HD
ATOM     13  CG  ASN A  1       24.387 -13.446   3.939  0.00  0.00    +0.212 C 
ATOM     14  OD1 ASN A  1       23.874 -12.445   3.448  0.00  0.00    -0.276 OA
ENDBRANCH   9  13
ENDBRANCH   1   9
TORSDOF 5
ENDMDL
MODEL 5
REMARK VINA RESULT:      -4.1      7.115      7.462
REMARK  Name = *****
REMARK                            x       y       z     vdW  Elec       q    Type
REMARK                         _______ _______ _______ _____ _____    ______ ____
ROOT
ATOM      1  CA  ASN A  1       24.092 -20.084   3.625  0.00  0.00    +0.169 C 
ENDROOT
BRANCH   1   2
ATOM      2  N   ASN A  1       24.158 -21.570   3.608  0.00  0.00    -0.318 NA
ATOM      3  H1  ASN A  1       23.436 -21.908   2.966  0.00  0.00    +0.119 HD
ATOM      4  H2  ASN A  1       25.029 -21.833   3.134  0.00  0.00    +0.119 HD
ENDBRANCH   1   2
BRANCH   1   5
ATOM      5  C   ASN A  1       25.464 -19.526   4.045  0.00  0.00    +0.322 C 
ATOM      6  O   ASN A  1       26.151 -20.023   4.936  0.00  0.00    -0.249 OA
BRANCH   5   7
ATOM      7  OXT ASN A  1       25.877 -18.456   3.334  0.00  0.00    -0.479 OA
ATOM      8  HXT ASN A  1       26.720 -18.622   2.847  0.00  0.00    +0.295 HD
ENDBRANCH   5   7
ENDBRANCH   1   5
BRANCH   1   9
ATOM      9  CB  ASN A  1       22.995 -19.646   4.594  0.00  0.00    +0.125 C 
BRANCH   9  13
ATOM     10  ND2 ASN A  1       21.563 -21.572   4.909  0.00  0.00    -0.329 N 
ATOM     11 HD21 ASN A  1       21.112 -21.355   4.030  0.00  0.00    +0.145 HD
ATOM     12 HD22 ASN A  1       21.224 -22.367   5.437  0.00  0.00    +0.145 HD
ATOM     13  CG  ASN A  1       22.541 -20.797   5.456  0.00  0.00    +0.212 C 
ATOM     14  OD1 ASN A  1       23.008 -21.035   6.565  0.00  0.00    -0.276 OA
ENDBRANCH   9  13
ENDBRANCH   1   9
TORSDOF 5
ENDMDL
MODEL 6
REMARK VINA RESULT:      -4.1      1.090      1.554
REMARK  Name = *****
REMARK                            x       y       z     vdW  Elec       q    Type
REMARK                         _______ _______ _______ _____ _____    ______ ____
ROOT
ATOM      1  CA  ASN A  1       26.411 -13.837   4.488  0.00  0.00    +0.169 C 
ENDROOT
BRANCH   1   2
ATOM      2  N   ASN A  1       27.073 -13.473   5.769  0.00  0.00    -0.318 NA
ATOM      3  H1  ASN A  1       27.402 -14.338   6.208  0.00  0.00    +0.119 HD
ATOM      4  H2  ASN A  1       27.947 -12.987   5.536  0.00  0.00    +0.119 HD
ENDBRANCH   1   2
BRANCH   1   5
ATOM      5  C   ASN A  1       27.424 -13.684   3.338  0.00  0.00    +0.322 C 
ATOM      6  O   ASN A  1       28.582 -13.306   3.506  0.00  0.00    -0.249 OA
BRANCH   5   7
ATOM      7  OXT ASN A  1       26.950 -14.027   2.123  0.00  0.00    -0.479 OA
ATOM      8  HXT ASN A  1       26.280 -14.753   2.163  0.00  0.00    +0.295 HD
ENDBRANCH   5   7
ENDBRANCH   1   5
BRANCH   1   9
ATOM      9  CB  ASN A  1       25.196 -12.935   4.282  0.00  0.00    +0.125 C 
BRANCH   9  13
ATOM     10  ND2 ASN A  1       23.750 -13.211   2.360  0.00  0.00    -0.329 N 
ATOM     11 HD21 ASN A  1       24.163 -12.381   1.956  0.00  0.00    +0.145 HD
ATOM     12 HD22 ASN A  1       23.012 -13.678   1.846  0.00  0.00    +0.145 HD
ATOM     13  CG  ASN A  1       24.077 -13.680   3.597  0.00  0.00    +0.212 C 
ATOM     14  OD1 ASN A  1       23.497 -14.638   4.099  0.00  0.00    -0.276 OA
ENDBRANCH   9  13
ENDBRANCH   1   9
TORSDOF 5
ENDMDL
MODEL 7
REMARK VINA RESULT:      -4.0      7.247      8.082
REMARK  Name = *****
REMARK                            x       y       z     vdW  Elec       q    Type
REMARK                         _______ _______ _______ _____ _____    ______ ____
ROOT
ATOM      1  CA  ASN A  1       23.884 -20.611   4.074  0.00  0.00    +0.169 C 
ENDROOT
BRANCH   1   2
ATOM      2  N   ASN A  1       24.501 -19.291   3.772  0.00  0.00    -0.318 NA
ATOM      3  H1  ASN A  1       24.483 -19.162   2.756  0.00  0.00    +0.119 HD
ATOM      4  H2  ASN A  1       23.857 -18.566   4.108  0.00  0.00    +0.119 HD
ENDBRANCH   1   2
BRANCH   1   5
ATOM      5  C   ASN A  1       22.623 -20.390   4.929  0.00  0.00    +0.322 C 
ATOM      6  O   ASN A  1       22.395 -19.346   5.538  0.00  0.00    -0.249 OA
BRANCH   5   7
ATOM      7  OXT ASN A  1       21.762 -21.428   4.938  0.00  0.00    -0.479 OA
ATOM      8  HXT ASN A  1       21.030 -21.325   4.281  0.00  0.00    +0.295 HD
ENDBRANCH   5   7
ENDBRANCH   1   5
BRANCH   1   9
ATOM      9  CB  ASN A  1       24.905 -21.482   4.803  0.00  0.00    +0.125 C 
BRANCH   9  13
ATOM     10  ND2 ASN A  1       26.973 -20.237   4.987  0.00  0.00    -0.329 N 
ATOM     11 HD21 ASN A  1       27.213 -20.538   4.052  0.00  0.00    +0.145 HD
ATOM     12 HD22 ASN A  1       27.636 -19.659   5.489  0.00  0.00    +0.145 HD
ATOM     13  CG  ASN A  1       25.843 -20.640   5.633  0.00  0.00    +0.212 C 
ATOM     14  OD1 ASN A  1       25.619 -20.329   6.798  0.00  0.00    -0.276 OA
ENDBRANCH   9  13
ENDBRANCH   1   9
TORSDOF 5
ENDMDL
MODEL 8
REMARK VINA RESULT:      -4.0      1.394      3.551
REMARK  Name = *****
REMARK                            x       y       z     vdW  Elec       q    Type
REMARK                         _______ _______ _______ _____ _____    ______ ____
ROOT
ATOM      1  CA  ASN A  1       25.423 -14.166   3.023  0.00  0.00    +0.169 C 
ENDROOT
BRANCH   1   2
ATOM      2  N   ASN A  1       25.832 -12.842   2.481  0.00  0.00    -0.318 NA
ATOM      3  H1  ASN A  1       25.545 -12.126   3.154  0.00  0.00    +0.119 HD
ATOM      4  H2  ASN A  1       26.857 -12.797   2.521  0.00  0.00    +0.119 HD
ENDBRANCH   1   2
BRANCH   1   5
ATOM      5  C   ASN A  1       24.231 -13.970   3.977  0.00  0.00    +0.322 C 
ATOM      6  O   ASN A  1       23.436 -14.866   4.256  0.00  0.00    -0.249 OA
BRANCH   5   7
ATOM      7  OXT ASN A  1       24.138 -12.736   4.514  0.00  0.00    -0.479 OA
ATOM      8  HXT ASN A  1       23.277 -12.294   4.314  0.00  0.00    +0.295 HD
ENDBRANCH   5   7
ENDBRANCH   1   5
BRANCH   1   9
ATOM      9  CB  ASN A  1       26.613 -14.798   3.742  0.00  0.00    +0.125 C 
BRANCH   9  13
ATOM     10  ND2 ASN A  1       27.169 -13.187   5.461  0.00  0.00    -0.329 N 
ATOM     11 HD21 ASN A  1       26.292 -13.401   5.917  0.00  0.00    +0.145 HD
ATOM     12 HD22 ASN A  1       27.763 -12.479   5.875  0.00  0.00    +0.145 HD
ATOM     13  CG  ASN A  1       27.548 -13.741   4.276  0.00  0.00    +0.212 C 
ATOM     14  OD1 ASN A  1       28.577 -13.398   3.702  0.00  0.00    -0.276 OA
ENDBRANCH   9  13
ENDBRANCH   1   9
TORSDOF 5
ENDMDL
MODEL 9
REMARK VINA RESULT:      -3.9      6.757      7.067
REMARK  Name = *****
REMARK                            x       y       z     vdW  Elec       q    Type
REMARK                         _______ _______ _______ _____ _____    ______ ____
ROOT
ATOM      1  CA  ASN A  1       24.709 -20.211   3.755  0.00  0.00    +0.169 C 
ENDROOT
BRANCH   1   2
ATOM      2  N   ASN A  1       23.750 -21.349   3.765  0.00  0.00    -0.318 NA
ATOM      3  H1  ASN A  1       23.194 -21.282   4.622  0.00  0.00    +0.119 HD
ATOM      4  H2  ASN A  1       23.058 -21.174   3.027  0.00  0.00    +0.119 HD
ENDBRANCH   1   2
BRANCH   1   5
ATOM      5  C   ASN A  1       25.692 -20.373   4.929  0.00  0.00    +0.322 C 
ATOM      6  O   ASN A  1       25.353 -20.774   6.041  0.00  0.00    -0.249 OA
BRANCH   5   7
ATOM      7  OXT ASN A  1       26.972 -20.068   4.635  0.00  0.00    -0.479 OA
ATOM      8  HXT ASN A  1       27.380 -20.700   3.994  0.00  0.00    +0.295 HD
ENDBRANCH   5   7
ENDBRANCH   1   5
BRANCH   1   9
ATOM      9  CB  ASN A  1       23.929 -18.902   3.861  0.00  0.00    +0.125 C 
BRANCH   9  13
ATOM     10  ND2 ASN A  1       22.644 -19.598   5.791  0.00  0.00    -0.329 N 
ATOM     11 HD21 ASN A  1       23.509 -19.864   6.245  0.00  0.00    +0.145 HD
ATOM     12 HD22 ASN A  1       21.775 -19.756   6.288  0.00  0.00    +0.145 HD
ATOM     13  CG  ASN A  1       22.587 -19.122   4.516  0.00  0.00    +0.212 C 
ATOM     14  OD1 ASN A  1       21.518 -18.891   3.960  0.00  0.00    -0.276 OA
ENDBRANCH   9  13
ENDBRANCH   1   9
TORSDOF 5
ENDMDL
