MODEL 1
REMARK VINA RESULT:      -5.5      0.000      0.000
REMARK  Name = *****
REMARK                            x       y       z     vdW  Elec       q    Type
REMARK                         _______ _______ _______ _____ _____    ______ ____
ROOT
ATOM      1  C   LIG    1       24.649 -20.446   5.322  0.00  0.00    -0.037 A 
ATOM      2  C   LIG    1       23.440 -20.447   6.031  0.00  0.00    +0.004 A 
ATOM      3  C   LIG    1       22.351 -19.710   5.566  0.00  0.00    +0.000 A 
ATOM      4  C   LIG    1       22.460 -18.964   4.394  0.00  0.00    +0.000 A 
ATOM      5  C   LIG    1       23.659 -18.955   3.684  0.00  0.00    +0.000 A 
ATOM      6  C   LIG    1       24.750 -19.692   4.144  0.00  0.00    +0.004 A 
ENDROOT
BRANCH   1   7
ATOM      7  C   LIG    1       25.846 -21.199   5.852  0.00  0.00    +0.155 C 
BRANCH   7   9
ATOM      8  O   LIG    1       27.606 -20.104   7.062  0.00  0.00    -0.251 OA
ATOM      9  C   LIG    1       27.136 -20.412   5.973  0.00  0.00    +0.309 C 
BRANCH   9  10
ATOM     10  O   LIG    1       27.751 -20.060   4.825  0.00  0.00    -0.480 OA
ATOM     11  H   LIG    1       27.439 -19.222   4.428  0.00  0.00    +0.295 HD
ENDBRANCH   9  10
ENDBRANCH   7   9
ENDBRANCH   1   7
TORSDOF 3
ENDMDL
MODEL 2
REMARK VINA RESULT:      -5.5      5.401      6.202
REMARK  Name = *****
REMARK                            x       y       z     vdW  Elec       q    Type
REMARK                         _______ _______ _______ _____ _____    ______ ____
ROOT
ATOM      1  C   LIG    1       26.161 -14.089   3.528  0.00  0.00    -0.037 A 
ATOM      2  C   LIG    1       25.336 -13.742   4.607  0.00  0.00    +0.004 A 
ATOM      3  C   LIG    1       24.267 -12.865   4.423  0.00  0.00    +0.000 A 
ATOM      4  C   LIG    1       24.015 -12.325   3.163  0.00  0.00    +0.000 A 
ATOM      5  C   LIG    1       24.831 -12.662   2.085  0.00  0.00    +0.000 A 
ATOM      6  C   LIG    1       25.900 -13.540   2.264  0.00  0.00    +0.004 A 
ENDROOT
BRANCH   1   7
ATOM      7  C   LIG    1       27.351 -14.995   3.736  0.00  0.00    +0.155 C 
BRANCH   7   9
ATOM      8  O   LIG    1       26.060 -16.929   3.141  0.00  0.00    -0.251 OA
ATOM      9  C   LIG    1       27.088 -16.484   3.640  0.00  0.00    +0.309 C 
BRANCH   9  10
ATOM     10  O   LIG    1       28.036 -17.310   4.130  0.00  0.00    -0.480 OA
ATOM     11  H   LIG    1       27.701 -18.043   4.683  0.00  0.00    +0.295 HD
ENDBRANCH   9  10
ENDBRANCH   7   9
ENDBRANCH   1   7
TORSDOF 3
ENDMDL
MODEL 3
REMARK VINA RESULT:      -5.5      5.393      6.356
REMARK  Name = *****
REMARK                            x       y       z     vdW  Elec       q    Type
REMARK                         _______ _______ _______ _____ _____    ______ ____
ROOT
ATOM      1  C   LIG    1       26.242 -14.060   3.573  0.00  0.00    -0.037 A 
ATOM      2  C   LIG    1       25.963 -13.553   2.296  0.00  0.00    +0.004 A 
ATOM      3  C   LIG    1       24.856 -12.729   2.092  0.00  0.00    +0.000 A 
ATOM      4  C   LIG    1       24.019 -12.407   3.158  0.00  0.00    +0.000 A 
ATOM      5  C   LIG    1       24.287 -12.908   4.431  0.00  0.00    +0.000 A 
ATOM      6  C   LIG    1       25.393 -13.731   4.640  0.00  0.00    +0.004 A 
ENDROOT
BRANCH   1   7
ATOM      7  C   LIG    1       27.408 -14.997   3.785  0.00  0.00    +0.155 C 
BRANCH   7   9
ATOM      8  O   LIG    1       26.078 -16.888   3.144  0.00  0.00    -0.251 OA
ATOM      9  C   LIG    1       27.112 -16.477   3.657  0.00  0.00    +0.309 C 
BRANCH   9  10
ATOM     10  O   LIG    1       28.039 -17.334   4.135  0.00  0.00    -0.480 OA
ATOM     11  H   LIG    1       28.822 -17.456   3.563  0.00  0.00    +0.295 HD
ENDBRANCH   9  10
ENDBRANCH   7   9
ENDBRANCH   1   7
TORSDOF 3
ENDMDL
MODEL 4
REMARK VINA RESULT:      -5.4      1.294      1.647
REMARK  Name = *****
REMARK                            x       y       z     vdW  Elec       q    Type
REMARK                         _______ _______ _______ _____ _____    ______ ____
ROOT
ATOM      1  C   LIG    1       25.589 -20.519   6.324  0.00  0.00    -0.037 A 
ATOM      2  C   LIG    1       24.397 -20.745   7.026  0.00  0.00    +0.004 A 
ATOM      3  C   LIG    1       23.177 -20.783   6.350  0.00  0.00    +0.000 A 
ATOM      4  C   LIG    1       23.137 -20.591   4.970  0.00  0.00    +0.000 A 
ATOM      5  C   LIG    1       24.317 -20.363   4.264  0.00  0.00    +0.000 A 
ATOM      6  C   LIG    1       25.538 -20.327   4.936  0.00  0.00    +0.004 A 
ENDROOT
BRANCH   1   7
ATOM      7  C   LIG    1       26.904 -20.423   7.062  0.00  0.00    +0.155 C 
BRANCH   7   9
ATOM      8  O   LIG    1       28.329 -19.255   5.524  0.00  0.00    -0.251 OA
ATOM      9  C   LIG    1       28.143 -20.256   6.206  0.00  0.00    +0.309 C 
BRANCH   9  10
ATOM     10  O   LIG    1       29.043 -21.262   6.225  0.00  0.00    -0.480 OA
ATOM     11  H   LIG    1       29.440 -21.446   7.099  0.00  0.00    +0.295 HD
ENDBRANCH   9  10
ENDBRANCH   7   9
ENDBRANCH   1   7
TORSDOF 3
ENDMDL
MODEL 5
REMARK VINA RESULT:      -5.4      6.419      7.162
REMARK  Name = *****
REMARK                            x       y       z     vdW  Elec       q    Type
REMARK                         _______ _______ _______ _____ _____    ______ ____
ROOT
ATOM      1  C   LIG    1       26.224 -13.845   3.717  0.00  0.00    -0.037 A 
ATOM      2  C   LIG    1       26.018 -13.055   2.577  0.00  0.00    +0.004 A 
ATOM      3  C   LIG    1       24.724 -12.764   2.147  0.00  0.00    +0.000 A 
ATOM      4  C   LIG    1       23.626 -13.261   2.847  0.00  0.00    +0.000 A 
ATOM      5  C   LIG    1       23.821 -14.049   3.979  0.00  0.00    +0.000 A 
ATOM      6  C   LIG    1       25.114 -14.341   4.414  0.00  0.00    +0.004 A 
ENDROOT
BRANCH   1   7
ATOM      7  C   LIG    1       27.624 -14.208   4.153  0.00  0.00    +0.155 C 
BRANCH   7   9
ATOM      8  O   LIG    1       28.681 -12.292   5.139  0.00  0.00    -0.251 OA
ATOM      9  C   LIG    1       28.629 -13.075   4.197  0.00  0.00    +0.309 C 
BRANCH   9  10
ATOM     10  O   LIG    1       29.472 -12.958   3.149  0.00  0.00    -0.480 OA
ATOM     11  H   LIG    1       29.048 -13.001   2.270  0.00  0.00    +0.295 HD
ENDBRANCH   9  10
ENDBRANCH   7   9
ENDBRANCH   1   7
TORSDOF 3
ENDMDL
MODEL 6
REMARK VINA RESULT:      -5.4      6.463      7.052
REMARK  Name = *****
REMARK                            x       y       z     vdW  Elec       q    Type
REMARK                         _______ _______ _______ _____ _____    ______ ____
ROOT
ATOM      1  C   LIG    1       26.256 -13.860   3.677  0.00  0.00    -0.037 A 
ATOM      2  C   LIG    1       25.159 -14.317   4.421  0.00  0.00    +0.004 A 
ATOM      3  C   LIG    1       23.861 -13.975   4.044  0.00  0.00    +0.000 A 
ATOM      4  C   LIG    1       23.646 -13.174   2.924  0.00  0.00    +0.000 A 
ATOM      5  C   LIG    1       24.730 -12.713   2.179  0.00  0.00    +0.000 A 
ATOM      6  C   LIG    1       26.030 -13.053   2.552  0.00  0.00    +0.004 A 
ENDROOT
BRANCH   1   7
ATOM      7  C   LIG    1       27.665 -14.182   4.115  0.00  0.00    +0.155 C 
BRANCH   7   9
ATOM      8  O   LIG    1       28.722 -12.210   4.983  0.00  0.00    -0.251 OA
ATOM      9  C   LIG    1       28.657 -13.038   4.081  0.00  0.00    +0.309 C 
BRANCH   9  10
ATOM     10  O   LIG    1       29.475 -12.964   3.010  0.00  0.00    -0.480 OA
ATOM     11  H   LIG    1       29.357 -13.674   2.349  0.00  0.00    +0.295 HD
ENDBRANCH   9  10
ENDBRANCH   7   9
ENDBRANCH   1   7
TORSDOF 3
ENDMDL
MODEL 7
REMARK VINA RESULT:      -5.1      2.710      4.227
REMARK  Name = *****
REMARK                            x       y       z     vdW  Elec       q    Type
REMARK                         _______ _______ _______ _____ _____    ______ ____
ROOT
ATOM      1  C   LIG    1       25.300 -20.553   5.149  0.00  0.00    -0.037 A 
ATOM      2  C   LIG    1       25.279 -21.428   6.243  0.00  0.00    +0.004 A 
ATOM      3  C   LIG    1       26.403 -21.565   7.058  0.00  0.00    +0.000 A 
ATOM      4  C   LIG    1       27.556 -20.832   6.786  0.00  0.00    +0.000 A 
ATOM      5  C   LIG    1       27.588 -19.961   5.699  0.00  0.00    +0.000 A 
ATOM      6  C   LIG    1       26.466 -19.820   4.882  0.00  0.00    +0.004 A 
ENDROOT
BRANCH   1   7
ATOM      7  C   LIG    1       24.104 -20.445   4.233  0.00  0.00    +0.155 C 
BRANCH   7   9
ATOM      8  O   LIG    1       22.387 -19.267   5.427  0.00  0.00    -0.251 OA
ATOM      9  C   LIG    1       22.752 -20.314   4.905  0.00  0.00    +0.309 C 
BRANCH   9  10
ATOM     10  O   LIG    1       21.959 -21.406   4.908  0.00  0.00    -0.480 OA
ATOM     11  H   LIG    1       22.176 -22.077   4.232  0.00  0.00    +0.295 HD
ENDBRANCH   9  10
ENDBRANCH   7   9
ENDBRANCH   1   7
TORSDOF 3
ENDMDL
MODEL 8
REMARK VINA RESULT:      -5.1      2.064      3.094
REMARK  Name = *****
REMARK                            x       y       z     vdW  Elec       q    Type
REMARK                         _______ _______ _______ _____ _____    ______ ____
ROOT
ATOM      1  C   LIG    1       24.637 -19.183   3.969  0.00  0.00    -0.037 A 
ATOM      2  C   LIG    1       23.302 -18.756   4.005  0.00  0.00    +0.004 A 
ATOM      3  C   LIG    1       22.404 -19.329   4.906  0.00  0.00    +0.000 A 
ATOM      4  C   LIG    1       22.829 -20.332   5.774  0.00  0.00    +0.000 A 
ATOM      5  C   LIG    1       24.154 -20.764   5.745  0.00  0.00    +0.000 A 
ATOM      6  C   LIG    1       25.055 -20.193   4.847  0.00  0.00    +0.004 A 
ENDROOT
BRANCH   1   7
ATOM      7  C   LIG    1       25.598 -18.604   2.958  0.00  0.00    +0.155 C 
BRANCH   7   9
ATOM      8  O   LIG    1       25.844 -16.231   3.226  0.00  0.00    -0.251 OA
ATOM      9  C   LIG    1       26.333 -17.345   3.372  0.00  0.00    +0.309 C 
BRANCH   9  10
ATOM     10  O   LIG    1       27.560 -17.500   3.914  0.00  0.00    -0.480 OA
ATOM     11  H   LIG    1       27.936 -16.696   4.323  0.00  0.00    +0.295 HD
ENDBRANCH   9  10
ENDBRANCH   7   9
ENDBRANCH   1   7
TORSDOF 3
ENDMDL
MODEL 9
REMARK VINA RESULT:      -4.9      2.711      4.442
REMARK  Name = *****
REMARK                            x       y       z     vdW  Elec       q    Type
REMARK                         _______ _______ _______ _____ _____    ______ ____
ROOT
ATOM      1  C   LIG    1       25.238 -20.512   5.047  0.00  0.00    -0.037 A 
ATOM      2  C   LIG    1       26.390 -19.760   4.779  0.00  0.00    +0.004 A 
ATOM      3  C   LIG    1       27.491 -19.830   5.633  0.00  0.00    +0.000 A 
ATOM      4  C   LIG    1       27.451 -20.648   6.760  0.00  0.00    +0.000 A 
ATOM      5  C   LIG    1       26.309 -21.398   7.036  0.00  0.00    +0.000 A 
ATOM      6  C   LIG    1       25.206 -21.332   6.184  0.00  0.00    +0.004 A 
ENDROOT
BRANCH   1   7
ATOM      7  C   LIG    1       24.025 -20.395   4.155  0.00  0.00    +0.155 C 
BRANCH   7   9
ATOM      8  O   LIG    1       21.939 -21.103   5.108  0.00  0.00    -0.251 OA
ATOM      9  C   LIG    1       22.697 -20.175   4.852  0.00  0.00    +0.309 C 
BRANCH   9  10
ATOM     10  O   LIG    1       22.378 -18.906   5.182  0.00  0.00    -0.480 OA
ATOM     11  H   LIG    1       21.654 -18.817   5.832  0.00  0.00    +0.295 HD
ENDBRANCH   9  10
ENDBRANCH   7   9
ENDBRANCH   1   7
TORSDOF 3
ENDMDL
