MODEL 1
REMARK VINA RESULT:      -5.7      0.000      0.000
REMARK  Name = *****
REMARK                            x       y       z     vdW  Elec       q    Type
REMARK                         _______ _______ _______ _____ _____    ______ ____
ROOT
ATOM      1  C   LIG    1       24.348 -21.564   7.640  0.00  0.00    +0.098 C 
ENDROOT
BRANCH   1   2
ATOM      2  C   LIG    1       25.615 -20.794   8.020  0.00  0.00    +0.308 C 
ATOM      3  O   LIG    1       26.389 -20.298   7.223  0.00  0.00    -0.251 OA
BRANCH   2   4
ATOM      4  O   LIG    1       25.833 -20.742   9.363  0.00  0.00    -0.480 OA
ATOM      5  H   LIG    1       25.327 -21.371   9.900  0.00  0.00    +0.295 HD
ENDBRANCH   2   4
ENDBRANCH   1   2
BRANCH   1   6
ATOM      6  C   LIG    1       23.262 -20.698   6.967  0.00  0.00    +0.014 C 
BRANCH   6   8
ATOM      7  C   LIG    1       22.486 -19.278   5.002  0.00  0.00    +0.004 C 
ATOM      8  C   LIG    1       23.296 -20.492   5.450  0.00  0.00    -0.003 C 
ENDBRANCH   6   8
ENDBRANCH   1   6
BRANCH   1   9
ATOM      9  C   LIG    1       24.700 -22.942   7.035  0.00  0.00    +0.014 C 
BRANCH   9  10
ATOM     10  C   LIG    1       23.566 -23.921   6.723  0.00  0.00    -0.003 C 
ATOM     11  C   LIG    1       24.075 -25.275   6.243  0.00  0.00    +0.004 C 
ENDBRANCH   9  10
ENDBRANCH   1   9
TORSDOF 6
ENDMDL
MODEL 2
REMARK VINA RESULT:      -5.6      1.120      3.335
REMARK  Name = *****
REMARK                            x       y       z     vdW  Elec       q    Type
REMARK                         _______ _______ _______ _____ _____    ______ ____
ROOT
ATOM      1  C   LIG    1       26.060 -21.524   7.217  0.00  0.00    +0.098 C 
ENDROOT
BRANCH   1   2
ATOM      2  C   LIG    1       26.661 -20.658   8.327  0.00  0.00    +0.308 C 
ATOM      3  O   LIG    1       27.748 -20.117   8.270  0.00  0.00    -0.251 OA
BRANCH   2   4
ATOM      4  O   LIG    1       25.870 -20.571   9.432  0.00  0.00    -0.480 OA
ATOM      5  H   LIG    1       24.926 -20.747   9.293  0.00  0.00    +0.295 HD
ENDBRANCH   2   4
ENDBRANCH   1   2
BRANCH   1   6
ATOM      6  C   LIG    1       25.648 -22.940   7.673  0.00  0.00    +0.014 C 
BRANCH   6   8
ATOM      7  C   LIG    1       23.859 -24.378   6.572  0.00  0.00    +0.004 C 
ATOM      8  C   LIG    1       25.340 -24.010   6.622  0.00  0.00    -0.003 C 
ENDBRANCH   6   8
ENDBRANCH   1   6
BRANCH   1   9
ATOM      9  C   LIG    1       25.090 -20.700   6.339  0.00  0.00    +0.014 C 
BRANCH   9  10
ATOM     10  C   LIG    1       23.606 -20.666   6.712  0.00  0.00    -0.003 C 
ATOM     11  C   LIG    1       22.724 -20.191   5.564  0.00  0.00    +0.004 C 
ENDBRANCH   9  10
ENDBRANCH   1   9
TORSDOF 6
ENDMDL
MODEL 3
REMARK VINA RESULT:      -5.6      2.263      4.137
REMARK  Name = *****
REMARK                            x       y       z     vdW  Elec       q    Type
REMARK                         _______ _______ _______ _____ _____    ______ ____
ROOT
ATOM      1  C   LIG    1       24.013 -22.190   7.526  0.00  0.00    +0.098 C 
ENDROOT
BRANCH   1   2
ATOM      2  C   LIG    1       23.815 -23.356   6.555  0.00  0.00    +0.308 C 
ATOM      3  O   LIG    1       24.655 -23.757   5.773  0.00  0.00    -0.251 OA
BRANCH   2   4
ATOM      4  O   LIG    1       22.569 -23.902   6.613  0.00  0.00    -0.480 OA
ATOM      5  H   LIG    1       22.452 -24.746   6.149  0.00  0.00    +0.295 HD
ENDBRANCH   2   4
ENDBRANCH   1   2
BRANCH   1   6
ATOM      6  C   LIG    1       25.448 -22.068   8.081  0.00  0.00    +0.014 C 
BRANCH   6   8
ATOM      7  C   LIG    1       27.282 -20.328   7.782  0.00  0.00    +0.004 C 
ATOM      8  C   LIG    1       25.981 -20.693   8.493  0.00  0.00    -0.003 C 
ENDBRANCH   6   8
ENDBRANCH   1   6
BRANCH   1   9
ATOM      9  C   LIG    1       23.285 -20.923   7.021  0.00  0.00    +0.014 C 
BRANCH   9  10
ATOM     10  C   LIG    1       23.540 -20.449   5.588  0.00  0.00    -0.003 C 
ATOM     11  C   LIG    1       22.501 -19.442   5.111  0.00  0.00    +0.004 C 
ENDBRANCH   9  10
ENDBRANCH   1   9
TORSDOF 6
ENDMDL
MODEL 4
REMARK VINA RESULT:      -5.6      2.408      3.420
REMARK  Name = *****
REMARK                            x       y       z     vdW  Elec       q    Type
REMARK                         _______ _______ _______ _____ _____    ______ ____
ROOT
ATOM      1  C   LIG    1       23.657 -21.806   6.344  0.00  0.00    +0.098 C 
ENDROOT
BRANCH   1   2
ATOM      2  C   LIG    1       23.429 -23.289   6.650  0.00  0.00    +0.308 C 
ATOM      3  O   LIG    1       24.313 -24.095   6.868  0.00  0.00    -0.251 OA
BRANCH   2   4
ATOM      4  O   LIG    1       22.116 -23.651   6.619  0.00  0.00    -0.480 OA
ATOM      5  H   LIG    1       21.526 -23.067   6.115  0.00  0.00    +0.295 HD
ENDBRANCH   2   4
ENDBRANCH   1   2
BRANCH   1   6
ATOM      6  C   LIG    1       22.550 -21.161   5.483  0.00  0.00    +0.014 C 
BRANCH   6   8
ATOM      7  C   LIG    1       23.452 -19.276   4.029  0.00  0.00    +0.004 C 
ATOM      8  C   LIG    1       22.580 -19.653   5.225  0.00  0.00    -0.003 C 
ENDBRANCH   6   8
ENDBRANCH   1   6
BRANCH   1   9
ATOM      9  C   LIG    1       24.176 -21.060   7.594  0.00  0.00    +0.014 C 
BRANCH   9  10
ATOM     10  C   LIG    1       25.644 -20.631   7.640  0.00  0.00    -0.003 C 
ATOM     11  C   LIG    1       26.280 -20.568   6.257  0.00  0.00    +0.004 C 
ENDBRANCH   9  10
ENDBRANCH   1   9
TORSDOF 6
ENDMDL
MODEL 5
REMARK VINA RESULT:      -5.6      1.153      1.339
REMARK  Name = *****
REMARK                            x       y       z     vdW  Elec       q    Type
REMARK                         _______ _______ _______ _____ _____    ______ ____
ROOT
ATOM      1  C   LIG    1       25.388 -21.910   7.545  0.00  0.00    +0.098 C 
ENDROOT
BRANCH   1   2
ATOM      2  C   LIG    1       26.437 -21.273   8.461  0.00  0.00    +0.308 C 
ATOM      3  O   LIG    1       27.635 -21.462   8.377  0.00  0.00    -0.251 OA
BRANCH   2   4
ATOM      4  O   LIG    1       25.899 -20.484   9.431  0.00  0.00    -0.480 OA
ATOM      5  H   LIG    1       26.463 -20.313  10.202  0.00  0.00    +0.295 HD
ENDBRANCH   2   4
ENDBRANCH   1   2
BRANCH   1   6
ATOM      6  C   LIG    1       24.771 -20.936   6.519  0.00  0.00    +0.014 C 
BRANCH   6   8
ATOM      7  C   LIG    1       22.538 -20.804   5.305  0.00  0.00    +0.004 C 
ATOM      8  C   LIG    1       23.285 -20.581   6.617  0.00  0.00    -0.003 C 
ENDBRANCH   6   8
ENDBRANCH   1   6
BRANCH   1   9
ATOM      9  C   LIG    1       25.842 -23.312   7.080  0.00  0.00    +0.014 C 
BRANCH   9  10
ATOM     10  C   LIG    1       24.986 -24.061   6.054  0.00  0.00    -0.003 C 
ATOM     11  C   LIG    1       23.612 -24.431   6.597  0.00  0.00    +0.004 C 
ENDBRANCH   9  10
ENDBRANCH   1   9
TORSDOF 6
ENDMDL
MODEL 6
REMARK VINA RESULT:      -5.6      1.538      2.060
REMARK  Name = *****
REMARK                            x       y       z     vdW  Elec       q    Type
REMARK                         _______ _______ _______ _____ _____    ______ ____
ROOT
ATOM      1  C   LIG    1       23.770 -20.854   6.479  0.00  0.00    +0.098 C 
ENDROOT
BRANCH   1   2
ATOM      2  C   LIG    1       25.142 -20.971   5.811  0.00  0.00    +0.308 C 
ATOM      3  O   LIG    1       26.112 -20.296   6.099  0.00  0.00    -0.251 OA
BRANCH   2   4
ATOM      4  O   LIG    1       25.179 -21.894   4.811  0.00  0.00    -0.480 OA
ATOM      5  H   LIG    1       24.506 -22.592   4.852  0.00  0.00    +0.295 HD
ENDBRANCH   2   4
ENDBRANCH   1   2
BRANCH   1   6
ATOM      6  C   LIG    1       22.657 -20.325   5.549  0.00  0.00    +0.014 C 
BRANCH   6   8
ATOM      7  C   LIG    1       22.109 -18.073   4.496  0.00  0.00    +0.004 C 
ATOM      8  C   LIG    1       23.007 -19.307   4.460  0.00  0.00    -0.003 C 
ENDBRANCH   6   8
ENDBRANCH   1   6
BRANCH   1   9
ATOM      9  C   LIG    1       23.487 -22.081   7.375  0.00  0.00    +0.014 C 
BRANCH   9  10
ATOM     10  C   LIG    1       22.709 -23.261   6.785  0.00  0.00    -0.003 C 
ATOM     11  C   LIG    1       23.581 -24.494   6.581  0.00  0.00    +0.004 C 
ENDBRANCH   9  10
ENDBRANCH   1   9
TORSDOF 6
ENDMDL
MODEL 7
REMARK VINA RESULT:      -5.5      5.100      6.879
REMARK  Name = *****
REMARK                            x       y       z     vdW  Elec       q    Type
REMARK                         _______ _______ _______ _____ _____    ______ ____
ROOT
ATOM      1  C   LIG    1       30.337 -20.646   8.349  0.00  0.00    +0.098 C 
ENDROOT
BRANCH   1   2
ATOM      2  C   LIG    1       31.101 -21.740   9.098  0.00  0.00    +0.308 C 
ATOM      3  O   LIG    1       30.797 -22.171  10.194  0.00  0.00    -0.251 OA
BRANCH   2   4
ATOM      4  O   LIG    1       32.205 -22.180   8.434  0.00  0.00    -0.480 OA
ATOM      5  H   LIG    1       32.360 -21.786   7.560  0.00  0.00    +0.295 HD
ENDBRANCH   2   4
ENDBRANCH   1   2
BRANCH   1   6
ATOM      6  C   LIG    1       31.241 -19.621   7.632  0.00  0.00    +0.014 C 
BRANCH   6   8
ATOM      7  C   LIG    1       30.383 -17.687   9.047  0.00  0.00    +0.004 C 
ATOM      8  C   LIG    1       31.582 -18.301   8.327  0.00  0.00    -0.003 C 
ENDBRANCH   6   8
ENDBRANCH   1   6
BRANCH   1   9
ATOM      9  C   LIG    1       29.121 -21.238   7.599  0.00  0.00    +0.014 C 
BRANCH   9  10
ATOM     10  C   LIG    1       27.965 -20.309   7.222  0.00  0.00    -0.003 C 
ATOM     11  C   LIG    1       28.014 -19.873   5.763  0.00  0.00    +0.004 C 
ENDBRANCH   9  10
ENDBRANCH   1   9
TORSDOF 6
ENDMDL
MODEL 8
REMARK VINA RESULT:      -5.4      2.635      3.677
REMARK  Name = *****
REMARK                            x       y       z     vdW  Elec       q    Type
REMARK                         _______ _______ _______ _____ _____    ______ ____
ROOT
ATOM      1  C   LIG    1       24.413 -22.998   6.391  0.00  0.00    +0.098 C 
ENDROOT
BRANCH   1   2
ATOM      2  C   LIG    1       23.428 -24.161   6.542  0.00  0.00    +0.308 C 
ATOM      3  O   LIG    1       23.733 -25.337   6.487  0.00  0.00    -0.251 OA
BRANCH   2   4
ATOM      4  O   LIG    1       22.139 -23.759   6.712  0.00  0.00    -0.480 OA
ATOM      5  H   LIG    1       22.016 -22.890   7.126  0.00  0.00    +0.295 HD
ENDBRANCH   2   4
ENDBRANCH   1   2
BRANCH   1   6
ATOM      6  C   LIG    1       23.869 -21.815   5.563  0.00  0.00    +0.014 C 
BRANCH   6   8
ATOM      7  C   LIG    1       22.598 -19.624   5.311  0.00  0.00    +0.004 C 
ATOM      8  C   LIG    1       23.202 -20.638   6.280  0.00  0.00    -0.003 C 
ENDBRANCH   6   8
ENDBRANCH   1   6
BRANCH   1   9
ATOM      9  C   LIG    1       25.143 -22.718   7.724  0.00  0.00    +0.014 C 
BRANCH   9  10
ATOM     10  C   LIG    1       26.411 -21.861   7.703  0.00  0.00    -0.003 C 
ATOM     11  C   LIG    1       26.244 -20.548   8.458  0.00  0.00    +0.004 C 
ENDBRANCH   9  10
ENDBRANCH   1   9
TORSDOF 6
ENDMDL
MODEL 9
REMARK VINA RESULT:      -5.4      2.359      3.088
REMARK  Name = *****
REMARK                            x       y       z     vdW  Elec       q    Type
REMARK                         _______ _______ _______ _____ _____    ______ ____
ROOT
ATOM      1  C   LIG    1       24.283 -20.885   6.347  0.00  0.00    +0.098 C 
ENDROOT
BRANCH   1   2
ATOM      2  C   LIG    1       24.925 -21.241   5.004  0.00  0.00    +0.308 C 
ATOM      3  O   LIG    1       25.575 -20.472   4.322  0.00  0.00    -0.251 OA
BRANCH   2   4
ATOM      4  O   LIG    1       24.671 -22.518   4.606  0.00  0.00    -0.480 OA
ATOM      5  H   LIG    1       24.888 -22.727   3.683  0.00  0.00    +0.295 HD
ENDBRANCH   2   4
ENDBRANCH   1   2
BRANCH   1   6
ATOM      6  C   LIG    1       22.907 -20.197   6.226  0.00  0.00    +0.014 C 
BRANCH   6   8
ATOM      7  C   LIG    1       22.246 -18.471   4.475  0.00  0.00    +0.004 C 
ATOM      8  C   LIG    1       22.306 -19.953   4.840  0.00  0.00    -0.003 C 
ENDBRANCH   6   8
ENDBRANCH   1   6
BRANCH   1   9
ATOM      9  C   LIG    1       24.469 -22.031   7.368  0.00  0.00    +0.014 C 
BRANCH   9  10
ATOM     10  C   LIG    1       25.681 -21.996   8.302  0.00  0.00    -0.003 C 
ATOM     11  C   LIG    1       26.143 -20.577   8.610  0.00  0.00    +0.004 C 
ENDBRANCH   9  10
ENDBRANCH   1   9
TORSDOF 6
ENDMDL
