MODEL 1
REMARK VINA RESULT:      -8.6      0.000      0.000
REMARK  Name = *****
REMARK                            x       y       z     vdW  Elec       q    Type
REMARK                         _______ _______ _______ _____ _____    ______ ____
ROOT
ATOM      1  C   LIG    1       25.021 -25.258   6.563  0.00  0.00    -0.034 A 
ATOM      2  C   LIG    1       25.958 -24.268   6.895  0.00  0.00    +0.005 A 
ATOM      3  C   LIG    1       25.571 -22.929   7.036  0.00  0.00    +0.012 A 
ATOM      4  C   LIG    1       24.230 -22.561   6.897  0.00  0.00    +0.023 A 
ATOM      5  C   LIG    1       23.288 -23.551   6.565  0.00  0.00    +0.012 A 
ATOM      6  C   LIG    1       23.679 -24.886   6.401  0.00  0.00    +0.005 A 
ENDROOT
BRANCH   1   8
ATOM      7  C   LIG    1       26.095 -27.290   7.587  0.00  0.00    +0.024 C 
ATOM      8  C   LIG    1       25.456 -26.701   6.325  0.00  0.00    +0.124 C 
BRANCH   8   9
ATOM      9  C   LIG    1       26.389 -26.877   5.122  0.00  0.00    +0.312 C 
ATOM     10  O   LIG    1       26.017 -26.854   3.959  0.00  0.00    -0.250 OA
BRANCH   9  11
ATOM     11  O   LIG    1       27.703 -26.996   5.432  0.00  0.00    -0.480 OA
ATOM     12  H   LIG    1       28.057 -27.904   5.374  0.00  0.00    +0.295 HD
ENDBRANCH   9  11
ENDBRANCH   8   9
ENDBRANCH   1   8
BRANCH   4  13
ATOM     13  C   LIG    1       23.788 -21.133   6.995  0.00  0.00    +0.200 C 
ATOM     14  O   LIG    1       23.591 -20.709   8.135  0.00  0.00    -0.286 OA
BRANCH  13  15
ATOM     15  C   LIG    1       23.595 -20.320   5.792  0.00  0.00    +0.059 A 
ATOM     16  S   LIG    1       24.857 -20.295   4.620  0.00  0.00    -0.093 S 
ATOM     17  C   LIG    1       23.991 -19.245   3.588  0.00  0.00    +0.046 A 
ATOM     18  C   LIG    1       22.756 -18.927   4.101  0.00  0.00    +0.008 A 
ATOM     19  C   LIG    1       22.523 -19.549   5.368  0.00  0.00    +0.019 A 
ENDBRANCH  13  15
ENDBRANCH   4  13
TORSDOF 5
ENDMDL
MODEL 2
REMARK VINA RESULT:      -8.5      4.508      6.142
REMARK  Name = *****
REMARK                            x       y       z     vdW  Elec       q    Type
REMARK                         _______ _______ _______ _____ _____    ______ ____
ROOT
ATOM      1  C   LIG    1       28.650 -19.784   7.623  0.00  0.00    -0.034 A 
ATOM      2  C   LIG    1       28.612 -19.624   6.229  0.00  0.00    +0.005 A 
ATOM      3  C   LIG    1       27.495 -20.029   5.488  0.00  0.00    +0.012 A 
ATOM      4  C   LIG    1       26.371 -20.555   6.131  0.00  0.00    +0.023 A 
ATOM      5  C   LIG    1       26.404 -20.715   7.527  0.00  0.00    +0.012 A 
ATOM      6  C   LIG    1       27.531 -20.332   8.266  0.00  0.00    +0.005 A 
ENDROOT
BRANCH   1   8
ATOM      7  C   LIG    1       30.042 -17.903   8.546  0.00  0.00    +0.024 C 
ATOM      8  C   LIG    1       29.899 -19.424   8.420  0.00  0.00    +0.124 C 
BRANCH   8   9
ATOM      9  C   LIG    1       31.188 -20.036   7.863  0.00  0.00    +0.312 C 
ATOM     10  O   LIG    1       31.935 -19.465   7.083  0.00  0.00    -0.250 OA
BRANCH   9  11
ATOM     11  O   LIG    1       31.498 -21.261   8.355  0.00  0.00    -0.480 OA
ATOM     12  H   LIG    1       31.573 -21.304   9.327  0.00  0.00    +0.295 HD
ENDBRANCH   9  11
ENDBRANCH   8   9
ENDBRANCH   1   8
BRANCH   4  13
ATOM     13  C   LIG    1       25.178 -21.040   5.365  0.00  0.00    +0.200 C 
ATOM     14  O   LIG    1       24.938 -20.446   4.313  0.00  0.00    -0.286 OA
BRANCH  13  15
ATOM     15  C   LIG    1       24.356 -22.141   5.871  0.00  0.00    +0.059 A 
ATOM     16  S   LIG    1       25.008 -23.735   5.806  0.00  0.00    -0.093 S 
ATOM     17  C   LIG    1       23.617 -24.424   6.515  0.00  0.00    +0.046 A 
ATOM     18  C   LIG    1       22.672 -23.471   6.820  0.00  0.00    +0.008 A 
ATOM     19  C   LIG    1       23.098 -22.155   6.455  0.00  0.00    +0.019 A 
ENDBRANCH  13  15
ENDBRANCH   4  13
TORSDOF 5
ENDMDL
MODEL 3
REMARK VINA RESULT:      -8.4      1.373      1.719
REMARK  Name = *****
REMARK                            x       y       z     vdW  Elec       q    Type
REMARK                         _______ _______ _______ _____ _____    ______ ____
ROOT
ATOM      1  C   LIG    1       25.125 -25.732   6.420  0.00  0.00    -0.034 A 
ATOM      2  C   LIG    1       25.983 -24.714   6.863  0.00  0.00    +0.005 A 
ATOM      3  C   LIG    1       25.515 -23.408   7.049  0.00  0.00    +0.012 A 
ATOM      4  C   LIG    1       24.166 -23.103   6.846  0.00  0.00    +0.023 A 
ATOM      5  C   LIG    1       23.303 -24.120   6.404  0.00  0.00    +0.012 A 
ATOM      6  C   LIG    1       23.776 -25.422   6.194  0.00  0.00    +0.005 A 
ENDROOT
BRANCH   1   8
ATOM      7  C   LIG    1       26.299 -27.196   4.745  0.00  0.00    +0.024 C 
ATOM      8  C   LIG    1       25.652 -27.134   6.133  0.00  0.00    +0.124 C 
BRANCH   8   9
ATOM      9  C   LIG    1       24.597 -28.235   6.279  0.00  0.00    +0.312 C 
ATOM     10  O   LIG    1       24.304 -28.765   7.340  0.00  0.00    -0.250 OA
BRANCH   9  11
ATOM     11  O   LIG    1       23.938 -28.550   5.138  0.00  0.00    -0.480 OA
ATOM     12  H   LIG    1       24.397 -29.193   4.564  0.00  0.00    +0.295 HD
ENDBRANCH   9  11
ENDBRANCH   8   9
ENDBRANCH   1   8
BRANCH   4  13
ATOM     13  C   LIG    1       23.641 -21.707   6.992  0.00  0.00    +0.200 C 
ATOM     14  O   LIG    1       23.227 -21.405   8.112  0.00  0.00    -0.286 OA
BRANCH  13  15
ATOM     15  C   LIG    1       23.618 -20.789   5.853  0.00  0.00    +0.059 A 
ATOM     16  S   LIG    1       24.999 -20.740   4.824  0.00  0.00    -0.093 S 
ATOM     17  C   LIG    1       24.302 -19.560   3.805  0.00  0.00    +0.046 A 
ATOM     18  C   LIG    1       23.036 -19.213   4.214  0.00  0.00    +0.008 A 
ATOM     19  C   LIG    1       22.638 -19.924   5.390  0.00  0.00    +0.019 A 
ENDBRANCH  13  15
ENDBRANCH   4  13
TORSDOF 5
ENDMDL
MODEL 4
REMARK VINA RESULT:      -8.3      4.758      6.421
REMARK  Name = *****
REMARK                            x       y       z     vdW  Elec       q    Type
REMARK                         _______ _______ _______ _____ _____    ______ ____
ROOT
ATOM      1  C   LIG    1       29.707 -20.290   7.445  0.00  0.00    -0.034 A 
ATOM      2  C   LIG    1       29.416 -19.494   6.326  0.00  0.00    +0.005 A 
ATOM      3  C   LIG    1       28.167 -19.565   5.697  0.00  0.00    +0.012 A 
ATOM      4  C   LIG    1       27.165 -20.397   6.204  0.00  0.00    +0.023 A 
ATOM      5  C   LIG    1       27.451 -21.194   7.325  0.00  0.00    +0.012 A 
ATOM      6  C   LIG    1       28.709 -21.141   7.940  0.00  0.00    +0.005 A 
ENDROOT
BRANCH   1   8
ATOM      7  C   LIG    1       31.272 -21.474   9.019  0.00  0.00    +0.024 C 
ATOM      8  C   LIG    1       31.094 -20.277   8.078  0.00  0.00    +0.124 C 
BRANCH   8   9
ATOM      9  C   LIG    1       31.432 -18.972   8.806  0.00  0.00    +0.312 C 
ATOM     10  O   LIG    1       31.991 -18.021   8.281  0.00  0.00    -0.250 OA
BRANCH   9  11
ATOM     11  O   LIG    1       30.998 -18.904  10.088  0.00  0.00    -0.480 OA
ATOM     12  H   LIG    1       30.975 -18.003  10.465  0.00  0.00    +0.295 HD
ENDBRANCH   9  11
ENDBRANCH   8   9
ENDBRANCH   1   8
BRANCH   4  13
ATOM     13  C   LIG    1       25.834 -20.531   5.529  0.00  0.00    +0.200 C 
ATOM     14  O   LIG    1       25.702 -19.908   4.474  0.00  0.00    -0.286 OA
BRANCH  13  15
ATOM     15  C   LIG    1       24.770 -21.345   6.119  0.00  0.00    +0.059 A 
ATOM     16  S   LIG    1       24.733 -23.026   5.743  0.00  0.00    -0.093 S 
ATOM     17  C   LIG    1       23.353 -23.298   6.712  0.00  0.00    +0.046 A 
ATOM     18  C   LIG    1       22.928 -22.146   7.332  0.00  0.00    +0.008 A 
ATOM     19  C   LIG    1       23.746 -21.021   6.996  0.00  0.00    +0.019 A 
ENDBRANCH  13  15
ENDBRANCH   4  13
TORSDOF 5
ENDMDL
MODEL 5
REMARK VINA RESULT:      -8.2      4.369      5.699
REMARK  Name = *****
REMARK                            x       y       z     vdW  Elec       q    Type
REMARK                         _______ _______ _______ _____ _____    ______ ____
ROOT
ATOM      1  C   LIG    1       28.648 -19.860   7.732  0.00  0.00    -0.034 A 
ATOM      2  C   LIG    1       28.594 -19.808   6.330  0.00  0.00    +0.005 A 
ATOM      3  C   LIG    1       27.454 -20.235   5.638  0.00  0.00    +0.012 A 
ATOM      4  C   LIG    1       26.326 -20.676   6.335  0.00  0.00    +0.023 A 
ATOM      5  C   LIG    1       26.376 -20.729   7.738  0.00  0.00    +0.012 A 
ATOM      6  C   LIG    1       27.525 -20.323   8.430  0.00  0.00    +0.005 A 
ENDROOT
BRANCH   1   8
ATOM      7  C   LIG    1       30.024 -17.955   8.629  0.00  0.00    +0.024 C 
ATOM      8  C   LIG    1       29.920 -19.477   8.482  0.00  0.00    +0.124 C 
BRANCH   8   9
ATOM      9  C   LIG    1       31.201 -20.042   7.861  0.00  0.00    +0.312 C 
ATOM     10  O   LIG    1       31.915 -19.424   7.086  0.00  0.00    -0.250 OA
BRANCH   9  11
ATOM     11  O   LIG    1       31.545 -21.282   8.288  0.00  0.00    -0.480 OA
ATOM     12  H   LIG    1       31.064 -22.012   7.852  0.00  0.00    +0.295 HD
ENDBRANCH   9  11
ENDBRANCH   8   9
ENDBRANCH   1   8
BRANCH   4  13
ATOM     13  C   LIG    1       25.107 -21.183   5.625  0.00  0.00    +0.200 C 
ATOM     14  O   LIG    1       25.042 -22.405   5.478  0.00  0.00    -0.286 OA
BRANCH  13  15
ATOM     15  C   LIG    1       24.085 -20.259   5.131  0.00  0.00    +0.059 A 
ATOM     16  S   LIG    1       24.417 -19.379   3.688  0.00  0.00    -0.093 S 
ATOM     17  C   LIG    1       22.903 -18.591   3.720  0.00  0.00    +0.046 A 
ATOM     18  C   LIG    1       22.139 -18.993   4.791  0.00  0.00    +0.008 A 
ATOM     19  C   LIG    1       22.816 -19.958   5.602  0.00  0.00    +0.019 A 
ENDBRANCH  13  15
ENDBRANCH   4  13
TORSDOF 5
ENDMDL
MODEL 6
REMARK VINA RESULT:      -8.1      4.235      5.881
REMARK  Name = *****
REMARK                            x       y       z     vdW  Elec       q    Type
REMARK                         _______ _______ _______ _____ _____    ______ ____
ROOT
ATOM      1  C   LIG    1       29.161 -20.398   7.315  0.00  0.00    -0.034 A 
ATOM      2  C   LIG    1       28.608 -19.746   6.201  0.00  0.00    +0.005 A 
ATOM      3  C   LIG    1       27.351 -20.111   5.705  0.00  0.00    +0.012 A 
ATOM      4  C   LIG    1       26.597 -21.101   6.342  0.00  0.00    +0.023 A 
ATOM      5  C   LIG    1       27.146 -21.754   7.459  0.00  0.00    +0.012 A 
ATOM      6  C   LIG    1       28.415 -21.405   7.941  0.00  0.00    +0.005 A 
ENDROOT
BRANCH   1   8
ATOM      7  C   LIG    1       31.064 -21.121   8.792  0.00  0.00    +0.024 C 
ATOM      8  C   LIG    1       30.566 -20.061   7.804  0.00  0.00    +0.124 C 
BRANCH   8   9
ATOM      9  C   LIG    1       30.691 -18.661   8.415  0.00  0.00    +0.312 C 
ATOM     10  O   LIG    1       31.512 -17.830   8.057  0.00  0.00    -0.250 OA
BRANCH   9  11
ATOM     11  O   LIG    1       29.764 -18.364   9.358  0.00  0.00    -0.480 OA
ATOM     12  H   LIG    1       30.122 -18.231  10.256  0.00  0.00    +0.295 HD
ENDBRANCH   9  11
ENDBRANCH   8   9
ENDBRANCH   1   8
BRANCH   4  13
ATOM     13  C   LIG    1       25.269 -21.547   5.811  0.00  0.00    +0.200 C 
ATOM     14  O   LIG    1       25.083 -22.765   5.788  0.00  0.00    -0.286 OA
BRANCH  13  15
ATOM     15  C   LIG    1       24.282 -20.575   5.338  0.00  0.00    +0.059 A 
ATOM     16  S   LIG    1       24.564 -19.805   3.823  0.00  0.00    -0.093 S 
ATOM     17  C   LIG    1       23.120 -18.900   3.920  0.00  0.00    +0.046 A 
ATOM     18  C   LIG    1       22.415 -19.181   5.067  0.00  0.00    +0.008 A 
ATOM     19  C   LIG    1       23.080 -20.149   5.883  0.00  0.00    +0.019 A 
ENDBRANCH  13  15
ENDBRANCH   4  13
TORSDOF 5
ENDMDL
MODEL 7
REMARK VINA RESULT:      -8.1      5.159      6.641
REMARK  Name = *****
REMARK                            x       y       z     vdW  Elec       q    Type
REMARK                         _______ _______ _______ _____ _____    ______ ____
ROOT
ATOM      1  C   LIG    1       25.739 -20.402   6.419  0.00  0.00    -0.034 A 
ATOM      2  C   LIG    1       25.933 -20.564   7.799  0.00  0.00    +0.005 A 
ATOM      3  C   LIG    1       27.214 -20.488   8.359  0.00  0.00    +0.012 A 
ATOM      4  C   LIG    1       28.322 -20.198   7.558  0.00  0.00    +0.023 A 
ATOM      5  C   LIG    1       28.131 -20.034   6.176  0.00  0.00    +0.012 A 
ATOM      6  C   LIG    1       26.853 -20.134   5.611  0.00  0.00    +0.005 A 
ENDROOT
BRANCH   1   8
ATOM      7  C   LIG    1       23.343 -21.041   6.844  0.00  0.00    +0.024 C 
ATOM      8  C   LIG    1       24.357 -20.570   5.795  0.00  0.00    +0.124 C 
BRANCH   8   9
ATOM      9  C   LIG    1       24.335 -21.499   4.577  0.00  0.00    +0.312 C 
ATOM     10  O   LIG    1       24.052 -21.136   3.446  0.00  0.00    -0.250 OA
BRANCH   9  11
ATOM     11  O   LIG    1       24.726 -22.773   4.823  0.00  0.00    -0.480 OA
ATOM     12  H   LIG    1       25.569 -23.030   4.404  0.00  0.00    +0.295 HD
ENDBRANCH   9  11
ENDBRANCH   8   9
ENDBRANCH   1   8
BRANCH   4  13
ATOM     13  C   LIG    1       29.711 -20.155   8.118  0.00  0.00    +0.200 C 
ATOM     14  O   LIG    1       30.327 -21.222   8.105  0.00  0.00    -0.286 OA
BRANCH  13  15
ATOM     15  C   LIG    1       30.268 -18.913   8.656  0.00  0.00    +0.059 A 
ATOM     16  S   LIG    1       31.862 -18.466   8.178  0.00  0.00    -0.093 S 
ATOM     17  C   LIG    1       31.829 -17.034   9.107  0.00  0.00    +0.046 A 
ATOM     18  C   LIG    1       30.628 -16.873   9.758  0.00  0.00    +0.008 A 
ATOM     19  C   LIG    1       29.726 -17.952   9.495  0.00  0.00    +0.019 A 
ENDBRANCH  13  15
ENDBRANCH   4  13
TORSDOF 5
ENDMDL
MODEL 8
REMARK VINA RESULT:      -8.0      2.713      7.097
REMARK  Name = *****
REMARK                            x       y       z     vdW  Elec       q    Type
REMARK                         _______ _______ _______ _____ _____    ______ ____
ROOT
ATOM      1  C   LIG    1       24.568 -22.890   7.219  0.00  0.00    -0.034 A 
ATOM      2  C   LIG    1       23.500 -23.686   6.775  0.00  0.00    +0.005 A 
ATOM      3  C   LIG    1       23.717 -24.991   6.316  0.00  0.00    +0.012 A 
ATOM      4  C   LIG    1       25.000 -25.546   6.338  0.00  0.00    +0.023 A 
ATOM      5  C   LIG    1       26.071 -24.753   6.783  0.00  0.00    +0.012 A 
ATOM      6  C   LIG    1       25.858 -23.439   7.220  0.00  0.00    +0.005 A 
ENDROOT
BRANCH   1   8
ATOM      7  C   LIG    1       23.611 -20.666   6.537  0.00  0.00    +0.024 C 
ATOM      8  C   LIG    1       24.345 -21.441   7.637  0.00  0.00    +0.124 C 
BRANCH   8   9
ATOM      9  C   LIG    1       25.628 -20.708   8.041  0.00  0.00    +0.312 C 
ATOM     10  O   LIG    1       26.385 -20.167   7.249  0.00  0.00    -0.250 OA
BRANCH   9  11
ATOM     11  O   LIG    1       25.847 -20.631   9.377  0.00  0.00    -0.480 OA
ATOM     12  H   LIG    1       26.489 -19.948   9.648  0.00  0.00    +0.295 HD
ENDBRANCH   9  11
ENDBRANCH   8   9
ENDBRANCH   1   8
BRANCH   4  13
ATOM     13  C   LIG    1       25.275 -26.921   5.812  0.00  0.00    +0.200 C 
ATOM     14  O   LIG    1       25.630 -26.983   4.634  0.00  0.00    -0.286 OA
BRANCH  13  15
ATOM     15  C   LIG    1       25.105 -28.101   6.662  0.00  0.00    +0.059 A 
ATOM     16  S   LIG    1       24.159 -29.407   6.056  0.00  0.00    -0.093 S 
ATOM     17  C   LIG    1       24.398 -30.343   7.464  0.00  0.00    +0.046 A 
ATOM     18  C   LIG    1       25.196 -29.698   8.379  0.00  0.00    +0.008 A 
ATOM     19  C   LIG    1       25.609 -28.408   7.917  0.00  0.00    +0.019 A 
ENDBRANCH  13  15
ENDBRANCH   4  13
TORSDOF 5
ENDMDL
MODEL 9
REMARK VINA RESULT:      -7.7      5.671      7.315
REMARK  Name = *****
REMARK                            x       y       z     vdW  Elec       q    Type
REMARK                         _______ _______ _______ _____ _____    ______ ____
ROOT
ATOM      1  C   LIG    1       27.095 -20.804   6.356  0.00  0.00    -0.034 A 
ATOM      2  C   LIG    1       27.699 -19.740   5.667  0.00  0.00    +0.005 A 
ATOM      3  C   LIG    1       28.926 -19.214   6.089  0.00  0.00    +0.012 A 
ATOM      4  C   LIG    1       29.600 -19.774   7.178  0.00  0.00    +0.023 A 
ATOM      5  C   LIG    1       28.999 -20.839   7.870  0.00  0.00    +0.012 A 
ATOM      6  C   LIG    1       27.760 -21.350   7.462  0.00  0.00    +0.005 A 
ENDROOT
BRANCH   1   8
ATOM      7  C   LIG    1       25.006 -20.310   5.044  0.00  0.00    +0.024 C 
ATOM      8  C   LIG    1       25.718 -21.320   5.950  0.00  0.00    +0.124 C 
BRANCH   8   9
ATOM      9  C   LIG    1       24.823 -21.697   7.135  0.00  0.00    +0.312 C 
ATOM     10  O   LIG    1       24.521 -22.844   7.426  0.00  0.00    -0.250 OA
BRANCH   9  11
ATOM     11  O   LIG    1       24.430 -20.655   7.908  0.00  0.00    -0.480 OA
ATOM     12  H   LIG    1       23.559 -20.770   8.335  0.00  0.00    +0.295 HD
ENDBRANCH   9  11
ENDBRANCH   8   9
ENDBRANCH   1   8
BRANCH   4  13
ATOM     13  C   LIG    1       30.891 -19.206   7.684  0.00  0.00    +0.200 C 
ATOM     14  O   LIG    1       31.908 -19.584   7.100  0.00  0.00    -0.286 OA
BRANCH  13  15
ATOM     15  C   LIG    1       30.913 -18.278   8.816  0.00  0.00    +0.059 A 
ATOM     16  S   LIG    1       32.309 -17.289   9.025  0.00  0.00    -0.093 S 
ATOM     17  C   LIG    1       31.665 -16.528  10.411  0.00  0.00    +0.046 A 
ATOM     18  C   LIG    1       30.405 -16.991  10.710  0.00  0.00    +0.008 A 
ATOM     19  C   LIG    1       29.968 -17.995   9.789  0.00  0.00    +0.019 A 
ENDBRANCH  13  15
ENDBRANCH   4  13
TORSDOF 5
ENDMDL
