MODEL 1
REMARK VINA RESULT:      -4.9      0.000      0.000
REMARK  Name = *****
REMARK                            x       y       z     vdW  Elec       q    Type
REMARK                         _______ _______ _______ _____ _____    ______ ____
ROOT
ATOM      1  C   LIG    1       25.712 -18.666   3.012  0.00  0.00    +0.169 C 
ATOM      2  O   LIG    1       25.590 -19.252   1.935  0.00  0.00    -0.292 OA
ENDROOT
BRANCH   1  10
ATOM      3  C   LIG    1       27.585 -20.932   7.062  0.00  0.00    +0.149 C 
ATOM      4  N   LIG    1       26.638 -20.435   6.087  0.00  0.00    -0.349 NA
ATOM      5  C   LIG    1       25.279 -20.651   6.131  0.00  0.00    +0.050 C 
ATOM      6  C   LIG    1       24.735 -20.027   5.004  0.00  0.00    +0.010 C 
ATOM      7  C   LIG    1       23.338 -20.107   4.807  0.00  0.00    +0.010 C 
ATOM      8  C   LIG    1       22.539 -20.793   5.729  0.00  0.00    +0.001 C 
ATOM      9  C   LIG    1       23.109 -21.401   6.840  0.00  0.00    +0.002 C 
ATOM     10  C   LIG    1       25.812 -19.419   4.271  0.00  0.00    +0.043 C 
ATOM     11  C   LIG    1       24.486 -21.343   7.062  0.00  0.00    +0.026 C 
ATOM     12  C   LIG    1       26.967 -19.689   4.986  0.00  0.00    +0.098 C 
ENDBRANCH   1  10
BRANCH   1  13
ATOM     13  C   LIG    1       25.742 -17.141   3.050  0.00  0.00    +0.066 C 
ATOM     14  C   LIG    1       24.504 -16.602   3.816  0.00  0.00    +0.066 C 
ATOM     15  C   LIG    1       24.687 -15.148   4.030  0.00  0.00    +0.039 C 
ATOM     16  C   LIG    1       25.881 -14.467   3.993  0.00  0.00    +0.062 C 
ATOM     17  N   LIG    1       25.685 -13.134   4.215  0.00  0.00    -0.241 NA
ATOM     18  C   LIG    1       24.389 -13.008   4.405  0.00  0.00    +0.197 C 
ATOM     19  C   LIG    1       27.186 -15.102   3.684  0.00  0.00    +0.058 C 
ATOM     20  N   LIG    1       23.737 -14.211   4.311  0.00  0.00    -0.348 NA
ATOM     21  H   LIG    1       22.744 -14.360   4.420  0.00  0.00    +0.167 HD
ATOM     22  C   LIG    1       27.064 -16.643   3.693  0.00  0.00    +0.018 C 
ENDBRANCH   1  13
TORSDOF 2
ENDMDL
MODEL 2
REMARK VINA RESULT:      -4.1      1.513      6.131
REMARK  Name = *****
REMARK                            x       y       z     vdW  Elec       q    Type
REMARK                         _______ _______ _______ _____ _____    ______ ____
ROOT
ATOM      1  C   LIG    1       25.945 -17.731   3.288  0.00  0.00    +0.169 C 
ATOM      2  O   LIG    1       26.112 -18.270   2.192  0.00  0.00    -0.292 OA
ENDROOT
BRANCH   1  10
ATOM      3  C   LIG    1       28.431 -13.410   3.722  0.00  0.00    +0.149 C 
ATOM      4  N   LIG    1       27.345 -14.365   3.674  0.00  0.00    -0.349 NA
ATOM      5  C   LIG    1       26.021 -14.059   3.890  0.00  0.00    +0.050 C 
ATOM      6  C   LIG    1       25.306 -15.256   3.776  0.00  0.00    +0.010 C 
ATOM      7  C   LIG    1       23.906 -15.217   3.963  0.00  0.00    +0.010 C 
ATOM      8  C   LIG    1       23.271 -14.004   4.250  0.00  0.00    +0.001 C 
ATOM      9  C   LIG    1       24.008 -12.830   4.355  0.00  0.00    +0.002 C 
ATOM     10  C   LIG    1       26.244 -16.305   3.479  0.00  0.00    +0.043 C 
ATOM     11  C   LIG    1       25.393 -12.835   4.178  0.00  0.00    +0.026 C 
ATOM     12  C   LIG    1       27.490 -15.702   3.415  0.00  0.00    +0.098 C 
ENDBRANCH   1  10
BRANCH   1  13
ATOM     13  C   LIG    1       25.439 -18.553   4.470  0.00  0.00    +0.066 C 
ATOM     14  C   LIG    1       24.081 -19.215   4.117  0.00  0.00    +0.066 C 
ATOM     15  C   LIG    1       23.741 -20.178   5.190  0.00  0.00    +0.039 C 
ATOM     16  C   LIG    1       24.622 -20.741   6.083  0.00  0.00    +0.062 C 
ATOM     17  N   LIG    1       23.969 -21.571   6.950  0.00  0.00    -0.241 NA
ATOM     18  C   LIG    1       22.708 -21.529   6.575  0.00  0.00    +0.197 C 
ATOM     19  C   LIG    1       26.071 -20.424   6.128  0.00  0.00    +0.058 C 
ATOM     20  N   LIG    1       22.520 -20.700   5.499  0.00  0.00    -0.348 NA
ATOM     21  H   LIG    1       21.640 -20.512   5.039  0.00  0.00    +0.167 HD
ATOM     22  C   LIG    1       26.495 -19.614   4.881  0.00  0.00    +0.018 C 
ENDBRANCH   1  13
TORSDOF 2
ENDMDL
MODEL 3
REMARK VINA RESULT:      -4.0      1.294      2.999
REMARK  Name = *****
REMARK                            x       y       z     vdW  Elec       q    Type
REMARK                         _______ _______ _______ _____ _____    ______ ____
ROOT
ATOM      1  C   LIG    1       25.719 -18.073   3.364  0.00  0.00    +0.169 C 
ATOM      2  O   LIG    1       25.707 -18.286   2.150  0.00  0.00    -0.292 OA
ENDROOT
BRANCH   1  10
ATOM      3  C   LIG    1       23.374 -21.541   6.107  0.00  0.00    +0.149 C 
ATOM      4  N   LIG    1       24.425 -20.714   5.553  0.00  0.00    -0.349 NA
ATOM      5  C   LIG    1       25.747 -20.764   5.935  0.00  0.00    +0.050 C 
ATOM      6  C   LIG    1       26.422 -19.799   5.182  0.00  0.00    +0.010 C 
ATOM      7  C   LIG    1       27.810 -19.640   5.391  0.00  0.00    +0.010 C 
ATOM      8  C   LIG    1       28.473 -20.440   6.329  0.00  0.00    +0.001 C 
ATOM      9  C   LIG    1       27.775 -21.392   7.062  0.00  0.00    +0.002 C 
ATOM     10  C   LIG    1       25.463 -19.159   4.321  0.00  0.00    +0.043 C 
ATOM     11  C   LIG    1       26.402 -21.572   6.880  0.00  0.00    +0.026 C 
ATOM     12  C   LIG    1       24.245 -19.767   4.580  0.00  0.00    +0.098 C 
ENDBRANCH   1  10
BRANCH   1  13
ATOM     13  C   LIG    1       25.986 -16.665   3.887  0.00  0.00    +0.066 C 
ATOM     14  C   LIG    1       27.361 -16.158   3.376  0.00  0.00    +0.066 C 
ATOM     15  C   LIG    1       27.479 -14.720   3.708  0.00  0.00    +0.039 C 
ATOM     16  C   LIG    1       26.439 -13.864   3.988  0.00  0.00    +0.062 C 
ATOM     17  N   LIG    1       26.905 -12.612   4.270  0.00  0.00    -0.241 NA
ATOM     18  C   LIG    1       28.212 -12.699   4.144  0.00  0.00    +0.197 C 
ATOM     19  C   LIG    1       25.016 -14.281   4.039  0.00  0.00    +0.058 C 
ATOM     20  N   LIG    1       28.611 -13.963   3.794  0.00  0.00    -0.348 NA
ATOM     21  H   LIG    1       29.562 -14.267   3.640  0.00  0.00    +0.167 HD
ATOM     22  C   LIG    1       24.840 -15.707   3.467  0.00  0.00    +0.018 C 
ENDBRANCH   1  13
TORSDOF 2
ENDMDL
MODEL 4
REMARK VINA RESULT:      -3.7      1.748      2.727
REMARK  Name = *****
REMARK                            x       y       z     vdW  Elec       q    Type
REMARK                         _______ _______ _______ _____ _____    ______ ____
ROOT
ATOM      1  C   LIG    1       25.783 -17.637   3.616  0.00  0.00    +0.169 C 
ATOM      2  O   LIG    1       26.877 -18.184   3.762  0.00  0.00    -0.292 OA
ENDROOT
BRANCH   1  10
ATOM      3  C   LIG    1       20.956 -18.949   3.771  0.00  0.00    +0.149 C 
ATOM      4  N   LIG    1       22.381 -18.942   4.023  0.00  0.00    -0.349 NA
ATOM      5  C   LIG    1       23.031 -19.802   4.878  0.00  0.00    +0.050 C 
ATOM      6  C   LIG    1       24.384 -19.451   4.852  0.00  0.00    +0.010 C 
ATOM      7  C   LIG    1       25.280 -20.187   5.661  0.00  0.00    +0.010 C 
ATOM      8  C   LIG    1       24.806 -21.237   6.454  0.00  0.00    +0.001 C 
ATOM      9  C   LIG    1       23.455 -21.564   6.457  0.00  0.00    +0.002 C 
ATOM     10  C   LIG    1       24.538 -18.344   3.946  0.00  0.00    +0.043 C 
ATOM     11  C   LIG    1       22.544 -20.854   5.672  0.00  0.00    +0.026 C 
ATOM     12  C   LIG    1       23.272 -18.073   3.451  0.00  0.00    +0.098 C 
ENDBRANCH   1  10
BRANCH   1  13
ATOM     13  C   LIG    1       25.710 -16.214   3.070  0.00  0.00    +0.066 C 
ATOM     14  C   LIG    1       24.503 -15.465   3.693  0.00  0.00    +0.066 C 
ATOM     15  C   LIG    1       24.601 -14.034   3.321  0.00  0.00    +0.039 C 
ATOM     16  C   LIG    1       25.738 -13.380   2.910  0.00  0.00    +0.062 C 
ATOM     17  N   LIG    1       25.469 -12.071   2.628  0.00  0.00    -0.241 NA
ATOM     18  C   LIG    1       24.186 -11.925   2.884  0.00  0.00    +0.197 C 
ATOM     19  C   LIG    1       27.056 -14.040   2.737  0.00  0.00    +0.058 C 
ATOM     20  N   LIG    1       23.614 -13.093   3.318  0.00  0.00    -0.348 NA
ATOM     21  H   LIG    1       22.645 -13.223   3.573  0.00  0.00    +0.167 HD
ATOM     22  C   LIG    1       27.042 -15.463   3.341  0.00  0.00    +0.018 C 
ENDBRANCH   1  13
TORSDOF 2
ENDMDL
MODEL 5
REMARK VINA RESULT:      -3.4      1.809      2.822
REMARK  Name = *****
REMARK                            x       y       z     vdW  Elec       q    Type
REMARK                         _______ _______ _______ _____ _____    ______ ____
ROOT
ATOM      1  C   LIG    1       27.451 -17.024   4.016  0.00  0.00    +0.169 C 
ATOM      2  O   LIG    1       28.612 -17.042   4.428  0.00  0.00    -0.292 OA
ENDROOT
BRANCH   1  10
ATOM      3  C   LIG    1       23.787 -20.342   3.232  0.00  0.00    +0.149 C 
ATOM      4  N   LIG    1       24.957 -19.703   3.795  0.00  0.00    -0.349 NA
ATOM      5  C   LIG    1       25.676 -20.184   4.865  0.00  0.00    +0.050 C 
ATOM      6  C   LIG    1       26.705 -19.268   5.104  0.00  0.00    +0.010 C 
ATOM      7  C   LIG    1       27.595 -19.529   6.170  0.00  0.00    +0.010 C 
ATOM      8  C   LIG    1       27.436 -20.679   6.951  0.00  0.00    +0.001 C 
ATOM      9  C   LIG    1       26.403 -21.572   6.688  0.00  0.00    +0.002 C 
ATOM     10  C   LIG    1       26.591 -18.210   4.137  0.00  0.00    +0.043 C 
ATOM     11  C   LIG    1       25.506 -21.341   5.643  0.00  0.00    +0.026 C 
ATOM     12  C   LIG    1       25.501 -18.530   3.343  0.00  0.00    +0.098 C 
ENDBRANCH   1  10
BRANCH   1  13
ATOM     13  C   LIG    1       26.896 -15.764   3.357  0.00  0.00    +0.066 C 
ATOM     14  C   LIG    1       25.430 -15.528   3.807  0.00  0.00    +0.066 C 
ATOM     15  C   LIG    1       25.009 -14.189   3.336  0.00  0.00    +0.039 C 
ATOM     16  C   LIG    1       25.844 -13.155   2.981  0.00  0.00    +0.062 C 
ATOM     17  N   LIG    1       25.124 -12.068   2.574  0.00  0.00    -0.241 NA
ATOM     18  C   LIG    1       23.864 -12.429   2.700  0.00  0.00    +0.197 C 
ATOM     19  C   LIG    1       27.325 -13.250   2.980  0.00  0.00    +0.058 C 
ATOM     20  N   LIG    1       23.743 -13.712   3.169  0.00  0.00    -0.348 NA
ATOM     21  H   LIG    1       22.877 -14.202   3.345  0.00  0.00    +0.167 HD
ATOM     22  C   LIG    1       27.793 -14.542   3.689  0.00  0.00    +0.018 C 
ENDBRANCH   1  13
TORSDOF 2
ENDMDL
MODEL 6
REMARK VINA RESULT:      -2.8      1.688      6.214
REMARK  Name = *****
REMARK                            x       y       z     vdW  Elec       q    Type
REMARK                         _______ _______ _______ _____ _____    ______ ____
ROOT
ATOM      1  C   LIG    1       25.339 -18.278   3.546  0.00  0.00    +0.169 C 
ATOM      2  O   LIG    1       24.312 -18.608   2.950  0.00  0.00    -0.292 OA
ENDROOT
BRANCH   1  10
ATOM      3  C   LIG    1       28.235 -14.202   3.335  0.00  0.00    +0.149 C 
ATOM      4  N   LIG    1       27.067 -15.045   3.470  0.00  0.00    -0.349 NA
ATOM      5  C   LIG    1       25.799 -14.590   3.752  0.00  0.00    +0.050 C 
ATOM      6  C   LIG    1       24.972 -15.715   3.819  0.00  0.00    +0.010 C 
ATOM      7  C   LIG    1       23.602 -15.521   4.106  0.00  0.00    +0.010 C 
ATOM      8  C   LIG    1       23.106 -14.228   4.311  0.00  0.00    +0.001 C 
ATOM      9  C   LIG    1       23.953 -13.129   4.236  0.00  0.00    +0.002 C 
ATOM     10  C   LIG    1       25.782 -16.877   3.563  0.00  0.00    +0.043 C 
ATOM     11  C   LIG    1       25.312 -13.288   3.957  0.00  0.00    +0.026 C 
ATOM     12  C   LIG    1       27.067 -16.409   3.343  0.00  0.00    +0.098 C 
ENDBRANCH   1  10
BRANCH   1  13
ATOM     13  C   LIG    1       26.177 -19.334   4.262  0.00  0.00    +0.066 C 
ATOM     14  C   LIG    1       27.388 -18.666   4.966  0.00  0.00    +0.066 C 
ATOM     15  C   LIG    1       28.037 -19.677   5.832  0.00  0.00    +0.039 C 
ATOM     16  C   LIG    1       27.460 -20.833   6.303  0.00  0.00    +0.062 C 
ATOM     17  N   LIG    1       28.347 -21.546   7.057  0.00  0.00    -0.241 NA
ATOM     18  C   LIG    1       29.447 -20.822   7.062  0.00  0.00    +0.197 C 
ATOM     19  C   LIG    1       26.079 -21.263   5.969  0.00  0.00    +0.058 C 
ATOM     20  N   LIG    1       29.305 -19.668   6.335  0.00  0.00    -0.348 NA
ATOM     21  H   LIG    1       30.012 -18.960   6.197  0.00  0.00    +0.167 HD
ATOM     22  C   LIG    1       25.301 -20.123   5.271  0.00  0.00    +0.018 C 
ENDBRANCH   1  13
TORSDOF 2
ENDMDL
MODEL 7
REMARK VINA RESULT:      -2.8      1.258      2.053
REMARK  Name = *****
REMARK                            x       y       z     vdW  Elec       q    Type
REMARK                         _______ _______ _______ _____ _____    ______ ____
ROOT
ATOM      1  C   LIG    1       25.802 -17.870   3.540  0.00  0.00    +0.169 C 
ATOM      2  O   LIG    1       25.491 -18.081   2.366  0.00  0.00    -0.292 OA
ENDROOT
BRANCH   1  10
ATOM      3  C   LIG    1       27.355 -21.279   6.858  0.00  0.00    +0.149 C 
ATOM      4  N   LIG    1       26.486 -20.489   6.013  0.00  0.00    -0.349 NA
ATOM      5  C   LIG    1       25.125 -20.664   5.904  0.00  0.00    +0.050 C 
ATOM      6  C   LIG    1       24.669 -19.721   4.978  0.00  0.00    +0.010 C 
ATOM      7  C   LIG    1       23.289 -19.695   4.676  0.00  0.00    +0.010 C 
ATOM      8  C   LIG    1       22.419 -20.594   5.302  0.00  0.00    +0.001 C 
ATOM      9  C   LIG    1       22.901 -21.519   6.221  0.00  0.00    +0.002 C 
ATOM     10  C   LIG    1       25.803 -18.960   4.526  0.00  0.00    +0.043 C 
ATOM     11  C   LIG    1       24.260 -21.572   6.538  0.00  0.00    +0.026 C 
ATOM     12  C   LIG    1       26.902 -19.465   5.203  0.00  0.00    +0.098 C 
ENDBRANCH   1  10
BRANCH   1  13
ATOM     13  C   LIG    1       26.174 -16.459   3.987  0.00  0.00    +0.066 C 
ATOM     14  C   LIG    1       27.611 -16.113   3.517  0.00  0.00    +0.066 C 
ATOM     15  C   LIG    1       27.847 -14.672   3.764  0.00  0.00    +0.039 C 
ATOM     16  C   LIG    1       26.879 -13.710   3.935  0.00  0.00    +0.062 C 
ATOM     17  N   LIG    1       27.445 -12.488   4.162  0.00  0.00    -0.241 NA
ATOM     18  C   LIG    1       28.743 -12.700   4.110  0.00  0.00    +0.197 C 
ATOM     19  C   LIG    1       25.422 -13.993   3.937  0.00  0.00    +0.058 C 
ATOM     20  N   LIG    1       29.038 -14.015   3.861  0.00  0.00    -0.348 NA
ATOM     21  H   LIG    1       29.964 -14.413   3.777  0.00  0.00    +0.167 HD
ATOM     22  C   LIG    1       25.141 -15.433   3.448  0.00  0.00    +0.018 C 
ENDBRANCH   1  13
TORSDOF 2
ENDMDL
MODEL 8
REMARK VINA RESULT:      -2.5      0.894      2.644
REMARK  Name = *****
REMARK                            x       y       z     vdW  Elec       q    Type
REMARK                         _______ _______ _______ _____ _____    ______ ____
ROOT
ATOM      1  C   LIG    1       25.620 -18.624   3.039  0.00  0.00    +0.169 C 
ATOM      2  O   LIG    1       25.269 -19.172   1.993  0.00  0.00    -0.292 OA
ENDROOT
BRANCH   1  10
ATOM      3  C   LIG    1       24.794 -21.566   7.002  0.00  0.00    +0.149 C 
ATOM      4  N   LIG    1       25.472 -20.723   6.042  0.00  0.00    -0.349 NA
ATOM      5  C   LIG    1       26.795 -20.353   6.118  0.00  0.00    +0.050 C 
ATOM      6  C   LIG    1       27.048 -19.526   5.020  0.00  0.00    +0.010 C 
ATOM      7  C   LIG    1       28.350 -18.998   4.867  0.00  0.00    +0.010 C 
ATOM      8  C   LIG    1       29.346 -19.311   5.799  0.00  0.00    +0.001 C 
ATOM      9  C   LIG    1       29.065 -20.137   6.880  0.00  0.00    +0.002 C 
ATOM     10  C   LIG    1       25.829 -19.406   4.266  0.00  0.00    +0.043 C 
ATOM     11  C   LIG    1       27.788 -20.672   7.061  0.00  0.00    +0.026 C 
ATOM     12  C   LIG    1       24.886 -20.173   4.932  0.00  0.00    +0.098 C 
ENDBRANCH   1  10
BRANCH   1  13
ATOM     13  C   LIG    1       25.826 -17.112   3.074  0.00  0.00    +0.066 C 
ATOM     14  C   LIG    1       24.631 -16.428   3.789  0.00  0.00    +0.066 C 
ATOM     15  C   LIG    1       24.973 -15.004   4.007  0.00  0.00    +0.039 C 
ATOM     16  C   LIG    1       26.239 -14.466   4.015  0.00  0.00    +0.062 C 
ATOM     17  N   LIG    1       26.192 -13.117   4.225  0.00  0.00    -0.241 NA
ATOM     18  C   LIG    1       24.912 -12.840   4.364  0.00  0.00    +0.197 C 
ATOM     19  C   LIG    1       27.473 -15.250   3.759  0.00  0.00    +0.058 C 
ATOM     20  N   LIG    1       24.129 -13.960   4.247  0.00  0.00    -0.348 NA
ATOM     21  H   LIG    1       23.122 -13.992   4.318  0.00  0.00    +0.167 HD
ATOM     22  C   LIG    1       27.171 -16.767   3.767  0.00  0.00    +0.018 C 
ENDBRANCH   1  13
TORSDOF 2
ENDMDL
MODEL 9
REMARK VINA RESULT:      -2.5      2.082      2.774
REMARK  Name = *****
REMARK                            x       y       z     vdW  Elec       q    Type
REMARK                         _______ _______ _______ _____ _____    ______ ____
ROOT
ATOM      1  C   LIG    1       26.238 -16.833   3.551  0.00  0.00    +0.169 C 
ATOM      2  O   LIG    1       27.456 -16.911   3.726  0.00  0.00    -0.292 OA
ENDROOT
BRANCH   1  10
ATOM      3  C   LIG    1       24.668 -21.572   3.901  0.00  0.00    +0.149 C 
ATOM      4  N   LIG    1       24.660 -20.125   3.891  0.00  0.00    -0.349 NA
ATOM      5  C   LIG    1       23.539 -19.344   4.060  0.00  0.00    +0.050 C 
ATOM      6  C   LIG    1       23.955 -18.013   3.962  0.00  0.00    +0.010 C 
ATOM      7  C   LIG    1       22.981 -16.998   4.094  0.00  0.00    +0.010 C 
ATOM      8  C   LIG    1       21.642 -17.338   4.319  0.00  0.00    +0.001 C 
ATOM      9  C   LIG    1       21.259 -18.670   4.413  0.00  0.00    +0.002 C 
ATOM     10  C   LIG    1       25.375 -18.009   3.731  0.00  0.00    +0.043 C 
ATOM     11  C   LIG    1       22.198 -19.696   4.285  0.00  0.00    +0.026 C 
ATOM     12  C   LIG    1       25.766 -19.338   3.706  0.00  0.00    +0.098 C 
ENDBRANCH   1  10
BRANCH   1  13
ATOM     13  C   LIG    1       25.614 -15.507   3.124  0.00  0.00    +0.066 C 
ATOM     14  C   LIG    1       24.959 -14.810   4.345  0.00  0.00    +0.066 C 
ATOM     15  C   LIG    1       24.573 -13.437   3.944  0.00  0.00    +0.039 C 
ATOM     16  C   LIG    1       25.082 -12.730   2.881  0.00  0.00    +0.062 C 
ATOM     17  N   LIG    1       24.491 -11.502   2.787  0.00  0.00    -0.241 NA
ATOM     18  C   LIG    1       23.645 -11.455   3.794  0.00  0.00    +0.197 C 
ATOM     19  C   LIG    1       26.089 -13.270   1.933  0.00  0.00    +0.058 C 
ATOM     20  N   LIG    1       23.665 -12.609   4.535  0.00  0.00    -0.348 NA
ATOM     21  H   LIG    1       23.104 -12.801   5.353  0.00  0.00    +0.167 HD
ATOM     22  C   LIG    1       26.682 -14.598   2.460  0.00  0.00    +0.018 C 
ENDBRANCH   1  13
TORSDOF 2
ENDMDL
