MODEL 1
REMARK VINA RESULT:      -3.9      0.000      0.000
REMARK  Name = *****
REMARK                            x       y       z     vdW  Elec       q    Type
REMARK                         _______ _______ _______ _____ _____    ______ ____
ROOT
ATOM      1  C   LIG    1       23.645 -20.424   4.761  0.00  0.00    +0.165 A 
ATOM      2  C   LIG    1       25.057 -20.458   4.883  0.00  0.00    +0.204 A 
ATOM      3  C   LIG    1       25.863 -19.372   4.406  0.00  0.00    +0.170 A 
ATOM      4  C   LIG    1       25.240 -18.297   3.728  0.00  0.00    +0.012 A 
ATOM      5  C   LIG    1       23.883 -18.293   3.762  0.00  0.00    +0.012 A 
ATOM      6  C   LIG    1       23.088 -19.359   4.055  0.00  0.00    +0.050 A 
ENDROOT
BRANCH   1   8
ATOM      7  C   LIG    1       21.440 -21.373   4.802  0.00  0.00    +0.277 C 
ATOM      8  O   LIG    1       22.782 -21.326   5.330  0.00  0.00    -0.491 OA
ENDBRANCH   1   8
BRANCH   2   9
ATOM      9  O   LIG    1       25.707 -21.526   5.471  0.00  0.00    -0.488 OA
ATOM     10  C   LIG    1       25.637 -21.572   6.898  0.00  0.00    +0.277 C 
ENDBRANCH   2   9
BRANCH   3  11
ATOM     11  O   LIG    1       27.205 -19.155   4.496  0.00  0.00    -0.491 OA
ATOM     12  C   LIG    1       27.950 -19.487   5.649  0.00  0.00    +0.277 C 
ENDBRANCH   3  11
BRANCH   4  13
ATOM     13  C   LIG    1       25.997 -17.129   3.105  0.00  0.00    +0.123 C 
BRANCH  13  14
ATOM     14  N   LIG    1       26.052 -15.832   3.828  0.00  0.00    -0.296 NA
ATOM     15  C   LIG    1       27.318 -15.096   3.729  0.00  0.00    +0.100 C 
ATOM     16  C   LIG    1       27.370 -14.065   2.585  0.00  0.00    +0.096 C 
ATOM     17  N   LIG    1       26.287 -13.061   2.689  0.00  0.00    -0.314 NA
ATOM     18  H   LIG    1       26.361 -12.590   3.586  0.00  0.00    +0.122 HD
ATOM     19  C   LIG    1       25.008 -13.770   2.665  0.00  0.00    +0.096 C 
ATOM     20  C   LIG    1       24.898 -14.928   3.722  0.00  0.00    +0.100 C 
ENDBRANCH  13  14
ENDBRANCH   4  13
TORSDOF 5
ENDMDL
MODEL 2
REMARK VINA RESULT:      -3.8      1.410      3.202
REMARK  Name = *****
REMARK                            x       y       z     vdW  Elec       q    Type
REMARK                         _______ _______ _______ _____ _____    ______ ____
ROOT
ATOM      1  C   LIG    1       27.378 -20.070   5.574  0.00  0.00    +0.165 A 
ATOM      2  C   LIG    1       26.084 -20.134   5.000  0.00  0.00    +0.204 A 
ATOM      3  C   LIG    1       25.606 -19.087   4.144  0.00  0.00    +0.170 A 
ATOM      4  C   LIG    1       26.410 -17.939   3.944  0.00  0.00    +0.012 A 
ATOM      5  C   LIG    1       27.672 -18.018   4.435  0.00  0.00    +0.012 A 
ATOM      6  C   LIG    1       28.112 -18.902   5.372  0.00  0.00    +0.050 A 
ENDROOT
BRANCH   1   8
ATOM      7  C   LIG    1       29.138 -20.743   7.062  0.00  0.00    +0.277 C 
ATOM      8  O   LIG    1       27.987 -21.088   6.264  0.00  0.00    -0.491 OA
ENDBRANCH   1   8
BRANCH   2   9
ATOM      9  O   LIG    1       25.241 -21.203   5.234  0.00  0.00    -0.488 OA
ATOM     10  C   LIG    1       24.517 -21.149   6.466  0.00  0.00    +0.277 C 
ENDBRANCH   2   9
BRANCH   3  11
ATOM     11  O   LIG    1       24.453 -18.984   3.426  0.00  0.00    -0.491 OA
ATOM     12  C   LIG    1       23.193 -18.800   4.038  0.00  0.00    +0.277 C 
ENDBRANCH   3  11
BRANCH   4  13
ATOM     13  C   LIG    1       25.977 -16.729   3.125  0.00  0.00    +0.123 C 
BRANCH  13  14
ATOM     14  N   LIG    1       25.996 -15.382   3.754  0.00  0.00    -0.296 NA
ATOM     15  C   LIG    1       26.906 -14.404   3.147  0.00  0.00    +0.100 C 
ATOM     16  C   LIG    1       26.259 -13.510   2.071  0.00  0.00    +0.096 C 
ATOM     17  N   LIG    1       25.095 -12.760   2.594  0.00  0.00    -0.314 NA
ATOM     18  H   LIG    1       25.397 -12.193   3.382  0.00  0.00    +0.122 HD
ATOM     19  C   LIG    1       24.119 -13.728   3.094  0.00  0.00    +0.096 C 
ATOM     20  C   LIG    1       24.711 -14.766   4.114  0.00  0.00    +0.100 C 
ENDBRANCH  13  14
ENDBRANCH   4  13
TORSDOF 5
ENDMDL
MODEL 3
REMARK VINA RESULT:      -3.6      3.160      6.283
REMARK  Name = *****
REMARK                            x       y       z     vdW  Elec       q    Type
REMARK                         _______ _______ _______ _____ _____    ______ ____
ROOT
ATOM      1  C   LIG    1       24.294 -13.971   4.168  0.00  0.00    +0.165 A 
ATOM      2  C   LIG    1       25.600 -14.435   3.872  0.00  0.00    +0.204 A 
ATOM      3  C   LIG    1       25.849 -15.827   3.634  0.00  0.00    +0.170 A 
ATOM      4  C   LIG    1       24.789 -16.753   3.783  0.00  0.00    +0.012 A 
ATOM      5  C   LIG    1       23.558 -16.209   3.952  0.00  0.00    +0.012 A 
ATOM      6  C   LIG    1       23.296 -14.929   4.338  0.00  0.00    +0.050 A 
ENDROOT
BRANCH   1   8
ATOM      7  C   LIG    1       23.943 -11.890   3.023  0.00  0.00    +0.277 C 
ATOM      8  O   LIG    1       23.924 -12.652   4.247  0.00  0.00    -0.491 OA
ENDBRANCH   1   8
BRANCH   2   9
ATOM      9  O   LIG    1       26.674 -13.570   3.794  0.00  0.00    -0.488 OA
ATOM     10  C   LIG    1       27.341 -13.313   5.032  0.00  0.00    +0.277 C 
ENDBRANCH   2   9
BRANCH   3  11
ATOM     11  O   LIG    1       26.987 -16.473   3.253  0.00  0.00    -0.491 OA
ATOM     12  C   LIG    1       27.965 -16.895   4.180  0.00  0.00    +0.277 C 
ENDBRANCH   3  11
BRANCH   4  13
ATOM     13  C   LIG    1       24.950 -18.262   3.637  0.00  0.00    +0.123 C 
BRANCH  13  14
ATOM     14  N   LIG    1       23.737 -19.119   3.582  0.00  0.00    -0.296 NA
ATOM     15  C   LIG    1       23.954 -20.513   3.180  0.00  0.00    +0.100 C 
ATOM     16  C   LIG    1       24.169 -21.491   4.351  0.00  0.00    +0.096 C 
ATOM     17  N   LIG    1       23.033 -21.482   5.301  0.00  0.00    -0.314 NA
ATOM     18  H   LIG    1       22.183 -21.721   4.799  0.00  0.00    +0.122 HD
ATOM     19  C   LIG    1       22.878 -20.119   5.809  0.00  0.00    +0.096 C 
ATOM     20  C   LIG    1       22.770 -19.025   4.686  0.00  0.00    +0.100 C 
ENDBRANCH  13  14
ENDBRANCH   4  13
TORSDOF 5
ENDMDL
MODEL 4
REMARK VINA RESULT:      -3.4      3.210      6.906
REMARK  Name = *****
REMARK                            x       y       z     vdW  Elec       q    Type
REMARK                         _______ _______ _______ _____ _____    ______ ____
ROOT
ATOM      1  C   LIG    1       26.569 -13.947   3.414  0.00  0.00    +0.165 A 
ATOM      2  C   LIG    1       25.174 -13.924   3.663  0.00  0.00    +0.204 A 
ATOM      3  C   LIG    1       24.437 -15.143   3.833  0.00  0.00    +0.170 A 
ATOM      4  C   LIG    1       25.101 -16.381   3.662  0.00  0.00    +0.012 A 
ATOM      5  C   LIG    1       26.451 -16.306   3.541  0.00  0.00    +0.012 A 
ATOM      6  C   LIG    1       27.165 -15.192   3.220  0.00  0.00    +0.050 A 
ENDROOT
BRANCH   1   8
ATOM      7  C   LIG    1       28.743 -13.031   3.858  0.00  0.00    +0.277 C 
ATOM      8  O   LIG    1       27.387 -12.846   3.402  0.00  0.00    -0.491 OA
ENDBRANCH   1   8
BRANCH   2   9
ATOM      9  O   LIG    1       24.476 -12.736   3.761  0.00  0.00    -0.488 OA
ATOM     10  C   LIG    1       24.159 -12.112   2.515  0.00  0.00    +0.277 C 
ENDBRANCH   2   9
BRANCH   3  11
ATOM     11  O   LIG    1       23.132 -15.352   4.162  0.00  0.00    -0.491 OA
ATOM     12  C   LIG    1       22.649 -15.200   5.481  0.00  0.00    +0.277 C 
ENDBRANCH   3  11
BRANCH   4  13
ATOM     13  C   LIG    1       24.409 -17.736   3.735  0.00  0.00    +0.123 C 
BRANCH  13  14
ATOM     14  N   LIG    1       25.193 -18.968   3.458  0.00  0.00    -0.296 NA
ATOM     15  C   LIG    1       26.196 -19.330   4.466  0.00  0.00    +0.100 C 
ATOM     16  C   LIG    1       25.695 -20.309   5.545  0.00  0.00    +0.096 C 
ATOM     17  N   LIG    1       25.187 -21.571   4.960  0.00  0.00    -0.314 NA
ATOM     18  H   LIG    1       25.929 -22.003   4.415  0.00  0.00    +0.122 HD
ATOM     19  C   LIG    1       24.099 -21.239   4.040  0.00  0.00    +0.096 C 
ATOM     20  C   LIG    1       24.475 -20.153   2.968  0.00  0.00    +0.100 C 
ENDBRANCH  13  14
ENDBRANCH   4  13
TORSDOF 5
ENDMDL
MODEL 5
REMARK VINA RESULT:      -3.2      0.990      1.452
REMARK  Name = *****
REMARK                            x       y       z     vdW  Elec       q    Type
REMARK                         _______ _______ _______ _____ _____    ______ ____
ROOT
ATOM      1  C   LIG    1       24.428 -20.356   4.244  0.00  0.00    +0.165 A 
ATOM      2  C   LIG    1       25.697 -20.285   4.872  0.00  0.00    +0.204 A 
ATOM      3  C   LIG    1       26.533 -19.131   4.712  0.00  0.00    +0.170 A 
ATOM      4  C   LIG    1       26.116 -18.092   3.845  0.00  0.00    +0.012 A 
ATOM      5  C   LIG    1       24.845 -18.193   3.382  0.00  0.00    +0.012 A 
ATOM      6  C   LIG    1       24.084 -19.323   3.375  0.00  0.00    +0.050 A 
ENDROOT
BRANCH   1   8
ATOM      7  C   LIG    1       22.317 -20.959   5.216  0.00  0.00    +0.277 C 
ATOM      8  O   LIG    1       23.491 -21.334   4.466  0.00  0.00    -0.491 OA
ENDBRANCH   1   8
BRANCH   2   9
ATOM      9  O   LIG    1       26.171 -21.313   5.665  0.00  0.00    -0.488 OA
ATOM     10  C   LIG    1       25.694 -21.312   7.012  0.00  0.00    +0.277 C 
ENDBRANCH   2   9
BRANCH   3  11
ATOM     11  O   LIG    1       27.728 -18.814   5.283  0.00  0.00    -0.491 OA
ATOM     12  C   LIG    1       28.651 -19.797   5.703  0.00  0.00    +0.277 C 
ENDBRANCH   3  11
BRANCH   4  13
ATOM     13  C   LIG    1       26.954 -16.858   3.531  0.00  0.00    +0.123 C 
BRANCH  13  14
ATOM     14  N   LIG    1       26.287 -15.650   2.979  0.00  0.00    -0.296 NA
ATOM     15  C   LIG    1       25.127 -15.157   3.731  0.00  0.00    +0.100 C 
ATOM     16  C   LIG    1       25.456 -14.073   4.776  0.00  0.00    +0.096 C 
ATOM     17  N   LIG    1       26.117 -12.895   4.168  0.00  0.00    -0.314 NA
ATOM     18  H   LIG    1       25.509 -12.513   3.448  0.00  0.00    +0.122 HD
ATOM     19  C   LIG    1       27.344 -13.350   3.515  0.00  0.00    +0.096 C 
ATOM     20  C   LIG    1       27.133 -14.542   2.512  0.00  0.00    +0.100 C 
ENDBRANCH  13  14
ENDBRANCH   4  13
TORSDOF 5
ENDMDL
MODEL 6
REMARK VINA RESULT:      -1.9      1.687      2.310
REMARK  Name = *****
REMARK                            x       y       z     vdW  Elec       q    Type
REMARK                         _______ _______ _______ _____ _____    ______ ____
ROOT
ATOM      1  C   LIG    1       23.272 -19.834   4.743  0.00  0.00    +0.165 A 
ATOM      2  C   LIG    1       24.402 -19.282   4.089  0.00  0.00    +0.204 A 
ATOM      3  C   LIG    1       24.452 -17.888   3.758  0.00  0.00    +0.170 A 
ATOM      4  C   LIG    1       23.321 -17.077   4.014  0.00  0.00    +0.012 A 
ATOM      5  C   LIG    1       22.337 -17.661   4.744  0.00  0.00    +0.012 A 
ATOM      6  C   LIG    1       22.174 -18.999   4.939  0.00  0.00    +0.050 A 
ENDROOT
BRANCH   1   8
ATOM      7  C   LIG    1       23.211 -21.248   6.682  0.00  0.00    +0.277 C 
ATOM      8  O   LIG    1       23.195 -21.108   5.247  0.00  0.00    -0.491 OA
ENDBRANCH   1   8
BRANCH   2   9
ATOM      9  O   LIG    1       25.494 -20.059   3.754  0.00  0.00    -0.488 OA
ATOM     10  C   LIG    1       26.334 -20.433   4.849  0.00  0.00    +0.277 C 
ENDBRANCH   2   9
BRANCH   3  11
ATOM     11  O   LIG    1       25.454 -17.138   3.219  0.00  0.00    -0.491 OA
ATOM     12  C   LIG    1       26.790 -17.224   3.669  0.00  0.00    +0.277 C 
ENDBRANCH   3  11
BRANCH   4  13
ATOM     13  C   LIG    1       23.225 -15.604   3.633  0.00  0.00    +0.123 C 
BRANCH  13  14
ATOM     14  N   LIG    1       24.371 -14.704   3.922  0.00  0.00    -0.296 NA
ATOM     15  C   LIG    1       25.083 -14.176   2.751  0.00  0.00    +0.100 C 
ATOM     16  C   LIG    1       24.578 -12.806   2.260  0.00  0.00    +0.096 C 
ATOM     17  N   LIG    1       24.650 -11.772   3.318  0.00  0.00    -0.314 NA
ATOM     18  H   LIG    1       25.612 -11.696   3.638  0.00  0.00    +0.122 HD
ATOM     19  C   LIG    1       23.843 -12.226   4.451  0.00  0.00    +0.096 C 
ATOM     20  C   LIG    1       24.201 -13.672   4.955  0.00  0.00    +0.100 C 
ENDBRANCH  13  14
ENDBRANCH   4  13
TORSDOF 5
ENDMDL
MODEL 7
REMARK VINA RESULT:      -1.8      1.970      3.317
REMARK  Name = *****
REMARK                            x       y       z     vdW  Elec       q    Type
REMARK                         _______ _______ _______ _____ _____    ______ ____
ROOT
ATOM      1  C   LIG    1       24.289 -19.634   4.062  0.00  0.00    +0.165 A 
ATOM      2  C   LIG    1       23.302 -18.652   4.328  0.00  0.00    +0.204 A 
ATOM      3  C   LIG    1       23.559 -17.264   4.074  0.00  0.00    +0.170 A 
ATOM      4  C   LIG    1       24.845 -16.869   3.634  0.00  0.00    +0.012 A 
ATOM      5  C   LIG    1       25.683 -17.883   3.297  0.00  0.00    +0.012 A 
ATOM      6  C   LIG    1       25.547 -19.187   3.664  0.00  0.00    +0.050 A 
ENDROOT
BRANCH   1   8
ATOM      7  C   LIG    1       23.787 -21.563   5.401  0.00  0.00    +0.277 C 
ATOM      8  O   LIG    1       24.087 -20.991   4.112  0.00  0.00    -0.491 OA
ENDBRANCH   1   8
BRANCH   2   9
ATOM      9  O   LIG    1       22.061 -18.991   4.830  0.00  0.00    -0.488 OA
ATOM     10  C   LIG    1       21.013 -19.069   3.861  0.00  0.00    +0.277 C 
ENDBRANCH   2   9
BRANCH   3  11
ATOM     11  O   LIG    1       22.742 -16.178   4.169  0.00  0.00    -0.491 OA
ATOM     12  C   LIG    1       22.285 -15.680   5.409  0.00  0.00    +0.277 C 
ENDBRANCH   3  11
BRANCH   4  13
ATOM     13  C   LIG    1       25.261 -15.420   3.410  0.00  0.00    +0.123 C 
BRANCH  13  14
ATOM     14  N   LIG    1       26.681 -15.113   3.096  0.00  0.00    -0.296 NA
ATOM     15  C   LIG    1       26.905 -14.018   2.145  0.00  0.00    +0.100 C 
ATOM     16  C   LIG    1       27.113 -12.637   2.797  0.00  0.00    +0.096 C 
ATOM     17  N   LIG    1       28.250 -12.633   3.745  0.00  0.00    -0.314 NA
ATOM     18  H   LIG    1       29.092 -12.915   3.250  0.00  0.00    +0.122 HD
ATOM     19  C   LIG    1       27.985 -13.638   4.774  0.00  0.00    +0.096 C 
ATOM     20  C   LIG    1       27.643 -15.063   4.206  0.00  0.00    +0.100 C 
ENDBRANCH  13  14
ENDBRANCH   4  13
TORSDOF 5
ENDMDL
MODEL 8
REMARK VINA RESULT:      -1.8      3.167      6.235
REMARK  Name = *****
REMARK                            x       y       z     vdW  Elec       q    Type
REMARK                         _______ _______ _______ _____ _____    ______ ____
ROOT
ATOM      1  C   LIG    1       25.339 -16.181   3.752  0.00  0.00    +0.165 A 
ATOM      2  C   LIG    1       23.981 -16.392   4.094  0.00  0.00    +0.204 A 
ATOM      3  C   LIG    1       23.394 -17.697   4.003  0.00  0.00    +0.170 A 
ATOM      4  C   LIG    1       24.163 -18.765   3.482  0.00  0.00    +0.012 A 
ATOM      5  C   LIG    1       25.480 -18.497   3.292  0.00  0.00    +0.012 A 
ATOM      6  C   LIG    1       26.040 -17.258   3.212  0.00  0.00    +0.050 A 
ENDROOT
BRANCH   1   8
ATOM      7  C   LIG    1       26.902 -14.570   2.898  0.00  0.00    +0.277 C 
ATOM      8  O   LIG    1       26.035 -15.016   3.960  0.00  0.00    -0.491 OA
ENDBRANCH   1   8
BRANCH   2   9
ATOM      9  O   LIG    1       23.176 -15.358   4.534  0.00  0.00    -0.488 OA
ATOM     10  C   LIG    1       23.324 -14.127   3.823  0.00  0.00    +0.277 C 
ENDBRANCH   2   9
BRANCH   3  11
ATOM     11  O   LIG    1       22.156 -18.141   4.358  0.00  0.00    -0.491 OA
ATOM     12  C   LIG    1       21.027 -17.985   3.524  0.00  0.00    +0.277 C 
ENDBRANCH   3  11
BRANCH   4  13
ATOM     13  C   LIG    1       23.625 -20.174   3.262  0.00  0.00    +0.123 C 
BRANCH  13  14
ATOM     14  N   LIG    1       23.815 -21.197   4.322  0.00  0.00    -0.296 NA
ATOM     15  C   LIG    1       25.205 -21.528   4.654  0.00  0.00    +0.100 C 
ATOM     16  C   LIG    1       25.797 -20.712   5.819  0.00  0.00    +0.096 C 
ATOM     17  N   LIG    1       25.005 -20.858   7.062  0.00  0.00    -0.314 NA
ATOM     18  H   LIG    1       24.964 -21.843   7.311  0.00  0.00    +0.122 HD
ATOM     19  C   LIG    1       23.639 -20.415   6.783  0.00  0.00    +0.096 C 
ATOM     20  C   LIG    1       22.984 -21.105   5.532  0.00  0.00    +0.100 C 
ENDBRANCH  13  14
ENDBRANCH   4  13
TORSDOF 5
ENDMDL
MODEL 9
REMARK VINA RESULT:      -1.8      1.472      1.943
REMARK  Name = *****
REMARK                            x       y       z     vdW  Elec       q    Type
REMARK                         _______ _______ _______ _____ _____    ______ ____
ROOT
ATOM      1  C   LIG    1       22.678 -19.003   4.122  0.00  0.00    +0.165 A 
ATOM      2  C   LIG    1       23.932 -19.660   4.063  0.00  0.00    +0.204 A 
ATOM      3  C   LIG    1       25.146 -18.914   3.899  0.00  0.00    +0.170 A 
ATOM      4  C   LIG    1       25.075 -17.514   3.708  0.00  0.00    +0.012 A 
ATOM      5  C   LIG    1       23.850 -16.961   3.895  0.00  0.00    +0.012 A 
ATOM      6  C   LIG    1       22.663 -17.629   3.893  0.00  0.00    +0.050 A 
ENDROOT
BRANCH   1   8
ATOM      7  C   LIG    1       20.321 -19.186   3.699  0.00  0.00    +0.277 C 
ATOM      8  O   LIG    1       21.486 -19.604   4.440  0.00  0.00    -0.491 OA
ENDBRANCH   1   8
BRANCH   2   9
ATOM      9  O   LIG    1       24.035 -21.034   4.169  0.00  0.00    -0.488 OA
ATOM     10  C   LIG    1       24.086 -21.540   5.505  0.00  0.00    +0.277 C 
ENDBRANCH   2   9
BRANCH   3  11
ATOM     11  O   LIG    1       26.446 -19.322   3.905  0.00  0.00    -0.491 OA
ATOM     12  C   LIG    1       27.120 -19.687   5.091  0.00  0.00    +0.277 C 
ENDBRANCH   3  11
BRANCH   4  13
ATOM     13  C   LIG    1       26.286 -16.628   3.443  0.00  0.00    +0.123 C 
BRANCH  13  14
ATOM     14  N   LIG    1       26.086 -15.171   3.224  0.00  0.00    -0.296 NA
ATOM     15  C   LIG    1       25.535 -14.422   4.360  0.00  0.00    +0.100 C 
ATOM     16  C   LIG    1       26.594 -13.786   5.281  0.00  0.00    +0.096 C 
ATOM     17  N   LIG    1       27.493 -12.868   4.546  0.00  0.00    -0.314 NA
ATOM     18  H   LIG    1       26.934 -12.143   4.105  0.00  0.00    +0.122 HD
ATOM     19  C   LIG    1       28.148 -13.629   3.482  0.00  0.00    +0.096 C 
ATOM     20  C   LIG    1       27.154 -14.417   2.553  0.00  0.00    +0.100 C 
ENDBRANCH  13  14
ENDBRANCH   4  13
TORSDOF 5
ENDMDL
