MODEL 1
REMARK VINA RESULT:      -5.1      0.000      0.000
REMARK  Name = *****
REMARK                            x       y       z     vdW  Elec       q    Type
REMARK                         _______ _______ _______ _____ _____    ______ ____
ROOT
ATOM      1  C   LIG    1       22.472 -18.904   5.224  0.00  0.00    +0.000 C 
ENDROOT
BRANCH   1   2
ATOM      2  C   LIG    1       22.743 -20.325   4.627  0.00  0.00    -0.000 C 
BRANCH   2   3
ATOM      3  C   LIG    1       22.513 -21.529   5.597  0.00  0.00    +0.000 C 
BRANCH   3   4
ATOM      4  C   LIG    1       23.108 -21.517   7.038  0.00  0.00    +0.000 C 
BRANCH   4   5
ATOM      5  C   LIG    1       24.549 -20.930   7.062  0.00  0.00    +0.011 C 
BRANCH   5   6
ATOM      6  C   LIG    1       25.490 -21.381   5.942  0.00  0.00    +0.120 C 
BRANCH   6   7
ATOM      7  C   LIG    1       26.391 -20.253   5.444  0.00  0.00    +0.307 C 
ATOM      8  O   LIG    1       26.228 -19.637   4.467  0.00  0.00    -0.251 OA
BRANCH   7   9
ATOM      9  O   LIG    1       27.345 -20.028   6.428  0.00  0.00    -0.465 OA
BRANCH   9  11
ATOM     10  C   LIG    1       29.475 -18.802   6.322  0.00  0.00    +0.048 C 
ATOM     11  C   LIG    1       28.699 -20.055   5.966  0.00  0.00    +0.228 C 
ENDBRANCH   9  11
ENDBRANCH   7   9
ENDBRANCH   6   7
ENDBRANCH   5   6
ENDBRANCH   4   5
ENDBRANCH   3   4
ENDBRANCH   2   3
ENDBRANCH   1   2
BRANCH   1  12
ATOM     12  C   LIG    1       22.260 -17.799   4.171  0.00  0.00    +0.001 C 
BRANCH  12  13
ATOM     13  C   LIG    1       23.478 -16.827   3.990  0.00  0.00    +0.008 C 
BRANCH  13  14
ATOM     14  C   LIG    1       23.143 -15.325   4.212  0.00  0.00    +0.017 C 
ATOM     15  C   LIG    1       22.561 -15.190   5.652  0.00  0.00    +0.012 C 
BRANCH  14  16
ATOM     16  C   LIG    1       24.188 -14.185   3.835  0.00  0.00    -0.031 A 
ATOM     17  C   LIG    1       25.553 -14.344   3.434  0.00  0.00    +0.017 A 
ATOM     18  I   LIG    1       27.289 -14.095   5.044  0.00  0.00    -0.043 I 
ATOM     19  C   LIG    1       26.141 -13.523   2.426  0.00  0.00    +0.014 A 
ATOM     20  C   LIG    1       25.508 -12.356   2.030  0.00  0.00    +0.001 A 
ATOM     21  C   LIG    1       24.211 -12.119   2.447  0.00  0.00    +0.000 A 
ATOM     22  C   LIG    1       23.554 -13.044   3.272  0.00  0.00    +0.005 A 
ENDBRANCH  14  16
ENDBRANCH  13  14
ENDBRANCH  12  13
ENDBRANCH   1  12
TORSDOF 12
ENDMDL
MODEL 2
REMARK VINA RESULT:      -4.9      1.564      2.327
REMARK  Name = *****
REMARK                            x       y       z     vdW  Elec       q    Type
REMARK                         _______ _______ _______ _____ _____    ______ ____
ROOT
ATOM      1  C   LIG    1       21.887 -16.900   4.620  0.00  0.00    +0.000 C 
ENDROOT
BRANCH   1   2
ATOM      2  C   LIG    1       21.977 -18.351   4.041  0.00  0.00    -0.000 C 
BRANCH   2   3
ATOM      3  C   LIG    1       23.065 -19.276   4.677  0.00  0.00    +0.000 C 
BRANCH   3   4
ATOM      4  C   LIG    1       22.660 -20.552   5.474  0.00  0.00    +0.000 C 
BRANCH   4   5
ATOM      5  C   LIG    1       23.309 -20.580   6.888  0.00  0.00    +0.011 C 
BRANCH   5   6
ATOM      6  C   LIG    1       24.532 -21.484   7.062  0.00  0.00    +0.120 C 
BRANCH   6   7
ATOM      7  C   LIG    1       25.715 -21.040   6.204  0.00  0.00    +0.307 C 
ATOM      8  O   LIG    1       25.802 -21.175   5.049  0.00  0.00    -0.251 OA
BRANCH   7   9
ATOM      9  O   LIG    1       26.584 -20.346   7.036  0.00  0.00    -0.465 OA
BRANCH   9  11
ATOM     10  C   LIG    1       28.725 -19.559   6.113  0.00  0.00    +0.048 C 
ATOM     11  C   LIG    1       27.969 -20.652   6.843  0.00  0.00    +0.228 C 
ENDBRANCH   9  11
ENDBRANCH   7   9
ENDBRANCH   6   7
ENDBRANCH   5   6
ENDBRANCH   4   5
ENDBRANCH   3   4
ENDBRANCH   2   3
ENDBRANCH   1   2
BRANCH   1  12
ATOM     12  C   LIG    1       23.175 -16.069   4.465  0.00  0.00    +0.001 C 
BRANCH  12  13
ATOM     13  C   LIG    1       23.027 -14.557   4.856  0.00  0.00    +0.008 C 
BRANCH  13  14
ATOM     14  C   LIG    1       24.100 -13.621   4.228  0.00  0.00    +0.017 C 
ATOM     15  C   LIG    1       23.783 -12.171   4.705  0.00  0.00    +0.012 C 
BRANCH  14  16
ATOM     16  C   LIG    1       25.647 -13.991   4.286  0.00  0.00    -0.031 A 
ATOM     17  C   LIG    1       26.428 -14.657   3.289  0.00  0.00    +0.017 A 
ATOM     18  I   LIG    1       26.825 -16.997   3.475  0.00  0.00    -0.043 I 
ATOM     19  C   LIG    1       27.777 -14.281   3.014  0.00  0.00    +0.014 A 
ATOM     20  C   LIG    1       28.464 -13.475   3.906  0.00  0.00    +0.001 A 
ATOM     21  C   LIG    1       27.768 -12.862   4.933  0.00  0.00    +0.000 A 
ATOM     22  C   LIG    1       26.388 -13.067   5.072  0.00  0.00    +0.005 A 
ENDBRANCH  14  16
ENDBRANCH  13  14
ENDBRANCH  12  13
ENDBRANCH   1  12
TORSDOF 12
ENDMDL
MODEL 3
REMARK VINA RESULT:      -4.3      3.001      7.858
REMARK  Name = *****
REMARK                            x       y       z     vdW  Elec       q    Type
REMARK                         _______ _______ _______ _____ _____    ______ ____
ROOT
ATOM      1  C   LIG    1       26.217 -16.453   3.096  0.00  0.00    +0.000 C 
ENDROOT
BRANCH   1   2
ATOM      2  C   LIG    1       27.351 -15.887   4.015  0.00  0.00    -0.000 C 
BRANCH   2   3
ATOM      3  C   LIG    1       27.539 -14.335   3.993  0.00  0.00    +0.000 C 
BRANCH   3   4
ATOM      4  C   LIG    1       27.586 -13.557   2.643  0.00  0.00    +0.000 C 
BRANCH   4   5
ATOM      5  C   LIG    1       26.162 -13.335   2.055  0.00  0.00    +0.011 C 
BRANCH   5   6
ATOM      6  C   LIG    1       25.445 -12.047   2.468  0.00  0.00    +0.120 C 
BRANCH   6   7
ATOM      7  C   LIG    1       24.188 -12.313   3.292  0.00  0.00    +0.307 C 
ATOM      8  O   LIG    1       23.456 -11.498   3.693  0.00  0.00    -0.251 OA
BRANCH   7   9
ATOM      9  O   LIG    1       24.025 -13.691   3.353  0.00  0.00    -0.465 OA
BRANCH   9  11
ATOM     10  C   LIG    1       22.907 -15.196   4.945  0.00  0.00    +0.048 C 
ATOM     11  C   LIG    1       24.049 -14.237   4.676  0.00  0.00    +0.228 C 
ENDBRANCH   9  11
ENDBRANCH   7   9
ENDBRANCH   6   7
ENDBRANCH   5   6
ENDBRANCH   4   5
ENDBRANCH   3   4
ENDBRANCH   2   3
ENDBRANCH   1   2
BRANCH   1  12
ATOM     12  C   LIG    1       25.942 -17.958   3.274  0.00  0.00    +0.001 C 
BRANCH  12  13
ATOM     13  C   LIG    1       26.770 -18.643   4.417  0.00  0.00    +0.008 C 
BRANCH  13  14
ATOM     14  C   LIG    1       26.185 -19.996   4.915  0.00  0.00    +0.017 C 
ATOM     15  C   LIG    1       27.196 -20.584   5.946  0.00  0.00    +0.012 C 
BRANCH  14  16
ATOM     16  C   LIG    1       24.665 -20.117   5.368  0.00  0.00    -0.031 A 
ATOM     17  C   LIG    1       23.508 -20.247   4.535  0.00  0.00    +0.017 A 
ATOM     18  I   LIG    1       22.217 -18.318   4.005  0.00  0.00    -0.043 I 
ATOM     19  C   LIG    1       22.413 -21.087   4.894  0.00  0.00    +0.014 A 
ATOM     20  C   LIG    1       22.299 -21.556   6.192  0.00  0.00    +0.001 A 
ATOM     21  C   LIG    1       23.363 -21.394   7.062  0.00  0.00    +0.000 A 
ATOM     22  C   LIG    1       24.533 -20.750   6.634  0.00  0.00    +0.005 A 
ENDBRANCH  14  16
ENDBRANCH  13  14
ENDBRANCH  12  13
ENDBRANCH   1  12
TORSDOF 12
ENDMDL
MODEL 4
REMARK VINA RESULT:      -4.2      2.030      4.273
REMARK  Name = *****
REMARK                            x       y       z     vdW  Elec       q    Type
REMARK                         _______ _______ _______ _____ _____    ______ ____
ROOT
ATOM      1  C   LIG    1       28.194 -18.386   4.595  0.00  0.00    +0.000 C 
ENDROOT
BRANCH   1   2
ATOM      2  C   LIG    1       29.183 -18.279   5.804  0.00  0.00    -0.000 C 
BRANCH   2   3
ATOM      3  C   LIG    1       29.325 -19.561   6.686  0.00  0.00    +0.000 C 
BRANCH   3   4
ATOM      4  C   LIG    1       28.322 -20.745   6.541  0.00  0.00    +0.000 C 
BRANCH   4   5
ATOM      5  C   LIG    1       26.903 -20.365   7.057  0.00  0.00    +0.011 C 
BRANCH   5   6
ATOM      6  C   LIG    1       25.762 -21.313   6.680  0.00  0.00    +0.120 C 
BRANCH   6   7
ATOM      7  C   LIG    1       25.120 -20.954   5.342  0.00  0.00    +0.307 C 
ATOM      8  O   LIG    1       25.671 -20.473   4.433  0.00  0.00    -0.251 OA
BRANCH   7   9
ATOM      9  O   LIG    1       23.813 -21.423   5.378  0.00  0.00    -0.465 OA
BRANCH   9  11
ATOM     10  C   LIG    1       22.512 -19.359   5.064  0.00  0.00    +0.048 C 
ATOM     11  C   LIG    1       22.870 -20.522   5.968  0.00  0.00    +0.228 C 
ENDBRANCH   9  11
ENDBRANCH   7   9
ENDBRANCH   6   7
ENDBRANCH   5   6
ENDBRANCH   4   5
ENDBRANCH   3   4
ENDBRANCH   2   3
ENDBRANCH   1   2
BRANCH   1  12
ATOM     12  C   LIG    1       27.619 -17.037   4.119  0.00  0.00    +0.001 C 
BRANCH  12  13
ATOM     13  C   LIG    1       26.259 -17.144   3.344  0.00  0.00    +0.008 C 
BRANCH  13  14
ATOM     14  C   LIG    1       25.448 -15.818   3.282  0.00  0.00    +0.017 C 
ATOM     15  C   LIG    1       24.073 -16.087   3.965  0.00  0.00    +0.012 C 
BRANCH  14  16
ATOM     16  C   LIG    1       26.108 -14.431   3.695  0.00  0.00    -0.031 A 
ATOM     17  C   LIG    1       25.933 -13.704   4.916  0.00  0.00    +0.017 A 
ATOM     18  I   LIG    1       24.369 -11.912   5.004  0.00  0.00    -0.043 I 
ATOM     19  C   LIG    1       27.013 -13.014   5.542  0.00  0.00    +0.014 A 
ATOM     20  C   LIG    1       28.178 -12.769   4.836  0.00  0.00    +0.001 A 
ATOM     21  C   LIG    1       28.369 -13.392   3.615  0.00  0.00    +0.000 A 
ATOM     22  C   LIG    1       27.386 -14.248   3.098  0.00  0.00    +0.005 A 
ENDBRANCH  14  16
ENDBRANCH  13  14
ENDBRANCH  12  13
ENDBRANCH   1  12
TORSDOF 12
ENDMDL
MODEL 5
REMARK VINA RESULT:      -4.2      1.937      4.288
REMARK  Name = *****
REMARK                            x       y       z     vdW  Elec       q    Type
REMARK                         _______ _______ _______ _____ _____    ______ ____
ROOT
ATOM      1  C   LIG    1       28.819 -19.521   5.903  0.00  0.00    +0.000 C 
ENDROOT
BRANCH   1   2
ATOM      2  C   LIG    1       28.085 -20.487   6.893  0.00  0.00    -0.000 C 
BRANCH   2   3
ATOM      3  C   LIG    1       26.533 -20.328   6.979  0.00  0.00    +0.000 C 
BRANCH   3   4
ATOM      4  C   LIG    1       25.593 -21.550   6.748  0.00  0.00    +0.000 C 
BRANCH   4   5
ATOM      5  C   LIG    1       25.020 -21.572   5.301  0.00  0.00    +0.011 C 
BRANCH   5   6
ATOM      6  C   LIG    1       24.313 -20.301   4.825  0.00  0.00    +0.120 C 
BRANCH   6   7
ATOM      7  C   LIG    1       22.812 -20.324   5.107  0.00  0.00    +0.307 C 
ATOM      8  O   LIG    1       22.141 -21.278   5.125  0.00  0.00    -0.251 OA
BRANCH   7   9
ATOM      9  O   LIG    1       22.443 -19.032   5.457  0.00  0.00    -0.465 OA
BRANCH   9  11
ATOM     10  C   LIG    1       22.025 -16.724   4.715  0.00  0.00    +0.048 C 
ATOM     11  C   LIG    1       22.076 -18.196   4.355  0.00  0.00    +0.228 C 
ENDBRANCH   9  11
ENDBRANCH   7   9
ENDBRANCH   6   7
ENDBRANCH   5   6
ENDBRANCH   4   5
ENDBRANCH   3   4
ENDBRANCH   2   3
ENDBRANCH   1   2
BRANCH   1  12
ATOM     12  C   LIG    1       27.919 -18.932   4.799  0.00  0.00    +0.001 C 
BRANCH  12  13
ATOM     13  C   LIG    1       27.993 -17.372   4.660  0.00  0.00    +0.008 C 
BRANCH  13  14
ATOM     14  C   LIG    1       27.075 -16.780   3.552  0.00  0.00    +0.017 C 
ATOM     15  C   LIG    1       25.923 -17.803   3.312  0.00  0.00    +0.012 C 
BRANCH  14  16
ATOM     16  C   LIG    1       26.586 -15.267   3.613  0.00  0.00    -0.031 A 
ATOM     17  C   LIG    1       27.114 -14.144   2.899  0.00  0.00    +0.017 A 
ATOM     18  I   LIG    1       28.673 -12.698   3.969  0.00  0.00    -0.043 I 
ATOM     19  C   LIG    1       26.269 -13.120   2.375  0.00  0.00    +0.014 A 
ATOM     20  C   LIG    1       24.956 -13.022   2.804  0.00  0.00    +0.001 A 
ATOM     21  C   LIG    1       24.416 -14.049   3.558  0.00  0.00    +0.000 A 
ATOM     22  C   LIG    1       25.195 -15.166   3.892  0.00  0.00    +0.005 A 
ENDBRANCH  14  16
ENDBRANCH  13  14
ENDBRANCH  12  13
ENDBRANCH   1  12
TORSDOF 12
ENDMDL
MODEL 6
REMARK VINA RESULT:      -4.2      2.390      4.573
REMARK  Name = *****
REMARK                            x       y       z     vdW  Elec       q    Type
REMARK                         _______ _______ _______ _____ _____    ______ ____
ROOT
ATOM      1  C   LIG    1       28.642 -19.331   5.977  0.00  0.00    +0.000 C 
ENDROOT
BRANCH   1   2
ATOM      2  C   LIG    1       27.983 -20.558   6.691  0.00  0.00    -0.000 C 
BRANCH   2   3
ATOM      3  C   LIG    1       26.452 -20.437   6.983  0.00  0.00    +0.000 C 
BRANCH   3   4
ATOM      4  C   LIG    1       25.467 -21.566   6.553  0.00  0.00    +0.000 C 
BRANCH   4   5
ATOM      5  C   LIG    1       24.932 -21.344   5.108  0.00  0.00    +0.011 C 
BRANCH   5   6
ATOM      6  C   LIG    1       24.074 -20.098   4.880  0.00  0.00    +0.120 C 
BRANCH   6   7
ATOM      7  C   LIG    1       22.579 -20.386   4.991  0.00  0.00    +0.307 C 
ATOM      8  O   LIG    1       22.106 -21.315   5.515  0.00  0.00    -0.251 OA
BRANCH   7   9
ATOM      9  O   LIG    1       21.911 -19.285   4.471  0.00  0.00    -0.465 OA
BRANCH   9  11
ATOM     10  C   LIG    1       21.991 -16.847   4.788  0.00  0.00    +0.048 C 
ATOM     11  C   LIG    1       22.712 -18.105   4.347  0.00  0.00    +0.228 C 
ENDBRANCH   9  11
ENDBRANCH   7   9
ENDBRANCH   6   7
ENDBRANCH   5   6
ENDBRANCH   4   5
ENDBRANCH   3   4
ENDBRANCH   2   3
ENDBRANCH   1   2
BRANCH   1  12
ATOM     12  C   LIG    1       27.785 -18.704   4.861  0.00  0.00    +0.001 C 
BRANCH  12  13
ATOM     13  C   LIG    1       28.248 -17.276   4.406  0.00  0.00    +0.008 C 
BRANCH  13  14
ATOM     14  C   LIG    1       27.220 -16.518   3.518  0.00  0.00    +0.017 C 
ATOM     15  C   LIG    1       25.903 -17.352   3.522  0.00  0.00    +0.012 C 
BRANCH  14  16
ATOM     16  C   LIG    1       26.987 -14.952   3.686  0.00  0.00    -0.031 A 
ATOM     17  C   LIG    1       25.892 -14.292   4.328  0.00  0.00    +0.017 A 
ATOM     18  I   LIG    1       24.082 -13.469   3.018  0.00  0.00    -0.043 I 
ATOM     19  C   LIG    1       26.078 -13.115   5.113  0.00  0.00    +0.014 A 
ATOM     20  C   LIG    1       27.264 -12.407   5.023  0.00  0.00    +0.001 A 
ATOM     21  C   LIG    1       28.335 -12.969   4.351  0.00  0.00    +0.000 A 
ATOM     22  C   LIG    1       28.212 -14.235   3.759  0.00  0.00    +0.005 A 
ENDBRANCH  14  16
ENDBRANCH  13  14
ENDBRANCH  12  13
ENDBRANCH   1  12
TORSDOF 12
ENDMDL
MODEL 7
REMARK VINA RESULT:      -4.0      2.868      7.214
REMARK  Name = *****
REMARK                            x       y       z     vdW  Elec       q    Type
REMARK                         _______ _______ _______ _____ _____    ______ ____
ROOT
ATOM      1  C   LIG    1       22.399 -15.197   4.583  0.00  0.00    +0.000 C 
ENDROOT
BRANCH   1   2
ATOM      2  C   LIG    1       23.696 -14.477   4.084  0.00  0.00    -0.000 C 
BRANCH   2   3
ATOM      3  C   LIG    1       23.672 -12.915   4.127  0.00  0.00    +0.000 C 
BRANCH   3   4
ATOM      4  C   LIG    1       23.991 -12.077   2.853  0.00  0.00    +0.000 C 
BRANCH   4   5
ATOM      5  C   LIG    1       25.196 -12.666   2.062  0.00  0.00    +0.011 C 
BRANCH   5   6
ATOM      6  C   LIG    1       26.572 -12.541   2.718  0.00  0.00    +0.120 C 
BRANCH   6   7
ATOM      7  C   LIG    1       27.269 -13.890   2.883  0.00  0.00    +0.307 C 
ATOM      8  O   LIG    1       26.884 -14.907   2.461  0.00  0.00    -0.251 OA
BRANCH   7   9
ATOM      9  O   LIG    1       28.486 -13.646   3.506  0.00  0.00    -0.465 OA
BRANCH   9  11
ATOM     10  C   LIG    1       27.055 -13.215   5.459  0.00  0.00    +0.048 C 
ATOM     11  C   LIG    1       28.388 -12.991   4.774  0.00  0.00    +0.228 C 
ENDBRANCH   9  11
ENDBRANCH   7   9
ENDBRANCH   6   7
ENDBRANCH   5   6
ENDBRANCH   4   5
ENDBRANCH   3   4
ENDBRANCH   2   3
ENDBRANCH   1   2
BRANCH   1  12
ATOM     12  C   LIG    1       22.600 -16.671   4.983  0.00  0.00    +0.001 C 
BRANCH  12  13
ATOM     13  C   LIG    1       22.503 -17.689   3.793  0.00  0.00    +0.008 C 
BRANCH  13  14
ATOM     14  C   LIG    1       23.694 -18.685   3.699  0.00  0.00    +0.017 C 
ATOM     15  C   LIG    1       24.998 -17.837   3.596  0.00  0.00    +0.012 C 
BRANCH  14  16
ATOM     16  C   LIG    1       23.812 -19.922   4.695  0.00  0.00    -0.031 A 
ATOM     17  C   LIG    1       24.556 -19.998   5.914  0.00  0.00    +0.017 A 
ATOM     18  I   LIG    1       26.716 -20.999   5.913  0.00  0.00    -0.043 I 
ATOM     19  C   LIG    1       24.055 -20.685   7.060  0.00  0.00    +0.014 A 
ATOM     20  C   LIG    1       22.984 -21.553   6.930  0.00  0.00    +0.001 A 
ATOM     21  C   LIG    1       22.271 -21.570   5.745  0.00  0.00    +0.000 A 
ATOM     22  C   LIG    1       22.640 -20.728   4.686  0.00  0.00    +0.005 A 
ENDBRANCH  14  16
ENDBRANCH  13  14
ENDBRANCH  12  13
ENDBRANCH   1  12
TORSDOF 12
ENDMDL
MODEL 8
REMARK VINA RESULT:      -3.8      2.633      6.737
REMARK  Name = *****
REMARK                            x       y       z     vdW  Elec       q    Type
REMARK                         _______ _______ _______ _____ _____    ______ ____
ROOT
ATOM      1  C   LIG    1       22.768 -17.828   4.353  0.00  0.00    +0.000 C 
ENDROOT
BRANCH   1   2
ATOM      2  C   LIG    1       22.448 -16.383   4.862  0.00  0.00    -0.000 C 
BRANCH   2   3
ATOM      3  C   LIG    1       23.109 -15.214   4.063  0.00  0.00    +0.000 C 
BRANCH   3   4
ATOM      4  C   LIG    1       23.940 -14.118   4.796  0.00  0.00    +0.000 C 
BRANCH   4   5
ATOM      5  C   LIG    1       24.196 -12.882   3.884  0.00  0.00    +0.011 C 
BRANCH   5   6
ATOM      6  C   LIG    1       24.776 -13.165   2.496  0.00  0.00    +0.120 C 
BRANCH   6   7
ATOM      7  C   LIG    1       26.177 -13.769   2.557  0.00  0.00    +0.307 C 
ATOM      8  O   LIG    1       26.468 -14.841   2.201  0.00  0.00    -0.251 OA
BRANCH   7   9
ATOM      9  O   LIG    1       27.035 -12.766   2.990  0.00  0.00    -0.465 OA
BRANCH   9  11
ATOM     10  C   LIG    1       27.621 -13.349   5.307  0.00  0.00    +0.048 C 
ATOM     11  C   LIG    1       28.076 -13.207   3.868  0.00  0.00    +0.228 C 
ENDBRANCH   9  11
ENDBRANCH   7   9
ENDBRANCH   6   7
ENDBRANCH   5   6
ENDBRANCH   4   5
ENDBRANCH   3   4
ENDBRANCH   2   3
ENDBRANCH   1   2
BRANCH   1  12
ATOM     12  C   LIG    1       21.658 -18.862   4.623  0.00  0.00    +0.001 C 
BRANCH  12  13
ATOM     13  C   LIG    1       22.177 -20.300   4.975  0.00  0.00    +0.008 C 
BRANCH  13  14
ATOM     14  C   LIG    1       23.381 -20.328   5.959  0.00  0.00    +0.017 C 
ATOM     15  C   LIG    1       23.051 -21.380   7.062  0.00  0.00    +0.012 C 
BRANCH  14  16
ATOM     16  C   LIG    1       24.877 -20.409   5.424  0.00  0.00    -0.031 A 
ATOM     17  C   LIG    1       25.583 -19.441   4.642  0.00  0.00    +0.017 A 
ATOM     18  I   LIG    1       25.720 -19.711   2.280  0.00  0.00    -0.043 I 
ATOM     19  C   LIG    1       26.965 -19.161   4.857  0.00  0.00    +0.014 A 
ATOM     20  C   LIG    1       27.735 -20.029   5.614  0.00  0.00    +0.001 A 
ATOM     21  C   LIG    1       27.109 -21.029   6.336  0.00  0.00    +0.000 A 
ATOM     22  C   LIG    1       25.714 -21.166   6.289  0.00  0.00    +0.005 A 
ENDBRANCH  14  16
ENDBRANCH  13  14
ENDBRANCH  12  13
ENDBRANCH   1  12
TORSDOF 12
ENDMDL
MODEL 9
REMARK VINA RESULT:      -3.6      1.078      1.858
REMARK  Name = *****
REMARK                            x       y       z     vdW  Elec       q    Type
REMARK                         _______ _______ _______ _____ _____    ______ ____
ROOT
ATOM      1  C   LIG    1       22.777 -19.342   4.728  0.00  0.00    +0.000 C 
ENDROOT
BRANCH   1   2
ATOM      2  C   LIG    1       22.516 -19.850   6.185  0.00  0.00    -0.000 C 
BRANCH   2   3
ATOM      3  C   LIG    1       23.764 -20.388   6.956  0.00  0.00    +0.000 C 
BRANCH   3   4
ATOM      4  C   LIG    1       24.652 -21.516   6.349  0.00  0.00    +0.000 C 
BRANCH   4   5
ATOM      5  C   LIG    1       26.056 -21.569   7.018  0.00  0.00    +0.011 C 
BRANCH   5   6
ATOM      6  C   LIG    1       26.843 -20.257   7.062  0.00  0.00    +0.120 C 
BRANCH   6   7
ATOM      7  C   LIG    1       27.318 -19.812   5.681  0.00  0.00    +0.307 C 
ATOM      8  O   LIG    1       28.278 -19.185   5.465  0.00  0.00    -0.251 OA
BRANCH   7   9
ATOM      9  O   LIG    1       26.472 -20.399   4.749  0.00  0.00    -0.465 OA
BRANCH   9  11
ATOM     10  C   LIG    1       24.932 -20.115   2.852  0.00  0.00    +0.048 C 
ATOM     11  C   LIG    1       26.047 -19.529   3.695  0.00  0.00    +0.228 C 
ENDBRANCH   9  11
ENDBRANCH   7   9
ENDBRANCH   6   7
ENDBRANCH   5   6
ENDBRANCH   4   5
ENDBRANCH   3   4
ENDBRANCH   2   3
ENDBRANCH   1   2
BRANCH   1  12
ATOM     12  C   LIG    1       22.322 -17.894   4.464  0.00  0.00    +0.001 C 
BRANCH  12  13
ATOM     13  C   LIG    1       23.483 -16.897   4.120  0.00  0.00    +0.008 C 
BRANCH  13  14
ATOM     14  C   LIG    1       23.118 -15.396   4.302  0.00  0.00    +0.017 C 
ATOM     15  C   LIG    1       22.540 -15.233   5.741  0.00  0.00    +0.012 C 
BRANCH  14  16
ATOM     16  C   LIG    1       24.139 -14.247   3.888  0.00  0.00    -0.031 A 
ATOM     17  C   LIG    1       25.555 -14.353   3.709  0.00  0.00    +0.017 A 
ATOM     18  I   LIG    1       27.015 -13.716   5.478  0.00  0.00    -0.043 I 
ATOM     19  C   LIG    1       26.236 -13.653   2.670  0.00  0.00    +0.014 A 
ATOM     20  C   LIG    1       25.602 -12.618   2.003  0.00  0.00    +0.001 A 
ATOM     21  C   LIG    1       24.245 -12.426   2.194  0.00  0.00    +0.000 A 
ATOM     22  C   LIG    1       23.529 -13.262   3.063  0.00  0.00    +0.005 A 
ENDBRANCH  14  16
ENDBRANCH  13  14
ENDBRANCH  12  13
ENDBRANCH   1  12
TORSDOF 12
ENDMDL
