MODEL 1
REMARK VINA RESULT:       6.7      0.000      0.000
REMARK  Name = *****
REMARK                            x       y       z     vdW  Elec       q    Type
REMARK                         _______ _______ _______ _____ _____    ______ ____
ROOT
ATOM      1  C   LIG    1       25.807 -20.440   5.112  0.00  0.00    -0.046 A 
ATOM      2  C   LIG    1       25.587 -19.980   3.805  0.00  0.00    +0.005 A 
ATOM      3  C   LIG    1       24.347 -19.434   3.452  0.00  0.00    +0.029 A 
ATOM      4  C   LIG    1       23.337 -19.323   4.414  0.00  0.00    +0.109 A 
ATOM      5  C   LIG    1       23.547 -19.790   5.712  0.00  0.00    +0.029 A 
ATOM      6  C   LIG    1       24.776 -20.342   6.056  0.00  0.00    +0.005 A 
ENDROOT
BRANCH   4   7
ATOM      7  S   LIG    1       21.742 -18.662   3.990  0.00  0.00    +0.076 S 
ATOM      8  O   LIG    1       20.746 -19.573   4.530  0.00  0.00    -0.150 OA
ATOM      9  O   LIG    1       21.726 -18.314   2.588  0.00  0.00    -0.150 OA
BRANCH   7  10
ATOM     10  N   LIG    1       21.596 -17.286   4.918  0.00  0.00    -0.169 N 
ATOM     11  H   LIG    1       20.823 -17.334   5.563  0.00  0.00    +0.178 HD
ATOM     12  C   LIG    1       22.500 -16.236   4.918  0.00  0.00    +0.319 C 
ATOM     13  N   LIG    1       22.173 -15.228   5.792  0.00  0.00    -0.295 N 
ATOM     14  H   LIG    1       21.251 -15.223   6.190  0.00  0.00    +0.151 HD
ATOM     15  O   LIG    1       23.496 -16.222   4.228  0.00  0.00    -0.251 OA
BRANCH  13  16
ATOM     16  C   LIG    1       23.030 -14.045   5.948  0.00  0.00    +0.074 C 
ATOM     17  C   LIG    1       22.206 -12.749   5.833  0.00  0.00    +0.022 C 
ATOM     18  C   LIG    1       23.062 -11.489   5.792  0.00  0.00    +0.005 C 
ATOM     19  C   LIG    1       24.123 -11.534   4.693  0.00  0.00    -0.014 C 
ATOM     20  C   LIG    1       23.498 -11.456   3.298  0.00  0.00    +0.007 C 
ATOM     21  C   LIG    1       24.992 -12.785   4.863  0.00  0.00    +0.005 C 
ATOM     22  C   LIG    1       24.180 -14.083   4.926  0.00  0.00    +0.022 C 
ENDBRANCH  13  16
ENDBRANCH   7  10
ENDBRANCH   4   7
BRANCH   1  23
ATOM     23  C   LIG    1       27.116 -21.068   5.531  0.00  0.00    +0.054 C 
BRANCH  23  24
ATOM     24  C   LIG    1       28.333 -20.176   5.245  0.00  0.00    +0.110 C 
BRANCH  24  30
ATOM     25  C   LIG    1       27.190 -14.998   3.149  0.00  0.00    +0.015 C 
ATOM     26  C   LIG    1       27.116 -16.390   3.649  0.00  0.00    +0.250 C 
ATOM     27  O   LIG    1       26.336 -17.234   3.240  0.00  0.00    -0.270 OA
ATOM     28  N   LIG    1       28.072 -16.527   4.651  0.00  0.00    -0.218 N 
ATOM     29  C   LIG    1       28.537 -17.688   5.248  0.00  0.00    +0.309 C 
ATOM     30  N   LIG    1       27.968 -18.844   4.787  0.00  0.00    -0.299 N 
ATOM     31  H   LIG    1       27.149 -18.751   4.187  0.00  0.00    +0.150 HD
ATOM     32  O   LIG    1       29.429 -17.677   6.095  0.00  0.00    -0.252 OA
ATOM     33  C   LIG    1       28.658 -15.257   4.975  0.00  0.00    +0.149 C 
ATOM     34  C   LIG    1       28.086 -14.364   3.922  0.00  0.00    -0.047 C 
ATOM     35  C   LIG    1       28.564 -12.957   3.823  0.00  0.00    +0.041 C 
BRANCH  25  37
ATOM     36  C   LIG    1       26.056 -13.043   2.086  0.00  0.00    +0.009 C 
ATOM     37  C   LIG    1       26.372 -14.529   1.996  0.00  0.00    +0.037 C 
ENDBRANCH  25  37
ENDBRANCH  24  30
ENDBRANCH  23  24
ENDBRANCH   1  23
TORSDOF 7
ENDMDL
MODEL 2
REMARK VINA RESULT:       8.8      2.297      7.718
REMARK  Name = *****
REMARK                            x       y       z     vdW  Elec       q    Type
REMARK                         _______ _______ _______ _____ _____    ______ ____
ROOT
ATOM      1  C   LIG    1       23.652 -13.911   4.636  0.00  0.00    -0.046 A 
ATOM      2  C   LIG    1       24.132 -14.172   3.344  0.00  0.00    +0.005 A 
ATOM      3  C   LIG    1       25.506 -14.116   3.080  0.00  0.00    +0.029 A 
ATOM      4  C   LIG    1       26.401 -13.828   4.116  0.00  0.00    +0.109 A 
ATOM      5  C   LIG    1       25.929 -13.557   5.401  0.00  0.00    +0.029 A 
ATOM      6  C   LIG    1       24.563 -13.601   5.656  0.00  0.00    +0.005 A 
ENDROOT
BRANCH   4   7
ATOM      7  S   LIG    1       28.148 -13.722   3.807  0.00  0.00    +0.076 S 
ATOM      8  O   LIG    1       28.631 -12.533   4.491  0.00  0.00    -0.150 OA
ATOM      9  O   LIG    1       28.397 -13.900   2.394  0.00  0.00    -0.150 OA
BRANCH   7  10
ATOM     10  N   LIG    1       28.806 -14.991   4.663  0.00  0.00    -0.169 N 
ATOM     11  H   LIG    1       29.356 -14.685   5.450  0.00  0.00    +0.178 HD
ATOM     12  C   LIG    1       28.535 -16.329   4.422  0.00  0.00    +0.319 C 
ATOM     13  N   LIG    1       29.177 -17.185   5.283  0.00  0.00    -0.295 N 
ATOM     14  H   LIG    1       29.917 -16.819   5.855  0.00  0.00    +0.151 HD
ATOM     15  O   LIG    1       27.783 -16.703   3.549  0.00  0.00    -0.251 OA
BRANCH  13  16
ATOM     16  C   LIG    1       28.988 -18.639   5.196  0.00  0.00    +0.074 C 
ATOM     17  C   LIG    1       27.595 -18.980   4.635  0.00  0.00    +0.022 C 
ATOM     18  C   LIG    1       27.263 -20.466   4.701  0.00  0.00    +0.005 C 
ATOM     19  C   LIG    1       27.417 -21.042   6.108  0.00  0.00    -0.014 C 
ATOM     20  C   LIG    1       26.345 -20.505   7.061  0.00  0.00    +0.007 C 
ATOM     21  C   LIG    1       28.833 -20.769   6.628  0.00  0.00    +0.005 C 
ATOM     22  C   LIG    1       29.226 -19.289   6.570  0.00  0.00    +0.022 C 
ENDBRANCH  13  16
ENDBRANCH   7  10
ENDBRANCH   4   7
BRANCH   1  23
ATOM     23  C   LIG    1       22.176 -13.925   4.962  0.00  0.00    +0.054 C 
BRANCH  23  24
ATOM     24  C   LIG    1       21.818 -14.886   6.104  0.00  0.00    +0.110 C 
BRANCH  24  30
ATOM     25  C   LIG    1       23.274 -20.251   4.838  0.00  0.00    +0.015 C 
ATOM     26  C   LIG    1       22.717 -19.025   5.453  0.00  0.00    +0.250 C 
ATOM     27  O   LIG    1       22.544 -18.866   6.649  0.00  0.00    -0.270 OA
ATOM     28  N   LIG    1       22.432 -18.132   4.424  0.00  0.00    -0.218 N 
ATOM     29  C   LIG    1       22.120 -16.784   4.511  0.00  0.00    +0.309 C 
ATOM     30  N   LIG    1       22.086 -16.279   5.782  0.00  0.00    -0.299 N 
ATOM     31  H   LIG    1       22.117 -16.951   6.549  0.00  0.00    +0.150 HD
ATOM     32  O   LIG    1       21.935 -16.089   3.514  0.00  0.00    -0.252 OA
ATOM     33  C   LIG    1       22.596 -18.759   3.143  0.00  0.00    +0.149 C 
ATOM     34  C   LIG    1       23.199 -20.077   3.508  0.00  0.00    -0.047 C 
ATOM     35  C   LIG    1       23.659 -20.992   2.427  0.00  0.00    +0.041 C 
BRANCH  25  37
ATOM     36  C   LIG    1       23.195 -21.386   7.061  0.00  0.00    +0.009 C 
ATOM     37  C   LIG    1       23.786 -21.383   5.659  0.00  0.00    +0.037 C 
ENDBRANCH  25  37
ENDBRANCH  24  30
ENDBRANCH  23  24
ENDBRANCH   1  23
TORSDOF 7
ENDMDL
