MODEL 1
REMARK VINA RESULT:       0.6      0.000      0.000
REMARK  Name = *****
REMARK                            x       y       z     vdW  Elec       q    Type
REMARK                         _______ _______ _______ _____ _____    ______ ____
ROOT
ATOM      1  C   LIG    1       24.482 -14.585   4.159  0.00  0.00    +0.119 A 
ATOM      2  C   LIG    1       25.677 -15.037   3.580  0.00  0.00    +0.083 A 
ATOM      3  C   LIG    1       25.783 -16.421   3.276  0.00  0.00    +0.039 A 
ATOM      4  C   LIG    1       24.760 -17.342   3.543  0.00  0.00    +0.056 A 
ATOM      5  N   LIG    1       24.926 -18.669   3.176  0.00  0.00    -0.326 N 
ATOM      6  H   LIG    1       25.891 -18.966   3.060  0.00  0.00    +0.148 HD
ATOM      7  C   LIG    1       24.063 -19.703   3.722  0.00  0.00    +0.164 C 
ATOM      8  N   LIG    1       22.665 -19.330   3.565  0.00  0.00    -0.170 NA
ATOM      9  H   LIG    1       22.059 -20.074   3.915  0.00  0.00    +0.150 HD
ATOM     10  S   LIG    1       22.210 -17.897   4.296  0.00  0.00    +0.062 S 
ATOM     11  O   LIG    1       22.117 -18.143   5.717  0.00  0.00    -0.153 OA
ATOM     12  O   LIG    1       21.085 -17.377   3.553  0.00  0.00    -0.153 OA
ATOM     13  C   LIG    1       23.576 -16.828   4.053  0.00  0.00    +0.128 A 
ATOM     14  C   LIG    1       23.426 -15.477   4.381  0.00  0.00    +0.059 A 
ENDROOT
BRANCH   2  15
ATOM     15  C   LIG    1       26.877 -14.187   3.227  0.00  0.00    +0.419 C 
ATOM     16  F   LIG    1       27.180 -13.325   4.242  0.00  0.00    -0.166 F 
ATOM     17  F   LIG    1       26.624 -13.390   2.149  0.00  0.00    -0.166 F 
ATOM     18  F   LIG    1       28.041 -14.820   2.948  0.00  0.00    -0.166 F 
ENDBRANCH   2  15
BRANCH   1  19
ATOM     19  S   LIG    1       24.241 -12.904   4.677  0.00  0.00    +0.057 S 
ATOM     20  O   LIG    1       22.897 -12.755   5.177  0.00  0.00    -0.153 OA
ATOM     21  O   LIG    1       25.395 -12.509   5.447  0.00  0.00    -0.153 OA
BRANCH  19  22
ATOM     22  N   LIG    1       24.259 -12.072   3.226  0.00  0.00    -0.203 NA
ATOM     23  H   LIG    1       23.687 -12.560   2.535  0.00  0.00    +0.144 HD
ATOM     24  H   LIG    1       23.977 -11.100   3.383  0.00  0.00    +0.144 HD
ENDBRANCH  19  22
ENDBRANCH   1  19
BRANCH   7  25
ATOM     25  C   LIG    1       24.471 -20.116   5.155  0.00  0.00    +0.075 C 
BRANCH  25  26
ATOM     26  C   LIG    1       25.964 -20.258   5.364  0.00  0.00    -0.044 A 
ATOM     27  C   LIG    1       26.483 -20.728   6.578  0.00  0.00    +0.003 A 
ATOM     28  C   LIG    1       27.862 -20.850   6.761  0.00  0.00    +0.000 A 
ATOM     29  C   LIG    1       28.737 -20.515   5.731  0.00  0.00    +0.000 A 
ATOM     30  C   LIG    1       28.236 -20.055   4.517  0.00  0.00    +0.000 A 
ATOM     31  C   LIG    1       26.858 -19.928   4.334  0.00  0.00    +0.003 A 
ENDBRANCH  25  26
ENDBRANCH   7  25
TORSDOF 5
ENDMDL
MODEL 2
REMARK VINA RESULT:       2.9      4.013      6.622
REMARK  Name = *****
REMARK                            x       y       z     vdW  Elec       q    Type
REMARK                         _______ _______ _______ _____ _____    ______ ____
ROOT
ATOM      1  C   LIG    1       27.816 -17.631   4.802  0.00  0.00    +0.119 A 
ATOM      2  C   LIG    1       26.705 -18.086   4.076  0.00  0.00    +0.083 A 
ATOM      3  C   LIG    1       25.962 -17.129   3.334  0.00  0.00    +0.039 A 
ATOM      4  C   LIG    1       26.281 -15.764   3.314  0.00  0.00    +0.056 A 
ATOM      5  N   LIG    1       25.529 -14.900   2.531  0.00  0.00    -0.326 N 
ATOM      6  H   LIG    1       24.597 -15.232   2.298  0.00  0.00    +0.148 HD
ATOM      7  C   LIG    1       25.601 -13.463   2.732  0.00  0.00    +0.164 C 
ATOM      8  N   LIG    1       26.988 -13.022   2.742  0.00  0.00    -0.170 NA
ATOM      9  H   LIG    1       27.036 -12.007   2.846  0.00  0.00    +0.150 HD
ATOM     10  S   LIG    1       27.961 -13.715   3.912  0.00  0.00    +0.062 S 
ATOM     11  O   LIG    1       27.623 -13.103   5.178  0.00  0.00    -0.153 OA
ATOM     12  O   LIG    1       29.315 -13.693   3.409  0.00  0.00    -0.153 OA
ATOM     13  C   LIG    1       27.428 -15.381   3.995  0.00  0.00    +0.128 A 
ATOM     14  C   LIG    1       28.187 -16.282   4.749  0.00  0.00    +0.059 A 
ENDROOT
BRANCH   2  15
ATOM     15  C   LIG    1       26.220 -19.516   3.988  0.00  0.00    +0.419 C 
ATOM     16  F   LIG    1       25.628 -19.756   2.781  0.00  0.00    -0.166 F 
ATOM     17  F   LIG    1       25.252 -19.772   4.914  0.00  0.00    -0.166 F 
ATOM     18  F   LIG    1       27.134 -20.505   4.131  0.00  0.00    -0.166 F 
ENDBRANCH   2  15
BRANCH   1  19
ATOM     19  S   LIG    1       28.783 -18.694   5.845  0.00  0.00    +0.057 S 
ATOM     20  O   LIG    1       29.475 -19.655   5.023  0.00  0.00    -0.153 OA
ATOM     21  O   LIG    1       29.473 -17.864   6.803  0.00  0.00    -0.153 OA
BRANCH  19  22
ATOM     22  N   LIG    1       27.611 -19.575   6.651  0.00  0.00    -0.203 NA
ATOM     23  H   LIG    1       28.044 -20.157   7.371  0.00  0.00    +0.144 HD
ATOM     24  H   LIG    1       26.891 -18.943   7.010  0.00  0.00    +0.144 HD
ENDBRANCH  19  22
ENDBRANCH   1  19
BRANCH   7  25
ATOM     25  C   LIG    1       24.759 -12.995   3.941  0.00  0.00    +0.075 C 
BRANCH  25  26
ATOM     26  C   LIG    1       23.795 -14.035   4.473  0.00  0.00    -0.044 A 
ATOM     27  C   LIG    1       23.236 -13.916   5.753  0.00  0.00    +0.003 A 
ATOM     28  C   LIG    1       22.353 -14.884   6.234  0.00  0.00    +0.000 A 
ATOM     29  C   LIG    1       22.008 -15.975   5.440  0.00  0.00    +0.000 A 
ATOM     30  C   LIG    1       22.548 -16.101   4.163  0.00  0.00    +0.000 A 
ATOM     31  C   LIG    1       23.436 -15.137   3.682  0.00  0.00    +0.003 A 
ENDBRANCH  25  26
ENDBRANCH   7  25
TORSDOF 5
ENDMDL
