MODEL 1
REMARK VINA RESULT:      -8.6      0.000      0.000
REMARK  Name = *****
REMARK                            x       y       z     vdW  Elec       q    Type
REMARK                         _______ _______ _______ _____ _____    ______ ____
ROOT
ATOM      1  C   LIG    1       26.069 -20.799   8.205  0.00  0.00    +0.332 C 
ATOM      2  O   LIG    1       26.602 -20.319   9.156  0.00  0.00    -0.246 OA
ENDROOT
BRANCH   1   3
ATOM      3  C   LIG    1       26.722 -20.928   6.899  0.00  0.00    +0.092 C 
ATOM      4  C   LIG    1       27.986 -20.603   6.551  0.00  0.00    +0.015 C 
BRANCH   4   5
ATOM      5  C   LIG    1       29.153 -20.063   7.298  0.00  0.00    -0.025 A 
ATOM      6  C   LIG    1       29.981 -20.934   8.006  0.00  0.00    +0.011 A 
ATOM      7  C   LIG    1       31.023 -20.441   8.801  0.00  0.00    +0.046 A 
ATOM      8  C   LIG    1       31.249 -19.073   8.953  0.00  0.00    +0.120 A 
ATOM      9  C   LIG    1       30.520 -18.203   8.178  0.00  0.00    +0.046 A 
ATOM     10  C   LIG    1       29.509 -18.715   7.373  0.00  0.00    +0.011 A 
BRANCH   8  11
ATOM     11  O   LIG    1       32.161 -18.541   9.818  0.00  0.00    -0.495 OA
ATOM     12  C   LIG    1       32.328 -17.134   9.648  0.00  0.00    +0.277 C 
ENDBRANCH   8  11
ENDBRANCH   4   5
ENDBRANCH   1   3
BRANCH   1  13
ATOM     13  O   LIG    1       24.793 -21.251   8.215  0.00  0.00    -0.461 OA
BRANCH  13  14
ATOM     14  C   LIG    1       23.951 -20.660   7.193  0.00  0.00    +0.236 C 
BRANCH  14  15
ATOM     15  C   LIG    1       23.384 -21.673   6.170  0.00  0.00    +0.026 C 
BRANCH  15  16
ATOM     16  C   LIG    1       22.347 -20.977   5.236  0.00  0.00    +0.003 C 
ATOM     17  C   LIG    1       22.511 -19.469   5.023  0.00  0.00    +0.004 C 
ENDBRANCH  15  16
BRANCH  15  18
ATOM     18  C   LIG    1       22.723 -22.929   6.822  0.00  0.00    +0.007 C 
BRANCH  18  19
ATOM     19  C   LIG    1       23.379 -24.321   6.591  0.00  0.00    +0.000 C 
BRANCH  19  21
ATOM     20  C   LIG    1       25.939 -24.508   6.867  0.00  0.00    +0.004 C 
ATOM     21  C   LIG    1       24.775 -24.166   5.951  0.00  0.00    -0.003 C 
ENDBRANCH  19  21
ENDBRANCH  18  19
ENDBRANCH  15  18
ENDBRANCH  14  15
ENDBRANCH  13  14
ENDBRANCH   1  13
TORSDOF 10
ENDMDL
MODEL 2
REMARK VINA RESULT:      -8.5      0.755      2.502
REMARK  Name = *****
REMARK                            x       y       z     vdW  Elec       q    Type
REMARK                         _______ _______ _______ _____ _____    ______ ____
ROOT
ATOM      1  C   LIG    1       26.015 -20.746   8.171  0.00  0.00    +0.332 C 
ATOM      2  O   LIG    1       26.563 -20.309   9.134  0.00  0.00    -0.246 OA
ENDROOT
BRANCH   1   3
ATOM      3  C   LIG    1       26.603 -20.710   6.828  0.00  0.00    +0.092 C 
ATOM      4  C   LIG    1       27.854 -20.357   6.464  0.00  0.00    +0.015 C 
BRANCH   4   5
ATOM      5  C   LIG    1       29.066 -19.935   7.215  0.00  0.00    -0.025 A 
ATOM      6  C   LIG    1       29.828 -20.892   7.886  0.00  0.00    +0.011 A 
ATOM      7  C   LIG    1       30.911 -20.509   8.687  0.00  0.00    +0.046 A 
ATOM      8  C   LIG    1       31.246 -19.169   8.879  0.00  0.00    +0.120 A 
ATOM      9  C   LIG    1       30.583 -18.219   8.141  0.00  0.00    +0.046 A 
ATOM     10  C   LIG    1       29.528 -18.623   7.329  0.00  0.00    +0.011 A 
BRANCH   8  11
ATOM     11  O   LIG    1       32.204 -18.739   9.752  0.00  0.00    -0.495 OA
ATOM     12  C   LIG    1       32.249 -17.317   9.866  0.00  0.00    +0.277 C 
ENDBRANCH   8  11
ENDBRANCH   4   5
ENDBRANCH   1   3
BRANCH   1  13
ATOM     13  O   LIG    1       24.779 -21.298   8.203  0.00  0.00    -0.461 OA
BRANCH  13  14
ATOM     14  C   LIG    1       23.820 -20.643   7.335  0.00  0.00    +0.236 C 
BRANCH  14  15
ATOM     15  C   LIG    1       22.983 -21.611   6.465  0.00  0.00    +0.026 C 
BRANCH  15  16
ATOM     16  C   LIG    1       23.819 -22.878   6.107  0.00  0.00    +0.003 C 
ATOM     17  C   LIG    1       23.334 -24.212   6.683  0.00  0.00    +0.004 C 
ENDBRANCH  15  16
BRANCH  15  18
ATOM     18  C   LIG    1       22.440 -20.969   5.148  0.00  0.00    +0.007 C 
BRANCH  18  19
ATOM     19  C   LIG    1       22.516 -19.423   4.986  0.00  0.00    +0.000 C 
BRANCH  19  21
ATOM     20  C   LIG    1       24.651 -20.021   3.663  0.00  0.00    +0.004 C 
ATOM     21  C   LIG    1       23.507 -19.041   3.866  0.00  0.00    -0.003 C 
ENDBRANCH  19  21
ENDBRANCH  18  19
ENDBRANCH  15  18
ENDBRANCH  14  15
ENDBRANCH  13  14
ENDBRANCH   1  13
TORSDOF 10
ENDMDL
MODEL 3
REMARK VINA RESULT:      -8.3      0.761      2.609
REMARK  Name = *****
REMARK                            x       y       z     vdW  Elec       q    Type
REMARK                         _______ _______ _______ _____ _____    ______ ____
ROOT
ATOM      1  C   LIG    1       26.418 -21.213   8.257  0.00  0.00    +0.332 C 
ATOM      2  O   LIG    1       26.458 -20.430   9.154  0.00  0.00    -0.246 OA
ENDROOT
BRANCH   1   3
ATOM      3  C   LIG    1       26.937 -20.925   6.917  0.00  0.00    +0.092 C 
ATOM      4  C   LIG    1       28.108 -20.347   6.571  0.00  0.00    +0.015 C 
BRANCH   4   5
ATOM      5  C   LIG    1       29.276 -19.843   7.342  0.00  0.00    -0.025 A 
ATOM      6  C   LIG    1       30.079 -20.743   8.043  0.00  0.00    +0.011 A 
ATOM      7  C   LIG    1       31.119 -20.285   8.860  0.00  0.00    +0.046 A 
ATOM      8  C   LIG    1       31.368 -18.925   9.041  0.00  0.00    +0.120 A 
ATOM      9  C   LIG    1       30.666 -18.026   8.275  0.00  0.00    +0.046 A 
ATOM     10  C   LIG    1       29.655 -18.504   7.448  0.00  0.00    +0.011 A 
BRANCH   8  11
ATOM     11  O   LIG    1       32.280 -18.426   9.927  0.00  0.00    -0.495 OA
ATOM     12  C   LIG    1       32.397 -17.005   9.859  0.00  0.00    +0.277 C 
ENDBRANCH   8  11
ENDBRANCH   4   5
ENDBRANCH   1   3
BRANCH   1  13
ATOM     13  O   LIG    1       25.863 -22.443   8.366  0.00  0.00    -0.461 OA
BRANCH  13  14
ATOM     14  C   LIG    1       25.466 -23.024   7.098  0.00  0.00    +0.236 C 
BRANCH  14  15
ATOM     15  C   LIG    1       24.029 -23.597   7.082  0.00  0.00    +0.026 C 
BRANCH  15  16
ATOM     16  C   LIG    1       23.966 -24.877   6.192  0.00  0.00    +0.003 C 
ATOM     17  C   LIG    1       25.110 -25.082   5.194  0.00  0.00    +0.004 C 
ENDBRANCH  15  16
BRANCH  15  18
ATOM     18  C   LIG    1       22.947 -22.582   6.593  0.00  0.00    +0.007 C 
BRANCH  18  19
ATOM     19  C   LIG    1       23.217 -21.060   6.778  0.00  0.00    +0.000 C 
BRANCH  19  21
ATOM     20  C   LIG    1       22.476 -19.313   5.028  0.00  0.00    +0.004 C 
ATOM     21  C   LIG    1       23.482 -20.384   5.416  0.00  0.00    -0.003 C 
ENDBRANCH  19  21
ENDBRANCH  18  19
ENDBRANCH  15  18
ENDBRANCH  14  15
ENDBRANCH  13  14
ENDBRANCH   1  13
TORSDOF 10
ENDMDL
MODEL 4
REMARK VINA RESULT:      -7.9      1.877      7.872
REMARK  Name = *****
REMARK                            x       y       z     vdW  Elec       q    Type
REMARK                         _______ _______ _______ _____ _____    ______ ____
ROOT
ATOM      1  C   LIG    1       26.448 -20.585   8.475  0.00  0.00    +0.332 C 
ATOM      2  O   LIG    1       25.863 -21.118   9.366  0.00  0.00    -0.246 OA
ENDROOT
BRANCH   1   3
ATOM      3  C   LIG    1       25.866 -20.371   7.148  0.00  0.00    +0.092 C 
ATOM      4  C   LIG    1       25.259 -21.265   6.337  0.00  0.00    +0.015 C 
BRANCH   4   5
ATOM      5  C   LIG    1       24.922 -22.708   6.465  0.00  0.00    -0.025 A 
ATOM      6  C   LIG    1       25.945 -23.655   6.500  0.00  0.00    +0.011 A 
ATOM      7  C   LIG    1       25.652 -25.024   6.513  0.00  0.00    +0.046 A 
ATOM      8  C   LIG    1       24.341 -25.496   6.448  0.00  0.00    +0.120 A 
ATOM      9  C   LIG    1       23.316 -24.584   6.527  0.00  0.00    +0.046 A 
ATOM     10  C   LIG    1       23.629 -23.229   6.543  0.00  0.00    +0.011 A 
BRANCH   8  11
ATOM     11  O   LIG    1       24.009 -26.814   6.323  0.00  0.00    -0.495 OA
ATOM     12  C   LIG    1       25.134 -27.682   6.460  0.00  0.00    +0.277 C 
ENDBRANCH   8  11
ENDBRANCH   4   5
ENDBRANCH   1   3
BRANCH   1  13
ATOM     13  O   LIG    1       27.724 -20.146   8.581  0.00  0.00    -0.461 OA
BRANCH  13  14
ATOM     14  C   LIG    1       28.691 -20.970   7.882  0.00  0.00    +0.236 C 
BRANCH  14  15
ATOM     15  C   LIG    1       30.050 -20.279   7.623  0.00  0.00    +0.026 C 
BRANCH  15  16
ATOM     16  C   LIG    1       31.092 -20.711   8.699  0.00  0.00    +0.003 C 
ATOM     17  C   LIG    1       31.002 -22.153   9.209  0.00  0.00    +0.004 C 
ENDBRANCH  15  16
BRANCH  15  18
ATOM     18  C   LIG    1       29.970 -18.720   7.586  0.00  0.00    +0.007 C 
BRANCH  18  19
ATOM     19  C   LIG    1       30.968 -17.902   8.458  0.00  0.00    +0.000 C 
BRANCH  19  21
ATOM     20  C   LIG    1       30.549 -17.626  10.991  0.00  0.00    +0.004 C 
ATOM     21  C   LIG    1       30.221 -17.155   9.584  0.00  0.00    -0.003 C 
ENDBRANCH  19  21
ENDBRANCH  18  19
ENDBRANCH  15  18
ENDBRANCH  14  15
ENDBRANCH  13  14
ENDBRANCH   1  13
TORSDOF 10
ENDMDL
MODEL 5
REMARK VINA RESULT:      -7.8      1.636      2.111
REMARK  Name = *****
REMARK                            x       y       z     vdW  Elec       q    Type
REMARK                         _______ _______ _______ _____ _____    ______ ____
ROOT
ATOM      1  C   LIG    1       26.891 -19.979   5.264  0.00  0.00    +0.332 C 
ATOM      2  O   LIG    1       27.887 -19.350   5.084  0.00  0.00    -0.246 OA
ENDROOT
BRANCH   1   3
ATOM      3  C   LIG    1       26.694 -20.854   6.424  0.00  0.00    +0.092 C 
ATOM      4  C   LIG    1       27.489 -21.016   7.503  0.00  0.00    +0.015 C 
BRANCH   4   5
ATOM      5  C   LIG    1       28.765 -20.394   7.946  0.00  0.00    -0.025 A 
ATOM      6  C   LIG    1       29.880 -21.199   8.180  0.00  0.00    +0.011 A 
ATOM      7  C   LIG    1       31.060 -20.652   8.698  0.00  0.00    +0.046 A 
ATOM      8  C   LIG    1       31.158 -19.303   9.039  0.00  0.00    +0.120 A 
ATOM      9  C   LIG    1       30.114 -18.471   8.713  0.00  0.00    +0.046 A 
ATOM     10  C   LIG    1       28.961 -19.030   8.172  0.00  0.00    +0.011 A 
BRANCH   8  11
ATOM     11  O   LIG    1       32.236 -18.751   9.669  0.00  0.00    -0.495 OA
ATOM     12  C   LIG    1       32.106 -17.341   9.852  0.00  0.00    +0.277 C 
ENDBRANCH   8  11
ENDBRANCH   4   5
ENDBRANCH   1   3
BRANCH   1  13
ATOM     13  O   LIG    1       25.845 -19.981   4.405  0.00  0.00    -0.461 OA
BRANCH  13  14
ATOM     14  C   LIG    1       24.906 -21.064   4.623  0.00  0.00    +0.236 C 
BRANCH  14  15
ATOM     15  C   LIG    1       23.432 -20.613   4.757  0.00  0.00    +0.026 C 
BRANCH  15  16
ATOM     16  C   LIG    1       23.218 -19.243   4.045  0.00  0.00    +0.003 C 
ATOM     17  C   LIG    1       22.165 -18.307   4.646  0.00  0.00    +0.004 C 
ENDBRANCH  15  16
BRANCH  15  18
ATOM     18  C   LIG    1       22.936 -20.504   6.234  0.00  0.00    +0.007 C 
BRANCH  18  19
ATOM     19  C   LIG    1       23.345 -21.618   7.242  0.00  0.00    +0.000 C 
BRANCH  19  21
ATOM     20  C   LIG    1       23.756 -24.092   6.631  0.00  0.00    +0.004 C 
ATOM     21  C   LIG    1       22.742 -22.977   6.827  0.00  0.00    -0.003 C 
ENDBRANCH  19  21
ENDBRANCH  18  19
ENDBRANCH  15  18
ENDBRANCH  14  15
ENDBRANCH  13  14
ENDBRANCH   1  13
TORSDOF 10
ENDMDL
MODEL 6
REMARK VINA RESULT:      -7.7      1.434      2.954
REMARK  Name = *****
REMARK                            x       y       z     vdW  Elec       q    Type
REMARK                         _______ _______ _______ _____ _____    ______ ____
ROOT
ATOM      1  C   LIG    1       26.982 -20.477   6.638  0.00  0.00    +0.332 C 
ATOM      2  O   LIG    1       26.962 -19.981   5.555  0.00  0.00    -0.246 OA
ENDROOT
BRANCH   1   3
ATOM      3  C   LIG    1       28.034 -21.398   7.080  0.00  0.00    +0.092 C 
ATOM      4  C   LIG    1       29.240 -21.108   7.613  0.00  0.00    +0.015 C 
BRANCH   4   5
ATOM      5  C   LIG    1       29.927 -19.842   7.982  0.00  0.00    -0.025 A 
ATOM      6  C   LIG    1       31.198 -19.574   7.476  0.00  0.00    +0.011 A 
ATOM      7  C   LIG    1       31.908 -18.441   7.891  0.00  0.00    +0.046 A 
ATOM      8  C   LIG    1       31.400 -17.564   8.849  0.00  0.00    +0.120 A 
ATOM      9  C   LIG    1       30.106 -17.745   9.276  0.00  0.00    +0.046 A 
ATOM     10  C   LIG    1       29.407 -18.861   8.830  0.00  0.00    +0.011 A 
BRANCH   8  11
ATOM     11  O   LIG    1       32.105 -16.525   9.384  0.00  0.00    -0.495 OA
ATOM     12  C   LIG    1       32.538 -16.780  10.719  0.00  0.00    +0.277 C 
ENDBRANCH   8  11
ENDBRANCH   4   5
ENDBRANCH   1   3
BRANCH   1  13
ATOM     13  O   LIG    1       26.022 -20.269   7.570  0.00  0.00    -0.461 OA
BRANCH  13  14
ATOM     14  C   LIG    1       25.495 -21.488   8.153  0.00  0.00    +0.236 C 
BRANCH  14  15
ATOM     15  C   LIG    1       24.099 -21.895   7.626  0.00  0.00    +0.026 C 
BRANCH  15  16
ATOM     16  C   LIG    1       24.231 -23.033   6.568  0.00  0.00    +0.003 C 
ATOM     17  C   LIG    1       25.363 -24.044   6.777  0.00  0.00    +0.004 C 
ENDBRANCH  15  16
BRANCH  15  18
ATOM     18  C   LIG    1       23.287 -20.714   7.007  0.00  0.00    +0.007 C 
BRANCH  18  19
ATOM     19  C   LIG    1       22.735 -20.867   5.559  0.00  0.00    +0.000 C 
BRANCH  19  21
ATOM     20  C   LIG    1       23.712 -19.213   3.835  0.00  0.00    +0.004 C 
ATOM     21  C   LIG    1       22.631 -19.491   4.867  0.00  0.00    -0.003 C 
ENDBRANCH  19  21
ENDBRANCH  18  19
ENDBRANCH  15  18
ENDBRANCH  14  15
ENDBRANCH  13  14
ENDBRANCH   1  13
TORSDOF 10
ENDMDL
MODEL 7
REMARK VINA RESULT:      -7.7      2.562      7.288
REMARK  Name = *****
REMARK                            x       y       z     vdW  Elec       q    Type
REMARK                         _______ _______ _______ _____ _____    ______ ____
ROOT
ATOM      1  C   LIG    1       24.089 -20.741   5.052  0.00  0.00    +0.332 C 
ATOM      2  O   LIG    1       23.542 -20.245   4.117  0.00  0.00    -0.246 OA
ENDROOT
BRANCH   1   3
ATOM      3  C   LIG    1       23.407 -21.040   6.315  0.00  0.00    +0.092 C 
ATOM      4  C   LIG    1       23.393 -22.195   7.014  0.00  0.00    +0.015 C 
BRANCH   4   5
ATOM      5  C   LIG    1       24.045 -23.519   6.830  0.00  0.00    -0.025 A 
ATOM      6  C   LIG    1       25.414 -23.651   7.061  0.00  0.00    +0.011 A 
ATOM      7  C   LIG    1       26.070 -24.859   6.794  0.00  0.00    +0.046 A 
ATOM      8  C   LIG    1       25.400 -25.956   6.252  0.00  0.00    +0.120 A 
ATOM      9  C   LIG    1       24.034 -25.887   6.123  0.00  0.00    +0.046 A 
ATOM     10  C   LIG    1       23.397 -24.687   6.421  0.00  0.00    +0.011 A 
BRANCH   8  11
ATOM     11  O   LIG    1       26.018 -27.106   5.850  0.00  0.00    -0.495 OA
ATOM     12  C   LIG    1       25.131 -28.005   5.184  0.00  0.00    +0.277 C 
ENDBRANCH   8  11
ENDBRANCH   4   5
ENDBRANCH   1   3
BRANCH   1  13
ATOM     13  O   LIG    1       25.406 -21.056   5.064  0.00  0.00    -0.461 OA
BRANCH  13  14
ATOM     14  C   LIG    1       26.221 -20.150   5.850  0.00  0.00    +0.236 C 
BRANCH  14  15
ATOM     15  C   LIG    1       27.458 -20.809   6.503  0.00  0.00    +0.026 C 
BRANCH  15  16
ATOM     16  C   LIG    1       27.442 -20.585   8.046  0.00  0.00    +0.003 C 
ATOM     17  C   LIG    1       26.069 -20.437   8.709  0.00  0.00    +0.004 C 
ENDBRANCH  15  16
BRANCH  15  18
ATOM     18  C   LIG    1       28.821 -20.306   5.928  0.00  0.00    +0.007 C 
BRANCH  18  19
ATOM     19  C   LIG    1       29.285 -18.859   6.269  0.00  0.00    +0.000 C 
BRANCH  19  21
ATOM     20  C   LIG    1       30.329 -18.096   8.503  0.00  0.00    +0.004 C 
ATOM     21  C   LIG    1       30.503 -18.887   7.217  0.00  0.00    -0.003 C 
ENDBRANCH  19  21
ENDBRANCH  18  19
ENDBRANCH  15  18
ENDBRANCH  14  15
ENDBRANCH  13  14
ENDBRANCH   1  13
TORSDOF 10
ENDMDL
MODEL 8
REMARK VINA RESULT:      -7.6      3.670      8.040
REMARK  Name = *****
REMARK                            x       y       z     vdW  Elec       q    Type
REMARK                         _______ _______ _______ _____ _____    ______ ____
ROOT
ATOM      1  C   LIG    1       24.207 -24.041   6.759  0.00  0.00    +0.332 C 
ATOM      2  O   LIG    1       23.292 -24.790   6.612  0.00  0.00    -0.246 OA
ENDROOT
BRANCH   1   3
ATOM      3  C   LIG    1       25.591 -24.391   6.423  0.00  0.00    +0.092 C 
ATOM      4  C   LIG    1       26.138 -25.615   6.268  0.00  0.00    +0.015 C 
BRANCH   4   5
ATOM      5  C   LIG    1       25.599 -27.000   6.327  0.00  0.00    -0.025 A 
ATOM      6  C   LIG    1       24.961 -27.540   5.210  0.00  0.00    +0.011 A 
ATOM      7  C   LIG    1       24.353 -28.799   5.274  0.00  0.00    +0.046 A 
ATOM      8  C   LIG    1       24.323 -29.542   6.454  0.00  0.00    +0.120 A 
ATOM      9  C   LIG    1       25.041 -29.083   7.532  0.00  0.00    +0.046 A 
ATOM     10  C   LIG    1       25.662 -27.842   7.439  0.00  0.00    +0.011 A 
BRANCH   8  11
ATOM     11  O   LIG    1       23.631 -30.710   6.604  0.00  0.00    -0.495 OA
ATOM     12  C   LIG    1       24.061 -31.465   7.736  0.00  0.00    +0.277 C 
ENDBRANCH   8  11
ENDBRANCH   4   5
ENDBRANCH   1   3
BRANCH   1  13
ATOM     13  O   LIG    1       24.077 -22.798   7.279  0.00  0.00    -0.461 OA
BRANCH  13  14
ATOM     14  C   LIG    1       23.018 -22.015   6.674  0.00  0.00    +0.236 C 
BRANCH  14  15
ATOM     15  C   LIG    1       23.509 -20.770   5.898  0.00  0.00    +0.026 C 
BRANCH  15  16
ATOM     16  C   LIG    1       22.367 -20.209   4.996  0.00  0.00    +0.003 C 
ATOM     17  C   LIG    1       22.450 -18.727   4.617  0.00  0.00    +0.004 C 
ENDBRANCH  15  16
BRANCH  15  18
ATOM     18  C   LIG    1       24.774 -21.029   5.020  0.00  0.00    +0.007 C 
BRANCH  18  19
ATOM     19  C   LIG    1       26.091 -20.277   5.370  0.00  0.00    +0.000 C 
BRANCH  19  21
ATOM     20  C   LIG    1       27.796 -21.124   7.113  0.00  0.00    +0.004 C 
ATOM     21  C   LIG    1       26.449 -20.469   6.859  0.00  0.00    -0.003 C 
ENDBRANCH  19  21
ENDBRANCH  18  19
ENDBRANCH  15  18
ENDBRANCH  14  15
ENDBRANCH  13  14
ENDBRANCH   1  13
TORSDOF 10
ENDMDL
MODEL 9
REMARK VINA RESULT:      -7.6      2.831      6.497
REMARK  Name = *****
REMARK                            x       y       z     vdW  Elec       q    Type
REMARK                         _______ _______ _______ _____ _____    ______ ____
ROOT
ATOM      1  C   LIG    1       27.443 -20.633   7.102  0.00  0.00    +0.332 C 
ATOM      2  O   LIG    1       28.554 -20.671   7.529  0.00  0.00    -0.246 OA
ENDROOT
BRANCH   1   3
ATOM      3  C   LIG    1       26.254 -20.628   7.959  0.00  0.00    +0.092 C 
ATOM      4  C   LIG    1       25.266 -21.545   8.038  0.00  0.00    +0.015 C 
BRANCH   4   5
ATOM      5  C   LIG    1       25.018 -22.853   7.375  0.00  0.00    -0.025 A 
ATOM      6  C   LIG    1       23.719 -23.207   7.014  0.00  0.00    +0.011 A 
ATOM      7  C   LIG    1       23.444 -24.474   6.485  0.00  0.00    +0.046 A 
ATOM      8  C   LIG    1       24.439 -25.440   6.336  0.00  0.00    +0.120 A 
ATOM      9  C   LIG    1       25.742 -25.077   6.578  0.00  0.00    +0.046 A 
ATOM     10  C   LIG    1       25.997 -23.803   7.076  0.00  0.00    +0.011 A 
BRANCH   8  11
ATOM     11  O   LIG    1       24.201 -26.729   5.953  0.00  0.00    -0.495 OA
ATOM     12  C   LIG    1       25.363 -27.373   5.430  0.00  0.00    +0.277 C 
ENDBRANCH   8  11
ENDBRANCH   4   5
ENDBRANCH   1   3
BRANCH   1  13
ATOM     13  O   LIG    1       27.153 -20.619   5.780  0.00  0.00    -0.461 OA
BRANCH  13  14
ATOM     14  C   LIG    1       25.938 -19.898   5.451  0.00  0.00    +0.236 C 
BRANCH  14  15
ATOM     15  C   LIG    1       25.174 -20.461   4.229  0.00  0.00    +0.026 C 
BRANCH  15  16
ATOM     16  C   LIG    1       25.199 -19.435   3.055  0.00  0.00    +0.003 C 
ATOM     17  C   LIG    1       25.706 -18.026   3.379  0.00  0.00    +0.004 C 
ENDBRANCH  15  16
BRANCH  15  18
ATOM     18  C   LIG    1       23.693 -20.852   4.534  0.00  0.00    +0.007 C 
BRANCH  18  19
ATOM     19  C   LIG    1       22.834 -19.895   5.411  0.00  0.00    +0.000 C 
BRANCH  19  21
ATOM     20  C   LIG    1       22.249 -17.516   4.596  0.00  0.00    +0.004 C 
ATOM     21  C   LIG    1       21.938 -19.002   4.526  0.00  0.00    -0.003 C 
ENDBRANCH  19  21
ENDBRANCH  18  19
ENDBRANCH  15  18
ENDBRANCH  14  15
ENDBRANCH  13  14
ENDBRANCH   1  13
TORSDOF 10
ENDMDL
