MODEL 1
REMARK VINA RESULT:      -5.5      0.000      0.000
REMARK  Name = *****
REMARK                            x       y       z     vdW  Elec       q    Type
REMARK                         _______ _______ _______ _____ _____    ______ ____
ROOT
ATOM      1  C   LIG    1       27.401 -13.595   3.879  0.00  0.00    +0.003 C 
ATOM      2  C   LIG    1       26.775 -13.187   2.536  0.00  0.00    +0.005 C 
ATOM      3  C   LIG    1       25.388 -13.793   2.310  0.00  0.00    +0.015 C 
ATOM      4  C   LIG    1       24.424 -13.575   3.485  0.00  0.00    +0.098 C 
ATOM      5  C   LIG    1       25.070 -14.033   4.796  0.00  0.00    +0.015 C 
ATOM      6  C   LIG    1       26.421 -13.369   5.040  0.00  0.00    +0.005 C 
ENDROOT
BRANCH   4   7
ATOM      7  C   LIG    1       23.928 -12.135   3.561  0.00  0.00    +0.308 C 
ATOM      8  O   LIG    1       23.706 -11.520   4.595  0.00  0.00    -0.251 OA
BRANCH   7   9
ATOM      9  O   LIG    1       23.792 -11.548   2.350  0.00  0.00    -0.480 OA
ATOM     10  H   LIG    1       24.632 -11.402   1.877  0.00  0.00    +0.295 HD
ENDBRANCH   7   9
ENDBRANCH   4   7
BRANCH   1  11
ATOM     11  C   LIG    1       28.713 -12.818   4.103  0.00  0.00    +0.081 C 
BRANCH  11  12
ATOM     12  N   LIG    1       28.723 -12.133   5.392  0.00  0.00    -0.330 NA
ATOM     13  H   LIG    1       28.886 -12.808   6.138  0.00  0.00    +0.118 HD
ATOM     14  H   LIG    1       29.502 -11.477   5.420  0.00  0.00    +0.118 HD
ENDBRANCH  11  12
ENDBRANCH   1  11
TORSDOF 4
ENDMDL
MODEL 2
REMARK VINA RESULT:      -5.4      3.013      4.177
REMARK  Name = *****
REMARK                            x       y       z     vdW  Elec       q    Type
REMARK                         _______ _______ _______ _____ _____    ______ ____
ROOT
ATOM      1  C   LIG    1       24.849 -13.103   3.524  0.00  0.00    +0.003 C 
ATOM      2  C   LIG    1       25.463 -12.948   4.924  0.00  0.00    +0.005 C 
ATOM      3  C   LIG    1       26.507 -14.021   5.244  0.00  0.00    +0.015 C 
ATOM      4  C   LIG    1       27.582 -14.176   4.158  0.00  0.00    +0.098 C 
ATOM      5  C   LIG    1       26.928 -14.369   2.787  0.00  0.00    +0.015 C 
ATOM      6  C   LIG    1       25.941 -13.256   2.453  0.00  0.00    +0.005 C 
ENDROOT
BRANCH   4   7
ATOM      7  C   LIG    1       28.575 -13.019   4.165  0.00  0.00    +0.308 C 
ATOM      8  O   LIG    1       28.651 -12.163   5.036  0.00  0.00    -0.251 OA
BRANCH   7   9
ATOM      9  O   LIG    1       29.433 -13.040   3.120  0.00  0.00    -0.480 OA
ATOM     10  H   LIG    1       29.140 -13.590   2.370  0.00  0.00    +0.295 HD
ENDBRANCH   7   9
ENDBRANCH   4   7
BRANCH   1  11
ATOM     11  C   LIG    1       23.937 -11.898   3.217  0.00  0.00    +0.081 C 
BRANCH  11  12
ATOM     12  N   LIG    1       24.011 -11.509   1.812  0.00  0.00    -0.330 NA
ATOM     13  H   LIG    1       24.701 -12.085   1.332  0.00  0.00    +0.118 HD
ATOM     14  H   LIG    1       23.116 -11.697   1.362  0.00  0.00    +0.118 HD
ENDBRANCH  11  12
ENDBRANCH   1  11
TORSDOF 4
ENDMDL
MODEL 3
REMARK VINA RESULT:      -5.1      7.006      8.056
REMARK  Name = *****
REMARK                            x       y       z     vdW  Elec       q    Type
REMARK                         _______ _______ _______ _____ _____    ______ ____
ROOT
ATOM      1  C   LIG    1       22.611 -19.098   4.386  0.00  0.00    +0.003 C 
ATOM      2  C   LIG    1       22.748 -19.920   5.677  0.00  0.00    +0.005 C 
ATOM      3  C   LIG    1       23.480 -21.247   5.469  0.00  0.00    +0.015 C 
ATOM      4  C   LIG    1       24.821 -21.100   4.735  0.00  0.00    +0.098 C 
ATOM      5  C   LIG    1       24.632 -20.313   3.435  0.00  0.00    +0.015 C 
ATOM      6  C   LIG    1       23.962 -18.963   3.667  0.00  0.00    +0.005 C 
ENDROOT
BRANCH   4   7
ATOM      7  C   LIG    1       25.900 -20.493   5.625  0.00  0.00    +0.308 C 
ATOM      8  O   LIG    1       25.839 -20.407   6.844  0.00  0.00    -0.251 OA
BRANCH   7   9
ATOM      9  O   LIG    1       26.994 -20.084   4.942  0.00  0.00    -0.480 OA
ATOM     10  H   LIG    1       26.800 -19.517   4.174  0.00  0.00    +0.295 HD
ENDBRANCH   7   9
ENDBRANCH   4   7
BRANCH   1  11
ATOM     11  C   LIG    1       22.014 -17.713   4.708  0.00  0.00    +0.081 C 
BRANCH  11  12
ATOM     12  N   LIG    1       22.917 -16.633   4.323  0.00  0.00    -0.330 NA
ATOM     13  H   LIG    1       23.723 -17.018   3.833  0.00  0.00    +0.118 HD
ATOM     14  H   LIG    1       22.445 -16.017   3.662  0.00  0.00    +0.118 HD
ENDBRANCH  11  12
ENDBRANCH   1  11
TORSDOF 4
ENDMDL
MODEL 4
REMARK VINA RESULT:      -4.9      7.109      7.721
REMARK  Name = *****
REMARK                            x       y       z     vdW  Elec       q    Type
REMARK                         _______ _______ _______ _____ _____    ______ ____
ROOT
ATOM      1  C   LIG    1       25.352 -21.174   6.284  0.00  0.00    +0.003 C 
ATOM      2  C   LIG    1       25.480 -20.839   4.790  0.00  0.00    +0.005 C 
ATOM      3  C   LIG    1       24.212 -21.153   3.993  0.00  0.00    +0.015 C 
ATOM      4  C   LIG    1       22.936 -20.560   4.610  0.00  0.00    +0.098 C 
ATOM      5  C   LIG    1       22.827 -20.952   6.085  0.00  0.00    +0.015 C 
ATOM      6  C   LIG    1       24.071 -20.572   6.881  0.00  0.00    +0.005 C 
ENDROOT
BRANCH   4   7
ATOM      7  C   LIG    1       22.849 -19.051   4.407  0.00  0.00    +0.308 C 
ATOM      8  O   LIG    1       22.087 -18.304   5.005  0.00  0.00    -0.251 OA
BRANCH   7   9
ATOM      9  O   LIG    1       23.748 -18.575   3.515  0.00  0.00    -0.480 OA
ATOM     10  H   LIG    1       23.699 -17.612   3.370  0.00  0.00    +0.295 HD
ENDBRANCH   7   9
ENDBRANCH   4   7
BRANCH   1  11
ATOM     11  C   LIG    1       26.601 -20.679   7.041  0.00  0.00    +0.081 C 
BRANCH  11  12
ATOM     12  N   LIG    1       27.760 -20.576   6.161  0.00  0.00    -0.330 NA
ATOM     13  H   LIG    1       28.252 -21.469   6.136  0.00  0.00    +0.118 HD
ATOM     14  H   LIG    1       27.447 -20.393   5.209  0.00  0.00    +0.118 HD
ENDBRANCH  11  12
ENDBRANCH   1  11
TORSDOF 4
ENDMDL
MODEL 5
REMARK VINA RESULT:      -4.6      3.399      4.215
REMARK  Name = *****
REMARK                            x       y       z     vdW  Elec       q    Type
REMARK                         _______ _______ _______ _____ _____    ______ ____
ROOT
ATOM      1  C   LIG    1       25.355 -12.792   3.503  0.00  0.00    +0.003 C 
ATOM      2  C   LIG    1       26.111 -13.418   2.320  0.00  0.00    +0.005 C 
ATOM      3  C   LIG    1       27.531 -13.859   2.681  0.00  0.00    +0.015 C 
ATOM      4  C   LIG    1       27.600 -14.738   3.938  0.00  0.00    +0.098 C 
ATOM      5  C   LIG    1       26.872 -14.060   5.102  0.00  0.00    +0.015 C 
ATOM      6  C   LIG    1       25.436 -13.687   4.749  0.00  0.00    +0.005 C 
ENDROOT
BRANCH   4   7
ATOM      7  C   LIG    1       27.085 -16.150   3.681  0.00  0.00    +0.308 C 
ATOM      8  O   LIG    1       26.028 -16.423   3.129  0.00  0.00    -0.251 OA
BRANCH   7   9
ATOM      9  O   LIG    1       27.941 -17.117   4.081  0.00  0.00    -0.480 OA
ATOM     10  H   LIG    1       28.829 -17.059   3.682  0.00  0.00    +0.295 HD
ENDBRANCH   7   9
ENDBRANCH   4   7
BRANCH   1  11
ATOM     11  C   LIG    1       23.889 -12.528   3.106  0.00  0.00    +0.081 C 
BRANCH  11  12
ATOM     12  N   LIG    1       23.785 -11.501   2.074  0.00  0.00    -0.330 NA
ATOM     13  H   LIG    1       23.830 -10.578   2.503  0.00  0.00    +0.118 HD
ATOM     14  H   LIG    1       24.587 -11.568   1.449  0.00  0.00    +0.118 HD
ENDBRANCH  11  12
ENDBRANCH   1  11
TORSDOF 4
ENDMDL
MODEL 6
REMARK VINA RESULT:      -4.2      7.090      7.921
REMARK  Name = *****
REMARK                            x       y       z     vdW  Elec       q    Type
REMARK                         _______ _______ _______ _____ _____    ______ ____
ROOT
ATOM      1  C   LIG    1       22.980 -20.952   5.257  0.00  0.00    +0.003 C 
ATOM      2  C   LIG    1       24.123 -21.416   4.341  0.00  0.00    +0.005 C 
ATOM      3  C   LIG    1       24.102 -20.744   2.966  0.00  0.00    +0.015 C 
ATOM      4  C   LIG    1       24.003 -19.213   3.033  0.00  0.00    +0.098 C 
ATOM      5  C   LIG    1       22.828 -18.794   3.920  0.00  0.00    +0.015 C 
ATOM      6  C   LIG    1       22.899 -19.418   5.310  0.00  0.00    +0.005 C 
ENDROOT
BRANCH   4   7
ATOM      7  C   LIG    1       25.315 -18.572   3.473  0.00  0.00    +0.308 C 
ATOM      8  O   LIG    1       25.615 -17.397   3.305  0.00  0.00    -0.251 OA
BRANCH   7   9
ATOM      9  O   LIG    1       26.134 -19.421   4.133  0.00  0.00    -0.480 OA
ATOM     10  H   LIG    1       25.673 -20.134   4.612  0.00  0.00    +0.295 HD
ENDBRANCH   7   9
ENDBRANCH   4   7
BRANCH   1  11
ATOM     11  C   LIG    1       23.166 -21.545   6.668  0.00  0.00    +0.081 C 
BRANCH  11  12
ATOM     12  N   LIG    1       24.571 -21.572   7.062  0.00  0.00    -0.330 NA
ATOM     13  H   LIG    1       25.160 -21.607   6.231  0.00  0.00    +0.118 HD
ATOM     14  H   LIG    1       24.803 -20.704   7.544  0.00  0.00    +0.118 HD
ENDBRANCH  11  12
ENDBRANCH   1  11
TORSDOF 4
ENDMDL
MODEL 7
REMARK VINA RESULT:      -4.2      2.811      3.994
REMARK  Name = *****
REMARK                            x       y       z     vdW  Elec       q    Type
REMARK                         _______ _______ _______ _____ _____    ______ ____
ROOT
ATOM      1  C   LIG    1       24.067 -12.699   3.379  0.00  0.00    +0.003 C 
ATOM      2  C   LIG    1       24.370 -13.817   4.390  0.00  0.00    +0.005 C 
ATOM      3  C   LIG    1       25.031 -15.041   3.752  0.00  0.00    +0.015 C 
ATOM      4  C   LIG    1       26.254 -14.698   2.889  0.00  0.00    +0.098 C 
ATOM      5  C   LIG    1       25.898 -13.613   1.869  0.00  0.00    +0.015 C 
ATOM      6  C   LIG    1       25.302 -12.372   2.526  0.00  0.00    +0.005 C 
ENDROOT
BRANCH   4   7
ATOM      7  C   LIG    1       27.465 -14.319   3.734  0.00  0.00    +0.308 C 
ATOM      8  O   LIG    1       27.929 -13.191   3.832  0.00  0.00    -0.251 OA
BRANCH   7   9
ATOM      9  O   LIG    1       27.979 -15.356   4.434  0.00  0.00    -0.480 OA
ATOM     10  H   LIG    1       28.246 -15.134   5.345  0.00  0.00    +0.295 HD
ENDBRANCH   7   9
ENDBRANCH   4   7
BRANCH   1  11
ATOM     11  C   LIG    1       23.558 -11.447   4.120  0.00  0.00    +0.081 C 
BRANCH  11  12
ATOM     12  N   LIG    1       23.912 -11.475   5.535  0.00  0.00    -0.330 NA
ATOM     13  H   LIG    1       24.093 -12.435   5.825  0.00  0.00    +0.118 HD
ATOM     14  H   LIG    1       24.782 -10.962   5.676  0.00  0.00    +0.118 HD
ENDBRANCH  11  12
ENDBRANCH   1  11
TORSDOF 4
ENDMDL
MODEL 8
REMARK VINA RESULT:      -4.1      6.905      7.702
REMARK  Name = *****
REMARK                            x       y       z     vdW  Elec       q    Type
REMARK                         _______ _______ _______ _____ _____    ______ ____
ROOT
ATOM      1  C   LIG    1       24.382 -18.634   3.363  0.00  0.00    +0.003 C 
ATOM      2  C   LIG    1       23.193 -18.587   4.336  0.00  0.00    +0.005 C 
ATOM      3  C   LIG    1       22.475 -19.932   4.471  0.00  0.00    +0.015 C 
ATOM      4  C   LIG    1       23.419 -21.105   4.771  0.00  0.00    +0.098 C 
ATOM      5  C   LIG    1       24.564 -21.140   3.755  0.00  0.00    +0.015 C 
ATOM      6  C   LIG    1       25.314 -19.814   3.680  0.00  0.00    +0.005 C 
ENDROOT
BRANCH   4   7
ATOM      7  C   LIG    1       23.925 -21.081   6.209  0.00  0.00    +0.308 C 
ATOM      8  O   LIG    1       24.994 -21.542   6.586  0.00  0.00    -0.251 OA
BRANCH   7   9
ATOM      9  O   LIG    1       23.093 -20.442   7.062  0.00  0.00    -0.480 OA
ATOM     10  H   LIG    1       22.962 -20.898   7.914  0.00  0.00    +0.295 HD
ENDBRANCH   7   9
ENDBRANCH   4   7
BRANCH   1  11
ATOM     11  C   LIG    1       25.148 -17.296   3.408  0.00  0.00    +0.081 C 
BRANCH  11  12
ATOM     12  N   LIG    1       26.590 -17.496   3.311  0.00  0.00    -0.330 NA
ATOM     13  H   LIG    1       26.792 -18.488   3.192  0.00  0.00    +0.118 HD
ATOM     14  H   LIG    1       26.941 -17.027   2.476  0.00  0.00    +0.118 HD
ENDBRANCH  11  12
ENDBRANCH   1  11
TORSDOF 4
ENDMDL
MODEL 9
REMARK VINA RESULT:      -4.0      2.071      2.757
REMARK  Name = *****
REMARK                            x       y       z     vdW  Elec       q    Type
REMARK                         _______ _______ _______ _____ _____    ______ ____
ROOT
ATOM      1  C   LIG    1       27.037 -13.094   3.636  0.00  0.00    +0.003 C 
ATOM      2  C   LIG    1       26.392 -13.296   5.016  0.00  0.00    +0.005 C 
ATOM      3  C   LIG    1       24.915 -12.897   5.053  0.00  0.00    +0.015 C 
ATOM      4  C   LIG    1       24.081 -13.529   3.929  0.00  0.00    +0.098 C 
ATOM      5  C   LIG    1       24.735 -13.269   2.570  0.00  0.00    +0.015 C 
ATOM      6  C   LIG    1       26.187 -13.734   2.527  0.00  0.00    +0.005 C 
ENDROOT
BRANCH   4   7
ATOM      7  C   LIG    1       23.823 -15.013   4.171  0.00  0.00    +0.308 C 
ATOM      8  O   LIG    1       24.538 -15.924   3.778  0.00  0.00    -0.251 OA
BRANCH   7   9
ATOM      9  O   LIG    1       22.726 -15.253   4.925  0.00  0.00    -0.480 OA
ATOM     10  H   LIG    1       21.911 -14.831   4.595  0.00  0.00    +0.295 HD
ENDBRANCH   7   9
ENDBRANCH   4   7
BRANCH   1  11
ATOM     11  C   LIG    1       28.468 -13.669   3.638  0.00  0.00    +0.081 C 
BRANCH  11  12
ATOM     12  N   LIG    1       29.475 -12.613   3.615  0.00  0.00    -0.330 NA
ATOM     13  H   LIG    1       30.154 -12.771   4.358  0.00  0.00    +0.118 HD
ATOM     14  H   LIG    1       29.991 -12.658   2.738  0.00  0.00    +0.118 HD
ENDBRANCH  11  12
ENDBRANCH   1  11
TORSDOF 4
ENDMDL
