MODEL 1
REMARK VINA RESULT:      -5.4      0.000      0.000
REMARK  Name = *****
REMARK                            x       y       z     vdW  Elec       q    Type
REMARK                         _______ _______ _______ _____ _____    ______ ____
ROOT
ATOM      1  N   LIG    1       27.066 -19.800   4.922  0.00  0.00    -0.341 N 
ATOM      2  H   LIG    1       26.905 -19.352   4.025  0.00  0.00    +0.146 HD
ENDROOT
BRANCH   1   3
ATOM      3  C   LIG    1       25.846 -20.216   5.504  0.00  0.00    +0.038 A 
ATOM      4  C   LIG    1       24.585 -19.818   4.950  0.00  0.00    +0.021 A 
ATOM      5  C   LIG    1       23.406 -20.317   5.564  0.00  0.00    +0.074 A 
ATOM      6  C   LIG    1       22.161 -19.931   5.109  0.00  0.00    +0.048 A 
ATOM      7  C   LIG    1       22.025 -19.062   4.036  0.00  0.00    +0.043 A 
ATOM      8  C   LIG    1       23.147 -18.575   3.386  0.00  0.00    +0.021 A 
ATOM      9 CL   LIG    1       20.454 -18.597   3.507  0.00  0.00    -0.084 Cl
ATOM     10  N   LIG    1       23.424 -21.170   6.600  0.00  0.00    -0.255 NA
ATOM     11  C   LIG    1       24.616 -21.571   7.062  0.00  0.00    +0.113 A 
ATOM     12  C   LIG    1       24.419 -18.953   3.836  0.00  0.00    +0.013 A 
ATOM     13  C   LIG    1       25.826 -21.130   6.562  0.00  0.00    +0.043 A 
ENDBRANCH   1   3
BRANCH   1  14
ATOM     14  C   LIG    1       28.085 -19.088   5.724  0.00  0.00    +0.067 C 
ATOM     15  C   LIG    1       29.220 -20.046   6.103  0.00  0.00    +0.027 C 
BRANCH  14  16
ATOM     16  C   LIG    1       28.624 -17.910   4.881  0.00  0.00    +0.023 C 
BRANCH  16  17
ATOM     17  C   LIG    1       27.610 -17.298   3.898  0.00  0.00    +0.017 C 
BRANCH  17  18
ATOM     18  C   LIG    1       27.506 -15.779   4.128  0.00  0.00    +0.084 C 
BRANCH  18  19
ATOM     19  N   LIG    1       26.625 -15.056   3.190  0.00  0.00    -0.303 NA
BRANCH  19  21
ATOM     20  C   LIG    1       24.914 -13.564   4.373  0.00  0.00    +0.020 C 
ATOM     21  C   LIG    1       25.245 -14.888   3.684  0.00  0.00    +0.081 C 
ENDBRANCH  19  21
BRANCH  19  22
ATOM     22  C   LIG    1       27.261 -13.780   2.806  0.00  0.00    +0.081 C 
ATOM     23  C   LIG    1       28.284 -13.254   3.809  0.00  0.00    +0.020 C 
ENDBRANCH  19  22
ENDBRANCH  18  19
ENDBRANCH  17  18
ENDBRANCH  16  17
ENDBRANCH  14  16
ENDBRANCH   1  14
TORSDOF 8
ENDMDL
MODEL 2
REMARK VINA RESULT:      -5.0      0.675      1.625
REMARK  Name = *****
REMARK                            x       y       z     vdW  Elec       q    Type
REMARK                         _______ _______ _______ _____ _____    ______ ____
ROOT
ATOM      1  N   LIG    1       27.283 -19.814   4.803  0.00  0.00    -0.341 N 
ATOM      2  H   LIG    1       27.193 -19.877   3.793  0.00  0.00    +0.146 HD
ENDROOT
BRANCH   1   3
ATOM      3  C   LIG    1       26.090 -20.227   5.442  0.00  0.00    +0.038 A 
ATOM      4  C   LIG    1       24.805 -19.833   4.942  0.00  0.00    +0.021 A 
ATOM      5  C   LIG    1       23.656 -20.328   5.612  0.00  0.00    +0.074 A 
ATOM      6  C   LIG    1       22.392 -19.945   5.211  0.00  0.00    +0.048 A 
ATOM      7  C   LIG    1       22.206 -19.083   4.139  0.00  0.00    +0.043 A 
ATOM      8  C   LIG    1       23.298 -18.600   3.437  0.00  0.00    +0.021 A 
ATOM      9 CL   LIG    1       20.614 -18.622   3.679  0.00  0.00    -0.084 Cl
ATOM     10  N   LIG    1       23.720 -21.175   6.651  0.00  0.00    -0.255 NA
ATOM     11  C   LIG    1       24.933 -21.572   7.062  0.00  0.00    +0.113 A 
ATOM     12  C   LIG    1       24.589 -18.975   3.832  0.00  0.00    +0.013 A 
ATOM     13  C   LIG    1       26.118 -21.133   6.505  0.00  0.00    +0.043 A 
ENDBRANCH   1   3
BRANCH   1  14
ATOM     14  C   LIG    1       27.981 -18.579   5.223  0.00  0.00    +0.067 C 
ATOM     15  C   LIG    1       29.429 -18.899   5.609  0.00  0.00    +0.027 C 
BRANCH  14  16
ATOM     16  C   LIG    1       27.937 -17.578   4.046  0.00  0.00    +0.023 C 
BRANCH  16  17
ATOM     17  C   LIG    1       27.650 -16.119   4.444  0.00  0.00    +0.017 C 
BRANCH  17  18
ATOM     18  C   LIG    1       26.597 -15.514   3.498  0.00  0.00    +0.084 C 
BRANCH  18  19
ATOM     19  N   LIG    1       26.256 -14.101   3.753  0.00  0.00    -0.303 NA
BRANCH  19  21
ATOM     20  C   LIG    1       28.606 -13.090   3.661  0.00  0.00    +0.020 C 
ATOM     21  C   LIG    1       27.179 -13.144   3.115  0.00  0.00    +0.081 C 
ENDBRANCH  19  21
BRANCH  19  22
ATOM     22  C   LIG    1       24.842 -13.867   3.395  0.00  0.00    +0.081 C 
ATOM     23  C   LIG    1       23.838 -14.648   4.238  0.00  0.00    +0.020 C 
ENDBRANCH  19  22
ENDBRANCH  18  19
ENDBRANCH  17  18
ENDBRANCH  16  17
ENDBRANCH  14  16
ENDBRANCH   1  14
TORSDOF 8
ENDMDL
MODEL 3
REMARK VINA RESULT:      -4.8      2.637      4.346
REMARK  Name = *****
REMARK                            x       y       z     vdW  Elec       q    Type
REMARK                         _______ _______ _______ _____ _____    ______ ____
ROOT
ATOM      1  N   LIG    1       23.782 -19.037   3.567  0.00  0.00    -0.341 N 
ATOM      2  H   LIG    1       23.554 -19.570   2.733  0.00  0.00    +0.146 HD
ENDROOT
BRANCH   1   3
ATOM      3  C   LIG    1       24.003 -19.894   4.670  0.00  0.00    +0.038 A 
ATOM      4  C   LIG    1       25.316 -20.077   5.217  0.00  0.00    +0.021 A 
ATOM      5  C   LIG    1       25.447 -20.918   6.353  0.00  0.00    +0.074 A 
ATOM      6  C   LIG    1       26.689 -21.174   6.897  0.00  0.00    +0.048 A 
ATOM      7  C   LIG    1       27.839 -20.610   6.362  0.00  0.00    +0.043 A 
ATOM      8  C   LIG    1       27.756 -19.759   5.271  0.00  0.00    +0.021 A 
ATOM      9 CL   LIG    1       29.371 -20.965   7.062  0.00  0.00    -0.084 Cl
ATOM     10  N   LIG    1       24.401 -21.504   6.956  0.00  0.00    -0.255 NA
ATOM     11  C   LIG    1       23.179 -21.270   6.459  0.00  0.00    +0.113 A 
ATOM     12  C   LIG    1       26.503 -19.490   4.705  0.00  0.00    +0.013 A 
ATOM     13  C   LIG    1       22.935 -20.495   5.342  0.00  0.00    +0.043 A 
ENDBRANCH   1   3
BRANCH   1  14
ATOM     14  C   LIG    1       22.938 -17.829   3.702  0.00  0.00    +0.067 C 
ATOM     15  C   LIG    1       21.929 -18.017   4.840  0.00  0.00    +0.027 C 
BRANCH  14  16
ATOM     16  C   LIG    1       23.863 -16.624   3.986  0.00  0.00    +0.023 C 
BRANCH  16  17
ATOM     17  C   LIG    1       23.140 -15.341   4.434  0.00  0.00    +0.017 C 
BRANCH  17  18
ATOM     18  C   LIG    1       23.726 -14.124   3.695  0.00  0.00    +0.084 C 
BRANCH  18  19
ATOM     19  N   LIG    1       25.200 -14.056   3.659  0.00  0.00    -0.303 NA
BRANCH  19  21
ATOM     20  C   LIG    1       25.250 -11.968   2.177  0.00  0.00    +0.020 C 
ATOM     21  C   LIG    1       25.733 -13.392   2.454  0.00  0.00    +0.081 C 
ENDBRANCH  19  21
BRANCH  19  22
ATOM     22  C   LIG    1       25.694 -13.456   4.915  0.00  0.00    +0.081 C 
ATOM     23  C   LIG    1       27.207 -13.522   5.097  0.00  0.00    +0.020 C 
ENDBRANCH  19  22
ENDBRANCH  18  19
ENDBRANCH  17  18
ENDBRANCH  16  17
ENDBRANCH  14  16
ENDBRANCH   1  14
TORSDOF 8
ENDMDL
MODEL 4
REMARK VINA RESULT:      -4.5      1.739      3.581
REMARK  Name = *****
REMARK                            x       y       z     vdW  Elec       q    Type
REMARK                         _______ _______ _______ _____ _____    ______ ____
ROOT
ATOM      1  N   LIG    1       27.675 -16.874   3.517  0.00  0.00    -0.341 N 
ATOM      2  H   LIG    1       27.570 -17.133   2.541  0.00  0.00    +0.146 HD
ENDROOT
BRANCH   1   3
ATOM      3  C   LIG    1       27.518 -18.000   4.358  0.00  0.00    +0.038 A 
ATOM      4  C   LIG    1       26.297 -18.751   4.373  0.00  0.00    +0.021 A 
ATOM      5  C   LIG    1       26.235 -19.895   5.211  0.00  0.00    +0.074 A 
ATOM      6  C   LIG    1       25.072 -20.632   5.308  0.00  0.00    +0.048 A 
ATOM      7  C   LIG    1       23.939 -20.287   4.584  0.00  0.00    +0.043 A 
ATOM      8  C   LIG    1       23.963 -19.196   3.731  0.00  0.00    +0.021 A 
ATOM      9 CL   LIG    1       22.505 -21.225   4.743  0.00  0.00    -0.084 Cl
ATOM     10  N   LIG    1       27.275 -20.324   5.944  0.00  0.00    -0.255 NA
ATOM     11  C   LIG    1       28.422 -19.636   5.867  0.00  0.00    +0.113 A 
ATOM     12  C   LIG    1       25.134 -18.435   3.622  0.00  0.00    +0.013 A 
ATOM     13  C   LIG    1       28.588 -18.493   5.110  0.00  0.00    +0.043 A 
ENDBRANCH   1   3
BRANCH   1  14
ATOM     14  C   LIG    1       27.000 -15.594   3.827  0.00  0.00    +0.067 C 
ATOM     15  C   LIG    1       27.935 -14.689   4.636  0.00  0.00    +0.027 C 
BRANCH  14  16
ATOM     16  C   LIG    1       26.607 -14.921   2.492  0.00  0.00    +0.023 C 
BRANCH  16  17
ATOM     17  C   LIG    1       26.329 -13.410   2.583  0.00  0.00    +0.017 C 
BRANCH  17  18
ATOM     18  C   LIG    1       24.902 -13.109   2.088  0.00  0.00    +0.084 C 
BRANCH  18  19
ATOM     19  N   LIG    1       23.870 -13.038   3.140  0.00  0.00    -0.303 NA
BRANCH  19  21
ATOM     20  C   LIG    1       23.183 -15.200   4.327  0.00  0.00    +0.020 C 
ATOM     21  C   LIG    1       24.095 -13.975   4.257  0.00  0.00    +0.081 C 
ENDBRANCH  19  21
BRANCH  19  22
ATOM     22  C   LIG    1       23.717 -11.637   3.583  0.00  0.00    +0.081 C 
ATOM     23  C   LIG    1       23.718 -11.448   5.097  0.00  0.00    +0.020 C 
ENDBRANCH  19  22
ENDBRANCH  18  19
ENDBRANCH  17  18
ENDBRANCH  16  17
ENDBRANCH  14  16
ENDBRANCH   1  14
TORSDOF 8
ENDMDL
MODEL 5
REMARK VINA RESULT:      -3.0      2.301      6.262
REMARK  Name = *****
REMARK                            x       y       z     vdW  Elec       q    Type
REMARK                         _______ _______ _______ _____ _____    ______ ____
ROOT
ATOM      1  N   LIG    1       25.256 -17.986   3.341  0.00  0.00    -0.341 N 
ATOM      2  H   LIG    1       24.659 -17.892   2.524  0.00  0.00    +0.146 HD
ENDROOT
BRANCH   1   3
ATOM      3  C   LIG    1       25.987 -16.798   3.571  0.00  0.00    +0.038 A 
ATOM      4  C   LIG    1       25.322 -15.552   3.818  0.00  0.00    +0.021 A 
ATOM      5  C   LIG    1       26.127 -14.415   4.087  0.00  0.00    +0.074 A 
ATOM      6  C   LIG    1       25.549 -13.176   4.284  0.00  0.00    +0.048 A 
ATOM      7  C   LIG    1       24.172 -13.010   4.239  0.00  0.00    +0.043 A 
ATOM      8  C   LIG    1       23.345 -14.098   4.009  0.00  0.00    +0.021 A 
ATOM      9 CL   LIG    1       23.492 -11.447   4.477  0.00  0.00    -0.084 Cl
ATOM     10  N   LIG    1       27.466 -14.466   4.165  0.00  0.00    -0.255 NA
ATOM     11  C   LIG    1       28.059 -15.654   3.986  0.00  0.00    +0.113 A 
ATOM     12  C   LIG    1       23.915 -15.361   3.805  0.00  0.00    +0.013 A 
ATOM     13  C   LIG    1       27.379 -16.820   3.691  0.00  0.00    +0.043 A 
ENDBRANCH   1   3
BRANCH   1  14
ATOM     14  C   LIG    1       25.918 -19.308   3.395  0.00  0.00    +0.067 C 
ATOM     15  C   LIG    1       26.466 -19.565   4.803  0.00  0.00    +0.027 C 
BRANCH  14  16
ATOM     16  C   LIG    1       24.877 -20.384   3.009  0.00  0.00    +0.023 C 
BRANCH  16  17
ATOM     17  C   LIG    1       24.478 -21.339   4.147  0.00  0.00    +0.017 C 
BRANCH  17  18
ATOM     18  C   LIG    1       22.950 -21.317   4.339  0.00  0.00    +0.084 C 
BRANCH  18  19
ATOM     19  N   LIG    1       22.483 -20.779   5.631  0.00  0.00    -0.303 NA
BRANCH  19  21
ATOM     20  C   LIG    1       24.569 -21.185   7.060  0.00  0.00    +0.020 C 
ATOM     21  C   LIG    1       23.084 -21.444   6.803  0.00  0.00    +0.081 C 
ENDBRANCH  19  21
BRANCH  19  22
ATOM     22  C   LIG    1       22.662 -19.313   5.644  0.00  0.00    +0.081 C 
ATOM     23  C   LIG    1       22.071 -18.592   4.435  0.00  0.00    +0.020 C 
ENDBRANCH  19  22
ENDBRANCH  18  19
ENDBRANCH  17  18
ENDBRANCH  16  17
ENDBRANCH  14  16
ENDBRANCH   1  14
TORSDOF 8
ENDMDL
MODEL 6
REMARK VINA RESULT:      -2.9      2.817      7.084
REMARK  Name = *****
REMARK                            x       y       z     vdW  Elec       q    Type
REMARK                         _______ _______ _______ _____ _____    ______ ____
ROOT
ATOM      1  N   LIG    1       24.332 -17.034   3.348  0.00  0.00    -0.341 N 
ATOM      2  H   LIG    1       25.225 -17.250   2.915  0.00  0.00    +0.146 HD
ENDROOT
BRANCH   1   3
ATOM      3  C   LIG    1       24.337 -15.727   3.889  0.00  0.00    +0.038 A 
ATOM      4  C   LIG    1       25.529 -14.931   3.898  0.00  0.00    +0.021 A 
ATOM      5  C   LIG    1       25.440 -13.613   4.416  0.00  0.00    +0.074 A 
ATOM      6  C   LIG    1       26.563 -12.814   4.498  0.00  0.00    +0.048 A 
ATOM      7  C   LIG    1       27.802 -13.266   4.066  0.00  0.00    +0.043 A 
ATOM      8  C   LIG    1       27.930 -14.536   3.525  0.00  0.00    +0.021 A 
ATOM      9 CL   LIG    1       29.179 -12.243   4.197  0.00  0.00    -0.084 Cl
ATOM     10  N   LIG    1       24.291 -13.071   4.849  0.00  0.00    -0.255 NA
ATOM     11  C   LIG    1       23.180 -13.818   4.777  0.00  0.00    +0.113 A 
ATOM     12  C   LIG    1       26.802 -15.362   3.437  0.00  0.00    +0.013 A 
ATOM     13  C   LIG    1       23.154 -15.121   4.319  0.00  0.00    +0.043 A 
ENDBRANCH   1   3
BRANCH   1  14
ATOM     14  C   LIG    1       23.801 -18.175   4.126  0.00  0.00    +0.067 C 
ATOM     15  C   LIG    1       22.283 -18.274   3.945  0.00  0.00    +0.027 C 
BRANCH  14  16
ATOM     16  C   LIG    1       24.496 -19.463   3.625  0.00  0.00    +0.023 C 
BRANCH  16  17
ATOM     17  C   LIG    1       23.956 -20.770   4.232  0.00  0.00    +0.017 C 
BRANCH  17  18
ATOM     18  C   LIG    1       25.108 -21.567   4.871  0.00  0.00    +0.084 C 
BRANCH  18  19
ATOM     19  N   LIG    1       25.203 -21.472   6.341  0.00  0.00    -0.303 NA
BRANCH  19  21
ATOM     20  C   LIG    1       27.464 -20.283   6.516  0.00  0.00    +0.020 C 
ATOM     21  C   LIG    1       25.964 -20.299   6.811  0.00  0.00    +0.081 C 
ENDBRANCH  19  21
BRANCH  19  22
ATOM     22  C   LIG    1       23.849 -21.556   6.926  0.00  0.00    +0.081 C 
ATOM     23  C   LIG    1       23.134 -20.215   7.062  0.00  0.00    +0.020 C 
ENDBRANCH  19  22
ENDBRANCH  18  19
ENDBRANCH  17  18
ENDBRANCH  16  17
ENDBRANCH  14  16
ENDBRANCH   1  14
TORSDOF 8
ENDMDL
