MODEL 1
REMARK VINA RESULT:     -10.2      0.000      0.000
REMARK  Name = *****
REMARK                            x       y       z     vdW  Elec       q    Type
REMARK                         _______ _______ _______ _____ _____    ______ ____
ROOT
ATOM      1  C   LIG    1       29.187 -20.114   7.493  0.00  0.00    +0.253 C 
ATOM      2  N   LIG    1       28.062 -20.864   7.788  0.00  0.00    -0.281 N 
ATOM      3  H   LIG    1       28.145 -21.538   8.536  0.00  0.00    +0.155 HD
ATOM      4  O   LIG    1       29.237 -19.180   6.702  0.00  0.00    -0.270 OA
ENDROOT
BRANCH   1   7
ATOM      5  C   LIG    1       31.661 -18.230   8.502  0.00  0.00    +0.090 C 
ATOM      6  C   LIG    1       31.383 -19.672   8.660  0.00  0.00    +0.146 A 
ATOM      7  C   LIG    1       30.360 -20.505   8.257  0.00  0.00    +0.098 A 
ATOM      8  C   LIG    1       30.763 -21.767   8.752  0.00  0.00    +0.170 A 
ATOM      9  N   LIG    1       31.909 -21.709   9.430  0.00  0.00    -0.086 NA
ATOM     10  O   LIG    1       32.303 -20.385   9.368  0.00  0.00    -0.359 OA
ENDBRANCH   1   7
BRANCH   2  11
ATOM     11  C   LIG    1       26.767 -20.734   7.245  0.00  0.00    +0.034 A 
ATOM     12  C   LIG    1       26.679 -20.500   5.867  0.00  0.00    +0.024 A 
ATOM     13  C   LIG    1       25.436 -20.372   5.239  0.00  0.00    +0.014 A 
ATOM     14  C   LIG    1       24.252 -20.473   5.979  0.00  0.00    +0.055 A 
ATOM     15  C   LIG    1       24.342 -20.698   7.360  0.00  0.00    +0.014 A 
ATOM     16  C   LIG    1       25.589 -20.826   7.986  0.00  0.00    +0.024 A 
BRANCH  14  17
ATOM     17  C   LIG    1       22.916 -20.344   5.288  0.00  0.00    +0.417 C 
ATOM     18  F   LIG    1       23.041 -20.248   3.934  0.00  0.00    -0.166 F 
ATOM     19  F   LIG    1       22.235 -19.232   5.679  0.00  0.00    -0.166 F 
ATOM     20  F   LIG    1       22.079 -21.394   5.513  0.00  0.00    -0.166 F 
ENDBRANCH  14  17
ENDBRANCH   2  11
TORSDOF 3
ENDMDL
MODEL 2
REMARK VINA RESULT:      -9.6      0.952      2.041
REMARK  Name = *****
REMARK                            x       y       z     vdW  Elec       q    Type
REMARK                         _______ _______ _______ _____ _____    ______ ____
ROOT
ATOM      1  C   LIG    1       29.393 -19.425   7.128  0.00  0.00    +0.253 C 
ATOM      2  N   LIG    1       28.294 -20.067   7.672  0.00  0.00    -0.281 N 
ATOM      3  H   LIG    1       28.365 -20.354   8.638  0.00  0.00    +0.155 HD
ATOM      4  O   LIG    1       29.444 -18.910   6.018  0.00  0.00    -0.270 OA
ENDROOT
BRANCH   1   7
ATOM      5  C   LIG    1       30.784 -21.872   8.791  0.00  0.00    +0.090 C 
ATOM      6  C   LIG    1       31.085 -20.428   8.714  0.00  0.00    +0.146 A 
ATOM      7  C   LIG    1       30.532 -19.364   8.030  0.00  0.00    +0.098 A 
ATOM      8  C   LIG    1       31.326 -18.271   8.445  0.00  0.00    +0.170 A 
ATOM      9  N   LIG    1       32.302 -18.634   9.278  0.00  0.00    -0.086 NA
ATOM     10  O   LIG    1       32.146 -19.997   9.450  0.00  0.00    -0.359 OA
ENDBRANCH   1   7
BRANCH   2  11
ATOM     11  C   LIG    1       27.033 -20.280   7.078  0.00  0.00    +0.034 A 
ATOM     12  C   LIG    1       25.963 -20.545   7.942  0.00  0.00    +0.024 A 
ATOM     13  C   LIG    1       24.674 -20.754   7.444  0.00  0.00    +0.014 A 
ATOM     14  C   LIG    1       24.427 -20.707   6.066  0.00  0.00    +0.055 A 
ATOM     15  C   LIG    1       25.501 -20.451   5.202  0.00  0.00    +0.014 A 
ATOM     16  C   LIG    1       26.792 -20.241   5.704  0.00  0.00    +0.024 A 
BRANCH  14  17
ATOM     17  C   LIG    1       23.029 -20.923   5.541  0.00  0.00    +0.417 C 
ATOM     18  F   LIG    1       22.229 -19.836   5.732  0.00  0.00    -0.166 F 
ATOM     19  F   LIG    1       22.399 -21.962   6.157  0.00  0.00    -0.166 F 
ATOM     20  F   LIG    1       22.979 -21.194   4.207  0.00  0.00    -0.166 F 
ENDBRANCH  14  17
ENDBRANCH   2  11
TORSDOF 3
ENDMDL
MODEL 3
REMARK VINA RESULT:      -9.6      1.571      2.155
REMARK  Name = *****
REMARK                            x       y       z     vdW  Elec       q    Type
REMARK                         _______ _______ _______ _____ _____    ______ ____
ROOT
ATOM      1  C   LIG    1       29.089 -20.976   7.502  0.00  0.00    +0.253 C 
ATOM      2  N   LIG    1       28.054 -21.448   8.291  0.00  0.00    -0.281 N 
ATOM      3  H   LIG    1       28.242 -21.552   9.277  0.00  0.00    +0.155 HD
ATOM      4  O   LIG    1       29.007 -20.682   6.316  0.00  0.00    -0.270 OA
ENDROOT
BRANCH   1   7
ATOM      5  C   LIG    1       30.667 -18.196   8.184  0.00  0.00    +0.090 C 
ATOM      6  C   LIG    1       30.969 -19.609   8.490  0.00  0.00    +0.146 A 
ATOM      7  C   LIG    1       30.337 -20.808   8.227  0.00  0.00    +0.098 A 
ATOM      8  C   LIG    1       31.205 -21.759   8.810  0.00  0.00    +0.170 A 
ATOM      9  N   LIG    1       32.254 -21.197   9.409  0.00  0.00    -0.086 NA
ATOM     10  O   LIG    1       32.106 -19.838   9.203  0.00  0.00    -0.359 OA
ENDBRANCH   1   7
BRANCH   2  11
ATOM     11  C   LIG    1       26.720 -21.703   7.909  0.00  0.00    +0.034 A 
ATOM     12  C   LIG    1       26.430 -22.992   7.442  0.00  0.00    +0.024 A 
ATOM     13  C   LIG    1       25.133 -23.339   7.055  0.00  0.00    +0.014 A 
ATOM     14  C   LIG    1       24.095 -22.402   7.124  0.00  0.00    +0.055 A 
ATOM     15  C   LIG    1       24.388 -21.110   7.583  0.00  0.00    +0.014 A 
ATOM     16  C   LIG    1       25.689 -20.764   7.970  0.00  0.00    +0.024 A 
BRANCH  14  17
ATOM     17  C   LIG    1       22.695 -22.793   6.714  0.00  0.00    +0.417 C 
ATOM     18  F   LIG    1       21.800 -22.655   7.732  0.00  0.00    -0.166 F 
ATOM     19  F   LIG    1       22.615 -24.094   6.321  0.00  0.00    -0.166 F 
ATOM     20  F   LIG    1       22.202 -22.058   5.680  0.00  0.00    -0.166 F 
ENDBRANCH  14  17
ENDBRANCH   2  11
TORSDOF 3
ENDMDL
MODEL 4
REMARK VINA RESULT:      -9.5      0.924      1.745
REMARK  Name = *****
REMARK                            x       y       z     vdW  Elec       q    Type
REMARK                         _______ _______ _______ _____ _____    ______ ____
ROOT
ATOM      1  C   LIG    1       29.312 -19.760   7.168  0.00  0.00    +0.253 C 
ATOM      2  N   LIG    1       28.163 -20.115   7.854  0.00  0.00    -0.281 N 
ATOM      3  H   LIG    1       28.225 -20.152   8.862  0.00  0.00    +0.155 HD
ATOM      4  O   LIG    1       29.391 -19.556   5.963  0.00  0.00    -0.270 OA
ENDROOT
BRANCH   1   7
ATOM      5  C   LIG    1       30.857 -22.044   8.924  0.00  0.00    +0.090 C 
ATOM      6  C   LIG    1       31.091 -20.596   8.755  0.00  0.00    +0.146 A 
ATOM      7  C   LIG    1       30.472 -19.598   8.029  0.00  0.00    +0.098 A 
ATOM      8  C   LIG    1       31.229 -18.450   8.356  0.00  0.00    +0.170 A 
ATOM      9  N   LIG    1       32.243 -18.721   9.178  0.00  0.00    -0.086 NA
ATOM     10  O   LIG    1       32.152 -20.077   9.433  0.00  0.00    -0.359 OA
ENDBRANCH   1   7
BRANCH   2  11
ATOM     11  C   LIG    1       26.872 -20.331   7.329  0.00  0.00    +0.034 A 
ATOM     12  C   LIG    1       26.733 -20.251   5.937  0.00  0.00    +0.024 A 
ATOM     13  C   LIG    1       25.494 -20.464   5.327  0.00  0.00    +0.014 A 
ATOM     14  C   LIG    1       24.363 -20.761   6.098  0.00  0.00    +0.055 A 
ATOM     15  C   LIG    1       24.502 -20.832   7.490  0.00  0.00    +0.014 A 
ATOM     16  C   LIG    1       25.745 -20.618   8.100  0.00  0.00    +0.024 A 
BRANCH  14  17
ATOM     17  C   LIG    1       23.033 -21.001   5.426  0.00  0.00    +0.417 C 
ATOM     18  F   LIG    1       22.365 -22.061   5.963  0.00  0.00    -0.166 F 
ATOM     19  F   LIG    1       23.165 -21.278   4.099  0.00  0.00    -0.166 F 
ATOM     20  F   LIG    1       22.180 -19.943   5.504  0.00  0.00    -0.166 F 
ENDBRANCH  14  17
ENDBRANCH   2  11
TORSDOF 3
ENDMDL
MODEL 5
REMARK VINA RESULT:      -9.3      1.723      2.363
REMARK  Name = *****
REMARK                            x       y       z     vdW  Elec       q    Type
REMARK                         _______ _______ _______ _____ _____    ______ ____
ROOT
ATOM      1  C   LIG    1       29.111 -20.346   7.266  0.00  0.00    +0.253 C 
ATOM      2  N   LIG    1       28.129 -20.801   8.128  0.00  0.00    -0.281 N 
ATOM      3  H   LIG    1       28.322 -20.734   9.118  0.00  0.00    +0.155 HD
ATOM      4  O   LIG    1       29.006 -20.244   6.050  0.00  0.00    -0.270 OA
ENDROOT
BRANCH   1   7
ATOM      5  C   LIG    1       31.039 -22.130   9.213  0.00  0.00    +0.090 C 
ATOM      6  C   LIG    1       31.112 -20.726   8.761  0.00  0.00    +0.146 A 
ATOM      7  C   LIG    1       30.330 -19.935   7.944  0.00  0.00    +0.098 A 
ATOM      8  C   LIG    1       30.999 -18.690   7.971  0.00  0.00    +0.170 A 
ATOM      9  N   LIG    1       32.112 -18.722   8.705  0.00  0.00    -0.086 NA
ATOM     10  O   LIG    1       32.180 -20.009   9.207  0.00  0.00    -0.359 OA
ENDBRANCH   1   7
BRANCH   2  11
ATOM     11  C   LIG    1       26.833 -21.254   7.804  0.00  0.00    +0.034 A 
ATOM     12  C   LIG    1       26.720 -22.571   7.339  0.00  0.00    +0.024 A 
ATOM     13  C   LIG    1       25.474 -23.110   7.007  0.00  0.00    +0.014 A 
ATOM     14  C   LIG    1       24.310 -22.340   7.130  0.00  0.00    +0.055 A 
ATOM     15  C   LIG    1       24.427 -21.020   7.586  0.00  0.00    +0.014 A 
ATOM     16  C   LIG    1       25.677 -20.482   7.918  0.00  0.00    +0.024 A 
BRANCH  14  17
ATOM     17  C   LIG    1       22.969 -22.937   6.779  0.00  0.00    +0.417 C 
ATOM     18  F   LIG    1       22.425 -22.369   5.665  0.00  0.00    -0.166 F 
ATOM     19  F   LIG    1       22.051 -22.768   7.770  0.00  0.00    -0.166 F 
ATOM     20  F   LIG    1       23.012 -24.275   6.533  0.00  0.00    -0.166 F 
ENDBRANCH  14  17
ENDBRANCH   2  11
TORSDOF 3
ENDMDL
MODEL 6
REMARK VINA RESULT:      -8.5      5.049      7.309
REMARK  Name = *****
REMARK                            x       y       z     vdW  Elec       q    Type
REMARK                         _______ _______ _______ _____ _____    ______ ____
ROOT
ATOM      1  C   LIG    1       25.550 -22.237   7.777  0.00  0.00    +0.253 C 
ATOM      2  N   LIG    1       26.533 -21.944   6.848  0.00  0.00    -0.281 N 
ATOM      3  H   LIG    1       26.378 -22.264   5.902  0.00  0.00    +0.155 HD
ATOM      4  O   LIG    1       25.515 -21.834   8.933  0.00  0.00    -0.270 OA
ENDROOT
BRANCH   1   7
ATOM      5  C   LIG    1       25.750 -25.299   6.648  0.00  0.00    +0.090 C 
ATOM      6  C   LIG    1       24.616 -24.361   6.778  0.00  0.00    +0.146 A 
ATOM      7  C   LIG    1       24.483 -23.070   7.247  0.00  0.00    +0.098 A 
ATOM      8  C   LIG    1       23.108 -22.803   7.057  0.00  0.00    +0.170 A 
ATOM      9  N   LIG    1       22.448 -23.846   6.554  0.00  0.00    -0.086 NA
ATOM     10  O   LIG    1       23.403 -24.829   6.374  0.00  0.00    -0.359 OA
ENDBRANCH   1   7
BRANCH   2  11
ATOM     11  C   LIG    1       27.687 -21.153   7.027  0.00  0.00    +0.034 A 
ATOM     12  C   LIG    1       28.610 -21.589   7.986  0.00  0.00    +0.024 A 
ATOM     13  C   LIG    1       29.790 -20.876   8.222  0.00  0.00    +0.014 A 
ATOM     14  C   LIG    1       30.070 -19.707   7.503  0.00  0.00    +0.055 A 
ATOM     15  C   LIG    1       29.141 -19.268   6.551  0.00  0.00    +0.014 A 
ATOM     16  C   LIG    1       27.960 -19.984   6.317  0.00  0.00    +0.024 A 
BRANCH  14  17
ATOM     17  C   LIG    1       31.353 -18.953   7.759  0.00  0.00    +0.417 C 
ATOM     18  F   LIG    1       32.030 -19.435   8.839  0.00  0.00    -0.166 F 
ATOM     19  F   LIG    1       31.136 -17.633   8.015  0.00  0.00    -0.166 F 
ATOM     20  F   LIG    1       32.230 -18.994   6.719  0.00  0.00    -0.166 F 
ENDBRANCH  14  17
ENDBRANCH   2  11
TORSDOF 3
ENDMDL
MODEL 7
REMARK VINA RESULT:      -8.3      6.812      8.056
REMARK  Name = *****
REMARK                            x       y       z     vdW  Elec       q    Type
REMARK                         _______ _______ _______ _____ _____    ______ ____
ROOT
ATOM      1  C   LIG    1       25.378 -27.612   6.996  0.00  0.00    +0.253 C 
ATOM      2  N   LIG    1       24.633 -26.641   6.350  0.00  0.00    -0.281 N 
ATOM      3  H   LIG    1       23.908 -26.962   5.724  0.00  0.00    +0.155 HD
ATOM      4  O   LIG    1       26.213 -27.411   7.869  0.00  0.00    -0.270 OA
ENDROOT
BRANCH   1   7
ATOM      5  C   LIG    1       23.937 -29.982   8.726  0.00  0.00    +0.090 C 
ATOM      6  C   LIG    1       24.447 -29.935   7.341  0.00  0.00    +0.146 A 
ATOM      7  C   LIG    1       25.057 -28.965   6.571  0.00  0.00    +0.098 A 
ATOM      8  C   LIG    1       25.279 -29.627   5.342  0.00  0.00    +0.170 A 
ATOM      9  N   LIG    1       24.816 -30.877   5.342  0.00  0.00    -0.086 NA
ATOM     10  O   LIG    1       24.293 -31.072   6.607  0.00  0.00    -0.359 OA
ENDBRANCH   1   7
BRANCH   2  11
ATOM     11  C   LIG    1       24.681 -25.244   6.538  0.00  0.00    +0.034 A 
ATOM     12  C   LIG    1       23.455 -24.568   6.582  0.00  0.00    +0.024 A 
ATOM     13  C   LIG    1       23.405 -23.185   6.779  0.00  0.00    +0.014 A 
ATOM     14  C   LIG    1       24.584 -22.446   6.933  0.00  0.00    +0.055 A 
ATOM     15  C   LIG    1       25.810 -23.122   6.880  0.00  0.00    +0.014 A 
ATOM     16  C   LIG    1       25.858 -24.509   6.683  0.00  0.00    +0.024 A 
BRANCH  14  17
ATOM     17  C   LIG    1       24.517 -20.954   7.157  0.00  0.00    +0.417 C 
ATOM     18  F   LIG    1       23.239 -20.515   7.335  0.00  0.00    -0.166 F 
ATOM     19  F   LIG    1       25.009 -20.249   6.101  0.00  0.00    -0.166 F 
ATOM     20  F   LIG    1       25.214 -20.531   8.247  0.00  0.00    -0.166 F 
ENDBRANCH  14  17
ENDBRANCH   2  11
TORSDOF 3
ENDMDL
MODEL 8
REMARK VINA RESULT:      -8.3      4.986      7.261
REMARK  Name = *****
REMARK                            x       y       z     vdW  Elec       q    Type
REMARK                         _______ _______ _______ _____ _____    ______ ____
ROOT
ATOM      1  C   LIG    1       26.419 -22.319   8.036  0.00  0.00    +0.253 C 
ATOM      2  N   LIG    1       27.563 -22.002   7.322  0.00  0.00    -0.281 N 
ATOM      3  H   LIG    1       27.642 -22.388   6.392  0.00  0.00    +0.155 HD
ATOM      4  O   LIG    1       26.103 -21.853   9.123  0.00  0.00    -0.270 OA
ENDROOT
BRANCH   1   7
ATOM      5  C   LIG    1       23.267 -21.962   7.244  0.00  0.00    +0.090 C 
ATOM      6  C   LIG    1       24.223 -23.069   7.038  0.00  0.00    +0.146 A 
ATOM      7  C   LIG    1       25.553 -23.264   7.350  0.00  0.00    +0.098 A 
ATOM      8  C   LIG    1       25.808 -24.565   6.860  0.00  0.00    +0.170 A 
ATOM      9  N   LIG    1       24.744 -25.107   6.268  0.00  0.00    -0.086 NA
ATOM     10  O   LIG    1       23.741 -24.162   6.385  0.00  0.00    -0.359 OA
ENDBRANCH   1   7
BRANCH   2  11
ATOM     11  C   LIG    1       28.594 -21.112   7.688  0.00  0.00    +0.034 A 
ATOM     12  C   LIG    1       28.383 -19.754   7.418  0.00  0.00    +0.024 A 
ATOM     13  C   LIG    1       29.344 -18.797   7.759  0.00  0.00    +0.014 A 
ATOM     14  C   LIG    1       30.541 -19.181   8.377  0.00  0.00    +0.055 A 
ATOM     15  C   LIG    1       30.753 -20.541   8.638  0.00  0.00    +0.014 A 
ATOM     16  C   LIG    1       29.789 -21.497   8.296  0.00  0.00    +0.024 A 
BRANCH  14  17
ATOM     17  C   LIG    1       31.566 -18.137   8.750  0.00  0.00    +0.417 C 
ATOM     18  F   LIG    1       32.120 -18.370   9.974  0.00  0.00    -0.166 F 
ATOM     19  F   LIG    1       31.032 -16.886   8.815  0.00  0.00    -0.166 F 
ATOM     20  F   LIG    1       32.607 -18.055   7.878  0.00  0.00    -0.166 F 
ENDBRANCH  14  17
ENDBRANCH   2  11
TORSDOF 3
ENDMDL
MODEL 9
REMARK VINA RESULT:      -8.2      5.911      7.579
REMARK  Name = *****
REMARK                            x       y       z     vdW  Elec       q    Type
REMARK                         _______ _______ _______ _____ _____    ______ ____
ROOT
ATOM      1  C   LIG    1       24.488 -22.691   5.776  0.00  0.00    +0.253 C 
ATOM      2  N   LIG    1       25.086 -23.811   5.224  0.00  0.00    -0.281 N 
ATOM      3  H   LIG    1       25.623 -23.673   4.380  0.00  0.00    +0.155 HD
ATOM      4  O   LIG    1       23.900 -22.650   6.849  0.00  0.00    -0.270 OA
ENDROOT
BRANCH   1   7
ATOM      5  C   LIG    1       26.719 -20.323   6.095  0.00  0.00    +0.090 C 
ATOM      6  C   LIG    1       25.607 -20.517   5.142  0.00  0.00    +0.146 A 
ATOM      7  C   LIG    1       24.648 -21.494   4.967  0.00  0.00    +0.098 A 
ATOM      8  C   LIG    1       23.905 -21.016   3.863  0.00  0.00    +0.170 A 
ATOM      9  N   LIG    1       24.386 -19.871   3.379  0.00  0.00    -0.086 NA
ATOM     10  O   LIG    1       25.459 -19.554   4.191  0.00  0.00    -0.359 OA
ENDBRANCH   1   7
BRANCH   2  11
ATOM     11  C   LIG    1       25.134 -25.118   5.754  0.00  0.00    +0.034 A 
ATOM     12  C   LIG    1       24.231 -26.049   5.225  0.00  0.00    +0.024 A 
ATOM     13  C   LIG    1       24.217 -27.371   5.679  0.00  0.00    +0.014 A 
ATOM     14  C   LIG    1       25.105 -27.790   6.677  0.00  0.00    +0.055 A 
ATOM     15  C   LIG    1       26.001 -26.855   7.212  0.00  0.00    +0.014 A 
ATOM     16  C   LIG    1       26.014 -25.530   6.755  0.00  0.00    +0.024 A 
BRANCH  14  17
ATOM     17  C   LIG    1       25.087 -29.224   7.151  0.00  0.00    +0.417 C 
ATOM     18  F   LIG    1       25.359 -30.104   6.147  0.00  0.00    -0.166 F 
ATOM     19  F   LIG    1       23.873 -29.590   7.648  0.00  0.00    -0.166 F 
ATOM     20  F   LIG    1       25.989 -29.487   8.135  0.00  0.00    -0.166 F 
ENDBRANCH  14  17
ENDBRANCH   2  11
TORSDOF 3
ENDMDL
