MODEL 1
REMARK VINA RESULT:      20.8      0.000      0.000
REMARK  Name = *****
REMARK                            x       y       z     vdW  Elec       q    Type
REMARK                         _______ _______ _______ _____ _____    ______ ____
ROOT
ATOM      1  C   LIG    1       23.090 -19.219   4.871  0.00  0.00    +0.183 C 
ATOM      2  C   LIG    1       23.673 -17.758   5.068  0.00  0.00    +0.021 C 
ATOM      3  C   LIG    1       23.434 -17.208   6.507  0.00  0.00    +0.016 C 
ATOM      4  C   LIG    1       22.819 -16.851   4.111  0.00  0.00    +0.003 C 
ATOM      5  C   LIG    1       23.478 -16.175   2.900  0.00  0.00    -0.000 C 
ATOM      6  C   LIG    1       24.978 -15.882   3.010  0.00  0.00    +0.035 C 
ATOM      7  C   LIG    1       25.682 -17.169   3.503  0.00  0.00    +0.120 C 
ATOM      8  C   LIG    1       25.422 -14.475   3.600  0.00  0.00    +0.013 C 
ATOM      9  C   LIG    1       26.666 -14.016   2.780  0.00  0.00    +0.020 C 
ATOM     10  C   LIG    1       24.352 -13.363   3.453  0.00  0.00    -0.056 C 
ATOM     11  C   LIG    1       24.586 -12.155   4.021  0.00  0.00    +0.051 C 
ATOM     12  C   LIG    1       24.778 -12.320   5.511  0.00  0.00    +0.179 C 
ATOM     13  O   LIG    1       24.439 -11.452   6.302  0.00  0.00    -0.288 OA
ATOM     14  C   LIG    1       25.512 -13.538   5.951  0.00  0.00    +0.047 C 
ATOM     15  C   LIG    1       22.901 -13.763   3.388  0.00  0.00    +0.032 C 
ATOM     16  C   LIG    1       25.841 -14.493   5.064  0.00  0.00    -0.012 C 
ATOM     17  C   LIG    1       22.679 -14.940   2.458  0.00  0.00    +0.008 C 
ATOM     18  C   LIG    1       21.644 -17.707   3.598  0.00  0.00    +0.009 C 
ATOM     19  C   LIG    1       25.199 -17.708   4.846  0.00  0.00    +0.043 C 
ATOM     20  C   LIG    1       21.654 -18.946   4.441  0.00  0.00    +0.057 C 
ENDROOT
BRANCH   1  21
ATOM     21  C   LIG    1       23.186 -20.076   6.180  0.00  0.00    +0.214 C 
ATOM     22  O   LIG    1       22.305 -19.994   7.046  0.00  0.00    -0.289 OA
BRANCH  21  23
ATOM     23  C   LIG    1       24.369 -21.049   6.377  0.00  0.00    +0.310 C 
BRANCH  23  24
ATOM     24  O   LIG    1       25.518 -20.447   6.999  0.00  0.00    -0.457 OA
BRANCH  24  25
ATOM     25  C   LIG    1       26.683 -20.392   6.296  0.00  0.00    +0.307 C 
ATOM     26  O   LIG    1       26.838 -19.938   5.179  0.00  0.00    -0.251 OA
BRANCH  25  27
ATOM     27  C   LIG    1       27.850 -20.931   7.056  0.00  0.00    +0.117 C 
ATOM     28  C   LIG    1       29.044 -20.066   6.717  0.00  0.00    +0.015 C 
ENDBRANCH  25  27
ENDBRANCH  24  25
ENDBRANCH  23  24
ENDBRANCH  21  23
ENDBRANCH   1  21
BRANCH   7  29
ATOM     29  O   LIG    1       27.092 -16.998   3.589  0.00  0.00    -0.391 OA
ATOM     30  H   LIG    1       27.468 -17.821   3.945  0.00  0.00    +0.210 HD
ENDBRANCH   7  29
BRANCH   1  31
ATOM     31  O   LIG    1       23.755 -19.791   3.726  0.00  0.00    -0.419 OA
BRANCH  31  32
ATOM     32  C   LIG    1       23.281 -20.999   3.315  0.00  0.00    +0.511 C 
ATOM     33  O   LIG    1       22.137 -21.372   3.397  0.00  0.00    -0.203 OA
BRANCH  32  34
ATOM     34  O   LIG    1       24.286 -21.567   2.582  0.00  0.00    -0.434 OA
BRANCH  34  36
ATOM     35  C   LIG    1       25.025 -19.338   1.844  0.00  0.00    +0.048 C 
ATOM     36  C   LIG    1       25.423 -20.727   2.325  0.00  0.00    +0.232 C 
ENDBRANCH  34  36
ENDBRANCH  32  34
ENDBRANCH  31  32
ENDBRANCH   1  31
TORSDOF 10
ENDMDL
MODEL 2
REMARK VINA RESULT:      21.6      2.265      6.958
REMARK  Name = *****
REMARK                            x       y       z     vdW  Elec       q    Type
REMARK                         _______ _______ _______ _____ _____    ______ ____
ROOT
ATOM      1  C   LIG    1       25.687 -14.543   3.254  0.00  0.00    +0.183 C 
ATOM      2  C   LIG    1       25.489 -15.876   4.089  0.00  0.00    +0.021 C 
ATOM      3  C   LIG    1       26.518 -16.011   5.252  0.00  0.00    +0.016 C 
ATOM      4  C   LIG    1       25.819 -17.036   3.083  0.00  0.00    +0.003 C 
ATOM      5  C   LIG    1       24.715 -18.004   2.634  0.00  0.00    -0.000 C 
ATOM      6  C   LIG    1       23.550 -18.214   3.607  0.00  0.00    +0.035 C 
ATOM      7  C   LIG    1       23.053 -16.822   4.066  0.00  0.00    +0.120 C 
ATOM      8  C   LIG    1       23.669 -19.389   4.670  0.00  0.00    +0.013 C 
ATOM      9  C   LIG    1       22.250 -20.025   4.798  0.00  0.00    +0.020 C 
ATOM     10  C   LIG    1       24.633 -20.527   4.247  0.00  0.00    -0.056 C 
ATOM     11  C   LIG    1       24.891 -21.523   5.130  0.00  0.00    +0.051 C 
ATOM     12  C   LIG    1       25.493 -20.945   6.390  0.00  0.00    +0.179 C 
ATOM     13  O   LIG    1       26.306 -21.568   7.058  0.00  0.00    -0.288 OA
ATOM     14  C   LIG    1       24.952 -19.634   6.840  0.00  0.00    +0.047 C 
ATOM     15  C   LIG    1       25.767 -20.199   3.311  0.00  0.00    +0.032 C 
ATOM     16  C   LIG    1       24.085 -18.954   6.069  0.00  0.00    -0.012 C 
ATOM     17  C   LIG    1       25.312 -19.334   2.152  0.00  0.00    +0.008 C 
ATOM     18  C   LIG    1       26.427 -16.389   1.823  0.00  0.00    +0.009 C 
ATOM     19  C   LIG    1       24.096 -15.945   4.750  0.00  0.00    +0.043 C 
ATOM     20  C   LIG    1       26.702 -14.965   2.198  0.00  0.00    +0.057 C 
ENDROOT
BRANCH   1  21
ATOM     21  C   LIG    1       26.186 -13.355   4.145  0.00  0.00    +0.214 C 
ATOM     22  O   LIG    1       26.207 -13.465   5.378  0.00  0.00    -0.289 OA
BRANCH  21  23
ATOM     23  C   LIG    1       26.682 -12.051   3.481  0.00  0.00    +0.310 C 
BRANCH  23  24
ATOM     24  O   LIG    1       28.015 -11.674   3.867  0.00  0.00    -0.457 OA
BRANCH  24  25
ATOM     25  C   LIG    1       28.840 -12.631   4.377  0.00  0.00    +0.307 C 
ATOM     26  O   LIG    1       29.298 -13.588   3.785  0.00  0.00    -0.251 OA
BRANCH  25  27
ATOM     27  C   LIG    1       29.200 -12.391   5.806  0.00  0.00    +0.117 C 
ATOM     28  C   LIG    1       28.481 -13.435   6.631  0.00  0.00    +0.015 C 
ENDBRANCH  25  27
ENDBRANCH  24  25
ENDBRANCH  23  24
ENDBRANCH  21  23
ENDBRANCH   1  21
BRANCH   7  29
ATOM     29  O   LIG    1       21.935 -16.924   4.940  0.00  0.00    -0.391 OA
ATOM     30  H   LIG    1       21.184 -16.478   4.513  0.00  0.00    +0.210 HD
ENDBRANCH   7  29
BRANCH   1  31
ATOM     31  O   LIG    1       24.452 -14.294   2.553  0.00  0.00    -0.419 OA
BRANCH  31  32
ATOM     32  C   LIG    1       23.774 -13.177   2.937  0.00  0.00    +0.511 C 
ATOM     33  O   LIG    1       23.361 -12.316   2.203  0.00  0.00    -0.203 OA
BRANCH  32  34
ATOM     34  O   LIG    1       23.450 -13.370   4.251  0.00  0.00    -0.434 OA
BRANCH  34  36
ATOM     35  C   LIG    1       22.627 -11.456   5.561  0.00  0.00    +0.048 C 
ATOM     36  C   LIG    1       23.819 -12.310   5.149  0.00  0.00    +0.232 C 
ENDBRANCH  34  36
ENDBRANCH  32  34
ENDBRANCH  31  32
ENDBRANCH   1  31
TORSDOF 10
ENDMDL
MODEL 3
REMARK VINA RESULT:      22.1      1.505      2.177
REMARK  Name = *****
REMARK                            x       y       z     vdW  Elec       q    Type
REMARK                         _______ _______ _______ _____ _____    ______ ____
ROOT
ATOM      1  C   LIG    1       23.410 -19.418   4.983  0.00  0.00    +0.183 C 
ATOM      2  C   LIG    1       24.458 -18.230   5.052  0.00  0.00    +0.021 C 
ATOM      3  C   LIG    1       25.100 -18.081   6.464  0.00  0.00    +0.016 C 
ATOM      4  C   LIG    1       23.608 -16.928   4.824  0.00  0.00    +0.003 C 
ATOM      5  C   LIG    1       23.816 -16.084   3.559  0.00  0.00    -0.000 C 
ATOM      6  C   LIG    1       25.202 -16.154   2.908  0.00  0.00    +0.035 C 
ATOM      7  C   LIG    1       25.592 -17.646   2.770  0.00  0.00    +0.120 C 
ATOM      8  C   LIG    1       26.297 -15.101   3.373  0.00  0.00    +0.013 C 
ATOM      9  C   LIG    1       27.099 -14.694   2.098  0.00  0.00    +0.020 C 
ATOM     10  C   LIG    1       25.707 -13.797   3.967  0.00  0.00    -0.056 C 
ATOM     11  C   LIG    1       26.555 -12.881   4.494  0.00  0.00    +0.051 C 
ATOM     12  C   LIG    1       27.344 -13.504   5.623  0.00  0.00    +0.179 C 
ATOM     13  O   LIG    1       27.710 -12.850   6.589  0.00  0.00    -0.288 OA
ATOM     14  C   LIG    1       27.756 -14.922   5.435  0.00  0.00    +0.047 C 
ATOM     15  C   LIG    1       24.348 -13.851   4.615  0.00  0.00    +0.032 C 
ATOM     16  C   LIG    1       27.311 -15.627   4.381  0.00  0.00    -0.012 C 
ATOM     17  C   LIG    1       23.355 -14.637   3.781  0.00  0.00    +0.008 C 
ATOM     18  C   LIG    1       22.123 -17.336   4.886  0.00  0.00    +0.009 C 
ATOM     19  C   LIG    1       25.634 -18.436   4.074  0.00  0.00    +0.043 C 
ATOM     20  C   LIG    1       22.115 -18.739   5.411  0.00  0.00    +0.057 C 
ENDROOT
BRANCH   1  21
ATOM     21  C   LIG    1       23.812 -20.616   5.910  0.00  0.00    +0.214 C 
ATOM     22  O   LIG    1       23.039 -21.570   6.068  0.00  0.00    -0.289 OA
BRANCH  21  23
ATOM     23  C   LIG    1       25.191 -20.619   6.607  0.00  0.00    +0.310 C 
BRANCH  23  24
ATOM     24  O   LIG    1       26.252 -21.143   5.789  0.00  0.00    -0.457 OA
BRANCH  24  25
ATOM     25  C   LIG    1       27.437 -20.472   5.754  0.00  0.00    +0.307 C 
ATOM     26  O   LIG    1       27.897 -19.858   4.811  0.00  0.00    -0.251 OA
BRANCH  25  27
ATOM     27  C   LIG    1       28.170 -20.512   7.053  0.00  0.00    +0.117 C 
ATOM     28  C   LIG    1       29.323 -19.539   6.948  0.00  0.00    +0.015 C 
ENDBRANCH  25  27
ENDBRANCH  24  25
ENDBRANCH  23  24
ENDBRANCH  21  23
ENDBRANCH   1  21
BRANCH   7  29
ATOM     29  O   LIG    1       26.852 -17.803   2.129  0.00  0.00    -0.391 OA
ATOM     30  H   LIG    1       27.038 -16.984   1.639  0.00  0.00    +0.210 HD
ENDBRANCH   7  29
BRANCH   1  31
ATOM     31  O   LIG    1       23.249 -19.760   3.591  0.00  0.00    -0.419 OA
BRANCH  31  32
ATOM     32  C   LIG    1       22.063 -19.394   3.031  0.00  0.00    +0.511 C 
ATOM     33  O   LIG    1       21.907 -18.512   2.225  0.00  0.00    -0.203 OA
BRANCH  32  34
ATOM     34  O   LIG    1       21.171 -20.373   3.369  0.00  0.00    -0.434 OA
BRANCH  34  36
ATOM     35  C   LIG    1       19.352 -18.737   3.096  0.00  0.00    +0.048 C 
ATOM     36  C   LIG    1       19.907 -19.919   3.881  0.00  0.00    +0.232 C 
ENDBRANCH  34  36
ENDBRANCH  32  34
ENDBRANCH  31  32
ENDBRANCH   1  31
TORSDOF 10
ENDMDL
MODEL 4
REMARK VINA RESULT:      23.4      1.874      3.257
REMARK  Name = *****
REMARK                            x       y       z     vdW  Elec       q    Type
REMARK                         _______ _______ _______ _____ _____    ______ ____
ROOT
ATOM      1  C   LIG    1       22.970 -19.005   4.038  0.00  0.00    +0.183 C 
ATOM      2  C   LIG    1       23.804 -17.667   3.869  0.00  0.00    +0.021 C 
ATOM      3  C   LIG    1       25.311 -17.936   3.577  0.00  0.00    +0.016 C 
ATOM      4  C   LIG    1       23.753 -16.979   5.280  0.00  0.00    +0.003 C 
ATOM      5  C   LIG    1       23.011 -15.647   5.461  0.00  0.00    -0.000 C 
ATOM      6  C   LIG    1       22.906 -14.747   4.224  0.00  0.00    +0.035 C 
ATOM      7  C   LIG    1       22.412 -15.615   3.042  0.00  0.00    +0.120 C 
ATOM      8  C   LIG    1       24.055 -13.678   3.980  0.00  0.00    +0.013 C 
ATOM      9  C   LIG    1       23.365 -12.394   3.427  0.00  0.00    +0.020 C 
ATOM     10  C   LIG    1       24.813 -13.261   5.266  0.00  0.00    -0.056 C 
ATOM     11  C   LIG    1       25.884 -12.438   5.153  0.00  0.00    +0.051 C 
ATOM     12  C   LIG    1       26.931 -13.080   4.271  0.00  0.00    +0.179 C 
ATOM     13  O   LIG    1       28.125 -12.885   4.446  0.00  0.00    -0.288 OA
ATOM     14  C   LIG    1       26.426 -13.858   3.107  0.00  0.00    +0.047 C 
ATOM     15  C   LIG    1       24.883 -14.239   6.410  0.00  0.00    +0.032 C 
ATOM     16  C   LIG    1       25.110 -14.086   2.959  0.00  0.00    -0.012 C 
ATOM     17  C   LIG    1       23.539 -14.886   6.685  0.00  0.00    +0.008 C 
ATOM     18  C   LIG    1       23.146 -17.999   6.264  0.00  0.00    +0.009 C 
ATOM     19  C   LIG    1       23.293 -16.810   2.691  0.00  0.00    +0.043 C 
ATOM     20  C   LIG    1       23.121 -19.302   5.524  0.00  0.00    +0.057 C 
ENDROOT
BRANCH   1  21
ATOM     21  C   LIG    1       23.509 -20.158   3.123  0.00  0.00    +0.214 C 
ATOM     22  O   LIG    1       23.022 -20.345   2.001  0.00  0.00    -0.289 OA
BRANCH  21  23
ATOM     23  C   LIG    1       24.674 -21.046   3.613  0.00  0.00    +0.310 C 
BRANCH  23  24
ATOM     24  O   LIG    1       24.961 -20.904   5.016  0.00  0.00    -0.457 OA
BRANCH  24  25
ATOM     25  C   LIG    1       26.220 -20.541   5.388  0.00  0.00    +0.307 C 
ATOM     26  O   LIG    1       26.942 -19.739   4.829  0.00  0.00    -0.251 OA
BRANCH  25  27
ATOM     27  C   LIG    1       26.677 -21.216   6.640  0.00  0.00    +0.117 C 
ATOM     28  C   LIG    1       28.078 -20.725   6.929  0.00  0.00    +0.015 C 
ENDBRANCH  25  27
ENDBRANCH  24  25
ENDBRANCH  23  24
ENDBRANCH  21  23
ENDBRANCH   1  21
BRANCH   7  29
ATOM     29  O   LIG    1       22.241 -14.844   1.858  0.00  0.00    -0.391 OA
ATOM     30  H   LIG    1       21.772 -14.028   2.103  0.00  0.00    +0.210 HD
ENDBRANCH   7  29
BRANCH   1  31
ATOM     31  O   LIG    1       21.582 -18.669   3.830  0.00  0.00    -0.419 OA
BRANCH  31  32
ATOM     32  C   LIG    1       20.706 -19.705   3.941  0.00  0.00    +0.511 C 
ATOM     33  O   LIG    1       20.955 -20.794   4.393  0.00  0.00    -0.203 OA
BRANCH  32  34
ATOM     34  O   LIG    1       19.470 -19.179   3.685  0.00  0.00    -0.434 OA
BRANCH  34  36
ATOM     35  C   LIG    1       19.569 -16.870   2.838  0.00  0.00    +0.048 C 
ATOM     36  C   LIG    1       19.374 -18.346   2.518  0.00  0.00    +0.232 C 
ENDBRANCH  34  36
ENDBRANCH  32  34
ENDBRANCH  31  32
ENDBRANCH   1  31
TORSDOF 10
ENDMDL
