MODEL 1
REMARK VINA RESULT:      -6.7      0.000      0.000
REMARK  Name = *****
REMARK                            x       y       z     vdW  Elec       q    Type
REMARK                         _______ _______ _______ _____ _____    ______ ____
ROOT
ATOM      1  C   LIG    1       24.867 -24.507   6.107  0.00  0.00    +0.240 C 
ENDROOT
BRANCH   1   2
ATOM      2  C   LIG    1       26.062 -23.499   6.384  0.00  0.00    +0.220 C 
BRANCH   2   3
ATOM      3  O   LIG    1       26.111 -22.841   7.706  0.00  0.00    -0.283 OA
BRANCH   3   4
ATOM      4  P   LIG    1       26.682 -21.352   7.996  0.00  0.00    +0.475 P 
ATOM      5  O   LIG    1       26.447 -20.322   6.941  0.00  0.00    -0.227 OA
BRANCH   4   6
ATOM      6  O   LIG    1       25.859 -20.959   9.309  0.00  0.00    -0.302 OA
ATOM      7  H   LIG    1       25.204 -21.663   9.409  0.00  0.00    +0.222 HD
ENDBRANCH   4   6
BRANCH   4   8
ATOM      8  O   LIG    1       28.205 -21.364   8.618  0.00  0.00    -0.281 OA
BRANCH   8   9
ATOM      9  C   LIG    1       29.399 -21.265   7.768  0.00  0.00    +0.223 C 
BRANCH   9  10
ATOM     10  C   LIG    1       30.587 -20.445   8.450  0.00  0.00    +0.161 C 
BRANCH  10  11
ATOM     11  N   LIG    1       30.637 -18.855   8.219  0.00  0.00    +0.238 N 
ATOM     12  C   LIG    1       29.892 -18.487   6.945  0.00  0.00    +0.192 C 
ATOM     13  C   LIG    1       32.049 -18.276   8.156  0.00  0.00    +0.192 C 
ATOM     14  C   LIG    1       29.938 -18.109   9.391  0.00  0.00    +0.192 C 
ENDBRANCH  10  11
ENDBRANCH   9  10
ENDBRANCH   8   9
ENDBRANCH   4   8
ENDBRANCH   3   4
ENDBRANCH   2   3
ENDBRANCH   1   2
BRANCH   1  15
ATOM     15  C   LIG    1       23.449 -24.321   6.837  0.00  0.00    +0.279 C 
BRANCH  15  16
ATOM     16  O   LIG    1       22.617 -23.185   6.471  0.00  0.00    -0.461 OA
BRANCH  16  17
ATOM     17  C   LIG    1       23.026 -21.913   6.817  0.00  0.00    +0.307 C 
ATOM     18  O   LIG    1       23.136 -21.472   7.980  0.00  0.00    -0.251 OA
BRANCH  17  19
ATOM     19  C   LIG    1       23.262 -21.062   5.573  0.00  0.00    +0.120 C 
BRANCH  19  20
ATOM     20  C   LIG    1       22.587 -19.685   5.484  0.00  0.00    +0.011 C 
BRANCH  20  21
ATOM     21  C   LIG    1       21.845 -19.339   4.209  0.00  0.00    +0.000 C 
BRANCH  21  22
ATOM     22  C   LIG    1       21.897 -17.808   3.956  0.00  0.00    +0.000 C 
BRANCH  22  23
ATOM     23  C   LIG    1       22.536 -16.735   4.991  0.00  0.00    -0.000 C 
BRANCH  23  24
ATOM     24  C   LIG    1       22.975 -15.140   4.885  0.00  0.00    -0.000 C 
BRANCH  24  25
ATOM     25  C   LIG    1       23.645 -14.323   3.704  0.00  0.00    -0.000 C 
BRANCH  25  26
ATOM     26  C   LIG    1       25.090 -13.753   4.057  0.00  0.00    -0.000 C 
BRANCH  26  27
ATOM     27  C   LIG    1       26.259 -14.118   3.115  0.00  0.00    -0.000 C 
BRANCH  27  28
ATOM     28  C   LIG    1       27.451 -14.884   3.790  0.00  0.00    -0.000 C 
BRANCH  28  29
ATOM     29  C   LIG    1       27.299 -16.484   3.816  0.00  0.00    -0.000 C 
BRANCH  29  31
ATOM     30  C   LIG    1       25.411 -18.623   3.513  0.00  0.00    +0.004 C 
ATOM     31  C   LIG    1       25.952 -17.139   3.253  0.00  0.00    -0.003 C 
ENDBRANCH  29  31
ENDBRANCH  28  29
ENDBRANCH  27  28
ENDBRANCH  26  27
ENDBRANCH  25  26
ENDBRANCH  24  25
ENDBRANCH  23  24
ENDBRANCH  22  23
ENDBRANCH  21  22
ENDBRANCH  20  21
ENDBRANCH  19  20
ENDBRANCH  17  19
ENDBRANCH  16  17
ENDBRANCH  15  16
ENDBRANCH   1  15
BRANCH   1  32
ATOM     32  O   LIG    1       25.374 -25.798   6.560  0.00  0.00    -0.456 OA
BRANCH  32  33
ATOM     33  C   LIG    1       25.685 -26.705   5.568  0.00  0.00    +0.307 C 
ATOM     34  O   LIG    1       26.704 -26.786   5.000  0.00  0.00    -0.251 OA
BRANCH  33  35
ATOM     35  C   LIG    1       24.454 -27.564   5.287  0.00  0.00    +0.120 C 
BRANCH  35  36
ATOM     36  C   LIG    1       24.272 -28.691   6.295  0.00  0.00    +0.011 C 
BRANCH  36  37
ATOM     37  C   LIG    1       25.230 -29.883   6.087  0.00  0.00    +0.000 C 
BRANCH  37  38
ATOM     38  C   LIG    1       25.274 -30.885   7.233  0.00  0.00    +0.000 C 
BRANCH  38  39
ATOM     39  C   LIG    1       24.166 -30.688   8.299  0.00  0.00    -0.000 C 
BRANCH  39  40
ATOM     40  C   LIG    1       24.620 -30.066   9.629  0.00  0.00    -0.000 C 
BRANCH  40  41
ATOM     41  C   LIG    1       25.981 -29.296   9.593  0.00  0.00    -0.000 C 
BRANCH  41  42
ATOM     42  C   LIG    1       27.070 -29.622  10.673  0.00  0.00    -0.000 C 
BRANCH  42  43
ATOM     43  C   LIG    1       27.456 -28.406  11.579  0.00  0.00    -0.000 C 
BRANCH  43  44
ATOM     44  C   LIG    1       26.343 -27.465  12.155  0.00  0.00    -0.000 C 
BRANCH  44  45
ATOM     45  C   LIG    1       26.756 -26.127  12.800  0.00  0.00    -0.000 C 
BRANCH  45  46
ATOM     46  C   LIG    1       25.590 -25.341  13.459  0.00  0.00    -0.003 C 
ATOM     47  C   LIG    1       24.334 -26.152  13.764  0.00  0.00    +0.004 C 
ENDBRANCH  45  46
ENDBRANCH  44  45
ENDBRANCH  43  44
ENDBRANCH  42  43
ENDBRANCH  41  42
ENDBRANCH  40  41
ENDBRANCH  39  40
ENDBRANCH  38  39
ENDBRANCH  37  38
ENDBRANCH  36  37
ENDBRANCH  35  36
ENDBRANCH  33  35
ENDBRANCH  32  33
ENDBRANCH   1  32
TORSDOF 37
ENDMDL
MODEL 2
REMARK VINA RESULT:      -6.6      1.939     10.736
REMARK  Name = *****
REMARK                            x       y       z     vdW  Elec       q    Type
REMARK                         _______ _______ _______ _____ _____    ______ ____
ROOT
ATOM      1  C   LIG    1       25.692 -21.091   7.080  0.00  0.00    +0.240 C 
ENDROOT
BRANCH   1   2
ATOM      2  C   LIG    1       27.046 -21.470   7.816  0.00  0.00    +0.220 C 
BRANCH   2   3
ATOM      3  O   LIG    1       27.922 -20.363   8.251  0.00  0.00    -0.283 OA
BRANCH   3   4
ATOM      4  P   LIG    1       29.534 -20.311   8.075  0.00  0.00    +0.475 P 
ATOM      5  O   LIG    1       30.337 -21.208   8.959  0.00  0.00    -0.227 OA
BRANCH   4   6
ATOM      6  O   LIG    1       29.692 -20.787   6.558  0.00  0.00    -0.302 OA
ATOM      7  H   LIG    1       30.238 -21.582   6.604  0.00  0.00    +0.222 HD
ENDBRANCH   4   6
BRANCH   4   8
ATOM      8  O   LIG    1       30.112 -18.777   7.947  0.00  0.00    -0.281 OA
BRANCH   8   9
ATOM      9  C   LIG    1       31.539 -18.462   8.093  0.00  0.00    +0.223 C 
BRANCH   9  10
ATOM     10  C   LIG    1       32.003 -18.349   9.616  0.00  0.00    +0.161 C 
BRANCH  10  11
ATOM     11  N   LIG    1       31.903 -16.914  10.332  0.00  0.00    +0.238 N 
ATOM     12  C   LIG    1       30.448 -16.569  10.613  0.00  0.00    +0.192 C 
ATOM     13  C   LIG    1       32.541 -15.774   9.541  0.00  0.00    +0.192 C 
ATOM     14  C   LIG    1       32.643 -16.931  11.700  0.00  0.00    +0.192 C 
ENDBRANCH  10  11
ENDBRANCH   9  10
ENDBRANCH   8   9
ENDBRANCH   4   8
ENDBRANCH   3   4
ENDBRANCH   2   3
ENDBRANCH   1   2
BRANCH   1  15
ATOM     15  C   LIG    1       24.365 -21.969   7.295  0.00  0.00    +0.279 C 
BRANCH  15  16
ATOM     16  O   LIG    1       24.466 -23.418   7.214  0.00  0.00    -0.461 OA
BRANCH  16  17
ATOM     17  C   LIG    1       23.398 -24.140   6.722  0.00  0.00    +0.307 C 
ATOM     18  O   LIG    1       22.196 -23.812   6.800  0.00  0.00    -0.251 OA
BRANCH  17  19
ATOM     19  C   LIG    1       23.867 -25.461   6.118  0.00  0.00    +0.120 C 
BRANCH  19  20
ATOM     20  C   LIG    1       25.143 -25.468   5.263  0.00  0.00    +0.011 C 
BRANCH  20  21
ATOM     21  C   LIG    1       26.369 -26.160   5.824  0.00  0.00    +0.000 C 
BRANCH  21  22
ATOM     22  C   LIG    1       26.102 -26.630   7.280  0.00  0.00    +0.000 C 
BRANCH  22  23
ATOM     23  C   LIG    1       25.984 -28.185   7.727  0.00  0.00    -0.000 C 
BRANCH  23  24
ATOM     24  C   LIG    1       26.196 -29.000   9.155  0.00  0.00    -0.000 C 
BRANCH  24  25
ATOM     25  C   LIG    1       25.156 -29.744  10.091  0.00  0.00    -0.000 C 
BRANCH  25  26
ATOM     26  C   LIG    1       23.774 -30.079   9.375  0.00  0.00    -0.000 C 
BRANCH  26  27
ATOM     27  C   LIG    1       22.540 -30.329  10.270  0.00  0.00    -0.000 C 
BRANCH  27  28
ATOM     28  C   LIG    1       22.749 -30.036  11.797  0.00  0.00    -0.000 C 
BRANCH  28  29
ATOM     29  C   LIG    1       22.158 -28.630  12.304  0.00  0.00    -0.000 C 
BRANCH  29  31
ATOM     30  C   LIG    1       24.495 -27.327  13.341  0.00  0.00    +0.004 C 
ATOM     31  C   LIG    1       22.970 -27.809  13.413  0.00  0.00    -0.003 C 
ENDBRANCH  29  31
ENDBRANCH  28  29
ENDBRANCH  27  28
ENDBRANCH  26  27
ENDBRANCH  25  26
ENDBRANCH  24  25
ENDBRANCH  23  24
ENDBRANCH  22  23
ENDBRANCH  21  22
ENDBRANCH  20  21
ENDBRANCH  19  20
ENDBRANCH  17  19
ENDBRANCH  16  17
ENDBRANCH  15  16
ENDBRANCH   1  15
BRANCH   1  32
ATOM     32  O   LIG    1       26.011 -21.208   5.660  0.00  0.00    -0.456 OA
BRANCH  32  33
ATOM     33  C   LIG    1       26.461 -20.056   5.047  0.00  0.00    +0.307 C 
ATOM     34  O   LIG    1       27.521 -19.578   5.166  0.00  0.00    -0.251 OA
BRANCH  33  35
ATOM     35  C   LIG    1       25.322 -19.467   4.218  0.00  0.00    +0.120 C 
BRANCH  35  36
ATOM     36  C   LIG    1       24.394 -20.528   3.642  0.00  0.00    +0.011 C 
BRANCH  36  37
ATOM     37  C   LIG    1       22.943 -20.446   4.162  0.00  0.00    +0.000 C 
BRANCH  37  38
ATOM     38  C   LIG    1       22.677 -19.328   5.162  0.00  0.00    +0.000 C 
BRANCH  38  39
ATOM     39  C   LIG    1       22.081 -18.040   4.538  0.00  0.00    -0.000 C 
BRANCH  39  40
ATOM     40  C   LIG    1       23.083 -16.914   4.241  0.00  0.00    -0.000 C 
BRANCH  40  41
ATOM     41  C   LIG    1       22.695 -15.496   4.775  0.00  0.00    -0.000 C 
BRANCH  41  42
ATOM     42  C   LIG    1       23.729 -14.323   4.647  0.00  0.00    -0.000 C 
BRANCH  42  43
ATOM     43  C   LIG    1       24.007 -13.876   3.173  0.00  0.00    -0.000 C 
BRANCH  43  44
ATOM     44  C   LIG    1       25.470 -13.866   2.613  0.00  0.00    -0.000 C 
BRANCH  44  45
ATOM     45  C   LIG    1       26.517 -14.809   3.241  0.00  0.00    -0.000 C 
BRANCH  45  46
ATOM     46  C   LIG    1       27.701 -14.086   3.937  0.00  0.00    -0.003 C 
ATOM     47  C   LIG    1       27.427 -13.575   5.349  0.00  0.00    +0.004 C 
ENDBRANCH  45  46
ENDBRANCH  44  45
ENDBRANCH  43  44
ENDBRANCH  42  43
ENDBRANCH  41  42
ENDBRANCH  40  41
ENDBRANCH  39  40
ENDBRANCH  38  39
ENDBRANCH  37  38
ENDBRANCH  36  37
ENDBRANCH  35  36
ENDBRANCH  33  35
ENDBRANCH  32  33
ENDBRANCH   1  32
TORSDOF 37
ENDMDL
MODEL 3
REMARK VINA RESULT:      -6.5      4.367     11.606
REMARK  Name = *****
REMARK                            x       y       z     vdW  Elec       q    Type
REMARK                         _______ _______ _______ _____ _____    ______ ____
ROOT
ATOM      1  C   LIG    1       25.485 -28.877   6.115  0.00  0.00    +0.240 C 
ENDROOT
BRANCH   1   2
ATOM      2  C   LIG    1       24.885 -30.129   5.347  0.00  0.00    +0.220 C 
BRANCH   2   3
ATOM      3  O   LIG    1       25.817 -31.210   4.965  0.00  0.00    -0.283 OA
BRANCH   3   4
ATOM      4  P   LIG    1       26.197 -32.493   5.881  0.00  0.00    +0.475 P 
ATOM      5  O   LIG    1       27.029 -33.556   5.241  0.00  0.00    -0.227 OA
BRANCH   4   6
ATOM      6  O   LIG    1       27.037 -31.798   7.049  0.00  0.00    -0.302 OA
ATOM      7  H   LIG    1       26.702 -30.892   7.088  0.00  0.00    +0.222 HD
ENDBRANCH   4   6
BRANCH   4   8
ATOM      8  O   LIG    1       24.920 -33.053   6.753  0.00  0.00    -0.281 OA
BRANCH   8   9
ATOM      9  C   LIG    1       24.849 -32.918   8.215  0.00  0.00    +0.223 C 
BRANCH   9  10
ATOM     10  C   LIG    1       23.891 -31.734   8.688  0.00  0.00    +0.161 C 
BRANCH  10  11
ATOM     11  N   LIG    1       23.279 -31.804  10.173  0.00  0.00    +0.238 N 
ATOM     12  C   LIG    1       24.397 -31.964  11.192  0.00  0.00    +0.192 C 
ATOM     13  C   LIG    1       22.255 -32.919  10.376  0.00  0.00    +0.192 C 
ATOM     14  C   LIG    1       22.527 -30.487  10.519  0.00  0.00    +0.192 C 
ENDBRANCH  10  11
ENDBRANCH   9  10
ENDBRANCH   8   9
ENDBRANCH   4   8
ENDBRANCH   3   4
ENDBRANCH   2   3
ENDBRANCH   1   2
BRANCH   1  15
ATOM     15  C   LIG    1       25.170 -28.639   7.672  0.00  0.00    +0.279 C 
BRANCH  15  16
ATOM     16  O   LIG    1       26.262 -28.258   8.554  0.00  0.00    -0.461 OA
BRANCH  16  17
ATOM     17  C   LIG    1       26.634 -29.113   9.572  0.00  0.00    +0.307 C 
ATOM     18  O   LIG    1       27.221 -30.206   9.429  0.00  0.00    -0.251 OA
BRANCH  17  19
ATOM     19  C   LIG    1       26.164 -28.585  10.924  0.00  0.00    +0.120 C 
BRANCH  19  20
ATOM     20  C   LIG    1       27.029 -27.545  11.650  0.00  0.00    +0.011 C 
BRANCH  20  21
ATOM     21  C   LIG    1       26.606 -27.115  13.040  0.00  0.00    +0.000 C 
BRANCH  21  22
ATOM     22  C   LIG    1       26.604 -25.566  13.146  0.00  0.00    +0.000 C 
BRANCH  22  23
ATOM     23  C   LIG    1       25.726 -24.727  14.221  0.00  0.00    -0.000 C 
BRANCH  23  24
ATOM     24  C   LIG    1       24.579 -25.130  15.348  0.00  0.00    -0.000 C 
BRANCH  24  25
ATOM     25  C   LIG    1       23.296 -26.054  15.240  0.00  0.00    -0.000 C 
BRANCH  25  26
ATOM     26  C   LIG    1       23.112 -26.732  13.811  0.00  0.00    -0.000 C 
BRANCH  26  27
ATOM     27  C   LIG    1       21.760 -26.534  13.088  0.00  0.00    -0.000 C 
BRANCH  27  28
ATOM     28  C   LIG    1       20.853 -27.811  13.001  0.00  0.00    -0.000 C 
BRANCH  28  29
ATOM     29  C   LIG    1       20.027 -28.148  14.338  0.00  0.00    -0.000 C 
BRANCH  29  31
ATOM     30  C   LIG    1       18.070 -26.089  13.925  0.00  0.00    +0.004 C 
ATOM     31  C   LIG    1       18.593 -27.469  14.549  0.00  0.00    -0.003 C 
ENDBRANCH  29  31
ENDBRANCH  28  29
ENDBRANCH  27  28
ENDBRANCH  26  27
ENDBRANCH  25  26
ENDBRANCH  24  25
ENDBRANCH  23  24
ENDBRANCH  22  23
ENDBRANCH  21  22
ENDBRANCH  20  21
ENDBRANCH  19  20
ENDBRANCH  17  19
ENDBRANCH  16  17
ENDBRANCH  15  16
ENDBRANCH   1  15
BRANCH   1  32
ATOM     32  O   LIG    1       24.917 -27.724   5.421  0.00  0.00    -0.456 OA
BRANCH  32  33
ATOM     33  C   LIG    1       25.807 -26.723   5.089  0.00  0.00    +0.307 C 
ATOM     34  O   LIG    1       26.935 -26.863   4.817  0.00  0.00    -0.251 OA
BRANCH  33  35
ATOM     35  C   LIG    1       25.088 -25.379   5.186  0.00  0.00    +0.120 C 
BRANCH  35  36
ATOM     36  C   LIG    1       24.424 -25.156   6.538  0.00  0.00    +0.011 C 
BRANCH  36  37
ATOM     37  C   LIG    1       23.457 -23.955   6.574  0.00  0.00    +0.000 C 
BRANCH  37  38
ATOM     38  C   LIG    1       24.060 -22.653   7.085  0.00  0.00    +0.000 C 
BRANCH  38  39
ATOM     39  C   LIG    1       23.117 -21.427   6.983  0.00  0.00    -0.000 C 
BRANCH  39  40
ATOM     40  C   LIG    1       22.619 -21.083   5.571  0.00  0.00    -0.000 C 
BRANCH  40  41
ATOM     41  C   LIG    1       22.725 -19.578   5.156  0.00  0.00    -0.000 C 
BRANCH  41  42
ATOM     42  C   LIG    1       23.439 -19.206   3.810  0.00  0.00    -0.000 C 
BRANCH  42  43
ATOM     43  C   LIG    1       25.000 -19.158   3.907  0.00  0.00    -0.000 C 
BRANCH  43  44
ATOM     44  C   LIG    1       25.783 -20.308   4.628  0.00  0.00    -0.000 C 
BRANCH  44  45
ATOM     45  C   LIG    1       26.976 -19.945   5.535  0.00  0.00    -0.000 C 
BRANCH  45  46
ATOM     46  C   LIG    1       27.191 -20.907   6.734  0.00  0.00    -0.003 C 
ATOM     47  C   LIG    1       26.640 -20.427   8.074  0.00  0.00    +0.004 C 
ENDBRANCH  45  46
ENDBRANCH  44  45
ENDBRANCH  43  44
ENDBRANCH  42  43
ENDBRANCH  41  42
ENDBRANCH  40  41
ENDBRANCH  39  40
ENDBRANCH  38  39
ENDBRANCH  37  38
ENDBRANCH  36  37
ENDBRANCH  35  36
ENDBRANCH  33  35
ENDBRANCH  32  33
ENDBRANCH   1  32
TORSDOF 37
ENDMDL
MODEL 4
REMARK VINA RESULT:      -6.4      1.672     10.630
REMARK  Name = *****
REMARK                            x       y       z     vdW  Elec       q    Type
REMARK                         _______ _______ _______ _____ _____    ______ ____
ROOT
ATOM      1  C   LIG    1       25.719 -23.265   7.571  0.00  0.00    +0.240 C 
ENDROOT
BRANCH   1   2
ATOM      2  C   LIG    1       26.736 -22.147   8.055  0.00  0.00    +0.220 C 
BRANCH   2   3
ATOM      3  O   LIG    1       27.907 -21.868   7.198  0.00  0.00    -0.283 OA
BRANCH   3   4
ATOM      4  P   LIG    1       28.661 -20.439   7.068  0.00  0.00    +0.475 P 
ATOM      5  O   LIG    1       28.340 -19.614   5.865  0.00  0.00    -0.227 OA
BRANCH   4   6
ATOM      6  O   LIG    1       28.129 -19.692   8.376  0.00  0.00    -0.302 OA
ATOM      7  H   LIG    1       28.001 -20.395   9.027  0.00  0.00    +0.222 HD
ENDBRANCH   4   6
BRANCH   4   8
ATOM      8  O   LIG    1       30.262 -20.528   7.432  0.00  0.00    -0.281 OA
BRANCH   8   9
ATOM      9  C   LIG    1       31.096 -19.330   7.603  0.00  0.00    +0.223 C 
BRANCH   9  10
ATOM     10  C   LIG    1       31.561 -19.103   9.113  0.00  0.00    +0.161 C 
BRANCH  10  11
ATOM     11  N   LIG    1       31.350 -17.645   9.757  0.00  0.00    +0.238 N 
ATOM     12  C   LIG    1       31.300 -17.746  11.274  0.00  0.00    +0.192 C 
ATOM     13  C   LIG    1       30.101 -16.917   9.264  0.00  0.00    +0.192 C 
ATOM     14  C   LIG    1       32.540 -16.710   9.398  0.00  0.00    +0.192 C 
ENDBRANCH  10  11
ENDBRANCH   9  10
ENDBRANCH   8   9
ENDBRANCH   4   8
ENDBRANCH   3   4
ENDBRANCH   2   3
ENDBRANCH   1   2
BRANCH   1  15
ATOM     15  C   LIG    1       26.246 -24.605   6.862  0.00  0.00    +0.279 C 
BRANCH  15  16
ATOM     16  O   LIG    1       25.352 -25.315   5.960  0.00  0.00    -0.461 OA
BRANCH  16  17
ATOM     17  C   LIG    1       25.637 -26.623   5.622  0.00  0.00    +0.307 C 
ATOM     18  O   LIG    1       26.547 -26.998   4.853  0.00  0.00    -0.251 OA
BRANCH  17  19
ATOM     19  C   LIG    1       24.633 -27.579   6.260  0.00  0.00    +0.120 C 
BRANCH  19  20
ATOM     20  C   LIG    1       24.796 -29.086   6.018  0.00  0.00    +0.011 C 
BRANCH  20  21
ATOM     21  C   LIG    1       24.412 -30.031   7.139  0.00  0.00    +0.000 C 
BRANCH  21  22
ATOM     22  C   LIG    1       24.765 -29.402   8.515  0.00  0.00    +0.000 C 
BRANCH  22  23
ATOM     23  C   LIG    1       26.270 -29.015   8.980  0.00  0.00    -0.000 C 
BRANCH  23  24
ATOM     24  C   LIG    1       26.982 -28.675  10.437  0.00  0.00    -0.000 C 
BRANCH  24  25
ATOM     25  C   LIG    1       26.464 -27.834  11.677  0.00  0.00    -0.000 C 
BRANCH  25  26
ATOM     26  C   LIG    1       25.570 -28.674  12.692  0.00  0.00    -0.000 C 
BRANCH  26  27
ATOM     27  C   LIG    1       24.037 -28.493  12.623  0.00  0.00    -0.000 C 
BRANCH  27  28
ATOM     28  C   LIG    1       23.486 -27.176  13.275  0.00  0.00    -0.000 C 
BRANCH  28  29
ATOM     29  C   LIG    1       22.032 -27.309  13.946  0.00  0.00    -0.000 C 
BRANCH  29  31
ATOM     30  C   LIG    1       19.299 -26.466  13.710  0.00  0.00    +0.004 C 
ATOM     31  C   LIG    1       20.757 -26.786  13.131  0.00  0.00    -0.003 C 
ENDBRANCH  29  31
ENDBRANCH  28  29
ENDBRANCH  27  28
ENDBRANCH  26  27
ENDBRANCH  25  26
ENDBRANCH  24  25
ENDBRANCH  23  24
ENDBRANCH  22  23
ENDBRANCH  21  22
ENDBRANCH  20  21
ENDBRANCH  19  20
ENDBRANCH  17  19
ENDBRANCH  16  17
ENDBRANCH  15  16
ENDBRANCH   1  15
BRANCH   1  32
ATOM     32  O   LIG    1       24.894 -22.592   6.572  0.00  0.00    -0.456 OA
BRANCH  32  33
ATOM     33  C   LIG    1       23.560 -22.446   6.891  0.00  0.00    +0.307 C 
ATOM     34  O   LIG    1       22.764 -23.301   6.942  0.00  0.00    -0.251 OA
BRANCH  33  35
ATOM     35  C   LIG    1       23.270 -20.964   7.116  0.00  0.00    +0.120 C 
BRANCH  35  36
ATOM     36  C   LIG    1       22.882 -20.232   5.838  0.00  0.00    +0.011 C 
BRANCH  36  37
ATOM     37  C   LIG    1       23.460 -20.860   4.553  0.00  0.00    +0.000 C 
BRANCH  37  38
ATOM     38  C   LIG    1       23.443 -19.956   3.328  0.00  0.00    +0.000 C 
BRANCH  38  39
ATOM     39  C   LIG    1       24.004 -18.532   3.575  0.00  0.00    -0.000 C 
BRANCH  39  40
ATOM     40  C   LIG    1       25.535 -18.416   3.633  0.00  0.00    -0.000 C 
BRANCH  40  41
ATOM     41  C   LIG    1       26.136 -17.058   3.139  0.00  0.00    -0.000 C 
BRANCH  41  42
ATOM     42  C   LIG    1       27.386 -16.465   3.876  0.00  0.00    -0.000 C 
BRANCH  42  43
ATOM     43  C   LIG    1       27.432 -14.901   3.898  0.00  0.00    -0.000 C 
BRANCH  43  44
ATOM     44  C   LIG    1       26.882 -14.077   2.684  0.00  0.00    -0.000 C 
BRANCH  44  45
ATOM     45  C   LIG    1       25.423 -13.579   2.719  0.00  0.00    -0.000 C 
BRANCH  45  46
ATOM     46  C   LIG    1       24.759 -13.623   4.122  0.00  0.00    -0.003 C 
ATOM     47  C   LIG    1       23.671 -14.677   4.306  0.00  0.00    +0.004 C 
ENDBRANCH  45  46
ENDBRANCH  44  45
ENDBRANCH  43  44
ENDBRANCH  42  43
ENDBRANCH  41  42
ENDBRANCH  40  41
ENDBRANCH  39  40
ENDBRANCH  38  39
ENDBRANCH  37  38
ENDBRANCH  36  37
ENDBRANCH  35  36
ENDBRANCH  33  35
ENDBRANCH  32  33
ENDBRANCH   1  32
TORSDOF 37
ENDMDL
MODEL 5
REMARK VINA RESULT:      -6.4      1.185      2.164
REMARK  Name = *****
REMARK                            x       y       z     vdW  Elec       q    Type
REMARK                         _______ _______ _______ _____ _____    ______ ____
ROOT
ATOM      1  C   LIG    1       25.432 -23.725   6.531  0.00  0.00    +0.240 C 
ENDROOT
BRANCH   1   2
ATOM      2  C   LIG    1       26.261 -22.937   7.631  0.00  0.00    +0.220 C 
BRANCH   2   3
ATOM      3  O   LIG    1       27.541 -22.325   7.217  0.00  0.00    -0.283 OA
BRANCH   3   4
ATOM      4  P   LIG    1       27.988 -20.792   7.501  0.00  0.00    +0.475 P 
ATOM      5  O   LIG    1       27.909 -19.843   6.351  0.00  0.00    -0.227 OA
BRANCH   4   6
ATOM      6  O   LIG    1       26.923 -20.364   8.613  0.00  0.00    -0.302 OA
ATOM      7  H   LIG    1       26.124 -20.861   8.394  0.00  0.00    +0.222 HD
ENDBRANCH   4   6
BRANCH   4   8
ATOM      8  O   LIG    1       29.370 -20.686   8.385  0.00  0.00    -0.281 OA
BRANCH   8   9
ATOM      9  C   LIG    1       30.568 -19.995   7.888  0.00  0.00    +0.223 C 
BRANCH   9  10
ATOM     10  C   LIG    1       31.470 -19.387   9.056  0.00  0.00    +0.161 C 
BRANCH  10  11
ATOM     11  N   LIG    1       31.132 -17.904   9.578  0.00  0.00    +0.238 N 
ATOM     12  C   LIG    1       32.339 -16.997   9.392  0.00  0.00    +0.192 C 
ATOM     13  C   LIG    1       30.681 -17.841  11.036  0.00  0.00    +0.192 C 
ATOM     14  C   LIG    1       29.963 -17.287   8.758  0.00  0.00    +0.192 C 
ENDBRANCH  10  11
ENDBRANCH   9  10
ENDBRANCH   8   9
ENDBRANCH   4   8
ENDBRANCH   3   4
ENDBRANCH   2   3
ENDBRANCH   1   2
BRANCH   1  15
ATOM     15  C   LIG    1       23.843 -23.533   6.405  0.00  0.00    +0.279 C 
BRANCH  15  16
ATOM     16  O   LIG    1       23.184 -22.571   7.275  0.00  0.00    -0.461 OA
BRANCH  16  17
ATOM     17  C   LIG    1       23.223 -21.231   6.946  0.00  0.00    +0.307 C 
ATOM     18  O   LIG    1       23.595 -20.305   7.697  0.00  0.00    -0.251 OA
BRANCH  17  19
ATOM     19  C   LIG    1       22.672 -21.000   5.542  0.00  0.00    +0.120 C 
BRANCH  19  20
ATOM     20  C   LIG    1       22.130 -19.609   5.184  0.00  0.00    +0.011 C 
BRANCH  20  21
ATOM     21  C   LIG    1       22.876 -18.804   4.138  0.00  0.00    +0.000 C 
BRANCH  21  22
ATOM     22  C   LIG    1       24.166 -19.552   3.705  0.00  0.00    +0.000 C 
BRANCH  22  23
ATOM     23  C   LIG    1       25.606 -18.835   3.491  0.00  0.00    -0.000 C 
BRANCH  23  24
ATOM     24  C   LIG    1       26.121 -17.260   3.443  0.00  0.00    -0.000 C 
BRANCH  24  25
ATOM     25  C   LIG    1       27.524 -16.614   3.802  0.00  0.00    -0.000 C 
BRANCH  25  26
ATOM     26  C   LIG    1       27.472 -15.034   3.991  0.00  0.00    -0.000 C 
BRANCH  26  27
ATOM     27  C   LIG    1       27.266 -14.164   2.731  0.00  0.00    -0.000 C 
BRANCH  27  28
ATOM     28  C   LIG    1       25.796 -13.670   2.490  0.00  0.00    -0.000 C 
BRANCH  28  29
ATOM     29  C   LIG    1       24.888 -13.577   3.813  0.00  0.00    -0.000 C 
BRANCH  29  31
ATOM     30  C   LIG    1       22.953 -15.449   4.806  0.00  0.00    +0.004 C 
ATOM     31  C   LIG    1       23.458 -14.295   3.817  0.00  0.00    -0.003 C 
ENDBRANCH  29  31
ENDBRANCH  28  29
ENDBRANCH  27  28
ENDBRANCH  26  27
ENDBRANCH  25  26
ENDBRANCH  24  25
ENDBRANCH  23  24
ENDBRANCH  22  23
ENDBRANCH  21  22
ENDBRANCH  20  21
ENDBRANCH  19  20
ENDBRANCH  17  19
ENDBRANCH  16  17
ENDBRANCH  15  16
ENDBRANCH   1  15
BRANCH   1  32
ATOM     32  O   LIG    1       25.630 -25.131   6.871  0.00  0.00    -0.456 OA
BRANCH  32  33
ATOM     33  C   LIG    1       25.431 -26.033   5.846  0.00  0.00    +0.307 C 
ATOM     34  O   LIG    1       25.900 -25.978   4.776  0.00  0.00    -0.251 OA
BRANCH  33  35
ATOM     35  C   LIG    1       24.446 -27.099   6.318  0.00  0.00    +0.120 C 
BRANCH  35  36
ATOM     36  C   LIG    1       24.828 -28.503   5.867  0.00  0.00    +0.011 C 
BRANCH  36  37
ATOM     37  C   LIG    1       25.377 -29.400   6.996  0.00  0.00    +0.000 C 
BRANCH  37  38
ATOM     38  C   LIG    1       24.665 -30.736   7.164  0.00  0.00    +0.000 C 
BRANCH  38  39
ATOM     39  C   LIG    1       23.736 -30.815   8.403  0.00  0.00    -0.000 C 
BRANCH  39  40
ATOM     40  C   LIG    1       24.052 -29.831   9.540  0.00  0.00    -0.000 C 
BRANCH  40  41
ATOM     41  C   LIG    1       25.140 -30.296  10.564  0.00  0.00    -0.000 C 
BRANCH  41  42
ATOM     42  C   LIG    1       25.135 -29.690  12.010  0.00  0.00    -0.000 C 
BRANCH  42  43
ATOM     43  C   LIG    1       25.618 -28.204  12.082  0.00  0.00    -0.000 C 
BRANCH  43  44
ATOM     44  C   LIG    1       25.802 -27.498  13.469  0.00  0.00    -0.000 C 
BRANCH  44  45
ATOM     45  C   LIG    1       24.585 -27.365  14.406  0.00  0.00    -0.000 C 
BRANCH  45  46
ATOM     46  C   LIG    1       23.613 -26.210  14.042  0.00  0.00    -0.003 C 
ATOM     47  C   LIG    1       22.388 -26.610  13.222  0.00  0.00    +0.004 C 
ENDBRANCH  45  46
ENDBRANCH  44  45
ENDBRANCH  43  44
ENDBRANCH  42  43
ENDBRANCH  41  42
ENDBRANCH  40  41
ENDBRANCH  39  40
ENDBRANCH  38  39
ENDBRANCH  37  38
ENDBRANCH  36  37
ENDBRANCH  35  36
ENDBRANCH  33  35
ENDBRANCH  32  33
ENDBRANCH   1  32
TORSDOF 37
ENDMDL
MODEL 6
REMARK VINA RESULT:      -6.4      1.659     10.945
REMARK  Name = *****
REMARK                            x       y       z     vdW  Elec       q    Type
REMARK                         _______ _______ _______ _____ _____    ______ ____
ROOT
ATOM      1  C   LIG    1       25.853 -22.880   7.656  0.00  0.00    +0.240 C 
ENDROOT
BRANCH   1   2
ATOM      2  C   LIG    1       26.597 -21.818   6.741  0.00  0.00    +0.220 C 
BRANCH   2   3
ATOM      3  O   LIG    1       28.049 -21.636   6.945  0.00  0.00    -0.283 OA
BRANCH   3   4
ATOM      4  P   LIG    1       28.807 -20.211   7.101  0.00  0.00    +0.475 P 
ATOM      5  O   LIG    1       28.607 -19.216   6.006  0.00  0.00    -0.227 OA
BRANCH   4   6
ATOM      6  O   LIG    1       28.144 -19.657   8.445  0.00  0.00    -0.302 OA
ATOM      7  H   LIG    1       28.876 -19.588   9.072  0.00  0.00    +0.222 HD
ENDBRANCH   4   6
BRANCH   4   8
ATOM      8  O   LIG    1       30.364 -20.371   7.607  0.00  0.00    -0.281 OA
BRANCH   8   9
ATOM      9  C   LIG    1       31.274 -19.222   7.720  0.00  0.00    +0.223 C 
BRANCH   9  10
ATOM     10  C   LIG    1       31.768 -18.960   9.214  0.00  0.00    +0.161 C 
BRANCH  10  11
ATOM     11  N   LIG    1       31.416 -17.543   9.889  0.00  0.00    +0.238 N 
ATOM     12  C   LIG    1       32.604 -16.599   9.774  0.00  0.00    +0.192 C 
ATOM     13  C   LIG    1       30.992 -17.635  11.353  0.00  0.00    +0.192 C 
ATOM     14  C   LIG    1       30.221 -16.869   9.156  0.00  0.00    +0.192 C 
ENDBRANCH  10  11
ENDBRANCH   9  10
ENDBRANCH   8   9
ENDBRANCH   4   8
ENDBRANCH   3   4
ENDBRANCH   2   3
ENDBRANCH   1   2
BRANCH   1  15
ATOM     15  C   LIG    1       25.327 -24.268   7.044  0.00  0.00    +0.279 C 
BRANCH  15  16
ATOM     16  O   LIG    1       25.886 -24.731   5.783  0.00  0.00    -0.461 OA
BRANCH  16  17
ATOM     17  C   LIG    1       25.939 -26.087   5.529  0.00  0.00    +0.307 C 
ATOM     18  O   LIG    1       26.929 -26.711   5.095  0.00  0.00    -0.251 OA
BRANCH  17  19
ATOM     19  C   LIG    1       24.581 -26.739   5.776  0.00  0.00    +0.120 C 
BRANCH  19  20
ATOM     20  C   LIG    1       24.531 -28.055   6.566  0.00  0.00    +0.011 C 
BRANCH  20  21
ATOM     21  C   LIG    1       24.092 -29.306   5.833  0.00  0.00    +0.000 C 
BRANCH  21  22
ATOM     22  C   LIG    1       25.318 -30.213   5.536  0.00  0.00    +0.000 C 
BRANCH  22  23
ATOM     23  C   LIG    1       25.291 -31.833   5.609  0.00  0.00    -0.000 C 
BRANCH  23  24
ATOM     24  C   LIG    1       24.867 -32.935   6.772  0.00  0.00    -0.000 C 
BRANCH  24  25
ATOM     25  C   LIG    1       23.896 -32.808   8.019  0.00  0.00    -0.000 C 
BRANCH  25  26
ATOM     26  C   LIG    1       24.645 -32.470   9.383  0.00  0.00    -0.000 C 
BRANCH  26  27
ATOM     27  C   LIG    1       26.143 -32.096   9.309  0.00  0.00    -0.000 C 
BRANCH  27  28
ATOM     28  C   LIG    1       26.442 -30.582   9.025  0.00  0.00    -0.000 C 
BRANCH  28  29
ATOM     29  C   LIG    1       25.476 -29.546   9.784  0.00  0.00    -0.000 C 
BRANCH  29  31
ATOM     30  C   LIG    1       24.397 -28.891  12.362  0.00  0.00    +0.004 C 
ATOM     31  C   LIG    1       25.517 -29.485  11.383  0.00  0.00    -0.003 C 
ENDBRANCH  29  31
ENDBRANCH  28  29
ENDBRANCH  27  28
ENDBRANCH  26  27
ENDBRANCH  25  26
ENDBRANCH  24  25
ENDBRANCH  23  24
ENDBRANCH  22  23
ENDBRANCH  21  22
ENDBRANCH  20  21
ENDBRANCH  19  20
ENDBRANCH  17  19
ENDBRANCH  16  17
ENDBRANCH  15  16
ENDBRANCH   1  15
BRANCH   1  32
ATOM     32  O   LIG    1       24.659 -22.180   8.120  0.00  0.00    -0.456 OA
BRANCH  32  33
ATOM     33  C   LIG    1       23.587 -22.177   7.252  0.00  0.00    +0.307 C 
ATOM     34  O   LIG    1       23.009 -23.117   6.864  0.00  0.00    -0.251 OA
BRANCH  33  35
ATOM     35  C   LIG    1       23.303 -20.737   6.831  0.00  0.00    +0.120 C 
BRANCH  35  36
ATOM     36  C   LIG    1       22.577 -20.640   5.496  0.00  0.00    +0.011 C 
BRANCH  36  37
ATOM     37  C   LIG    1       22.517 -19.212   4.914  0.00  0.00    +0.000 C 
BRANCH  37  38
ATOM     38  C   LIG    1       23.452 -18.953   3.740  0.00  0.00    +0.000 C 
BRANCH  38  39
ATOM     39  C   LIG    1       24.957 -19.127   4.069  0.00  0.00    -0.000 C 
BRANCH  39  40
ATOM     40  C   LIG    1       25.936 -18.438   3.105  0.00  0.00    -0.000 C 
BRANCH  40  41
ATOM     41  C   LIG    1       26.038 -16.882   3.232  0.00  0.00    -0.000 C 
BRANCH  41  42
ATOM     42  C   LIG    1       27.320 -16.252   3.878  0.00  0.00    -0.000 C 
BRANCH  42  43
ATOM     43  C   LIG    1       27.461 -14.711   3.647  0.00  0.00    -0.000 C 
BRANCH  43  44
ATOM     44  C   LIG    1       26.202 -13.846   3.299  0.00  0.00    -0.000 C 
BRANCH  44  45
ATOM     45  C   LIG    1       25.095 -13.676   4.359  0.00  0.00    -0.000 C 
BRANCH  45  46
ATOM     46  C   LIG    1       23.686 -14.138   3.901  0.00  0.00    -0.003 C 
ATOM     47  C   LIG    1       23.051 -15.251   4.732  0.00  0.00    +0.004 C 
ENDBRANCH  45  46
ENDBRANCH  44  45
ENDBRANCH  43  44
ENDBRANCH  42  43
ENDBRANCH  41  42
ENDBRANCH  40  41
ENDBRANCH  39  40
ENDBRANCH  38  39
ENDBRANCH  37  38
ENDBRANCH  36  37
ENDBRANCH  35  36
ENDBRANCH  33  35
ENDBRANCH  32  33
ENDBRANCH   1  32
TORSDOF 37
ENDMDL
MODEL 7
REMARK VINA RESULT:      -6.4      4.411     11.675
REMARK  Name = *****
REMARK                            x       y       z     vdW  Elec       q    Type
REMARK                         _______ _______ _______ _____ _____    ______ ____
ROOT
ATOM      1  C   LIG    1       26.008 -28.002   7.395  0.00  0.00    +0.240 C 
ENDROOT
BRANCH   1   2
ATOM      2  C   LIG    1       24.614 -28.520   6.841  0.00  0.00    +0.220 C 
BRANCH   2   3
ATOM      3  O   LIG    1       24.605 -29.790   6.087  0.00  0.00    -0.283 OA
BRANCH   3   4
ATOM      4  P   LIG    1       24.360 -31.262   6.724  0.00  0.00    +0.475 P 
ATOM      5  O   LIG    1       23.980 -32.352   5.776  0.00  0.00    -0.227 OA
BRANCH   4   6
ATOM      6  O   LIG    1       25.802 -31.574   7.336  0.00  0.00    -0.302 OA
ATOM      7  H   LIG    1       25.755 -32.497   7.620  0.00  0.00    +0.222 HD
ENDBRANCH   4   6
BRANCH   4   8
ATOM      8  O   LIG    1       23.475 -31.217   8.109  0.00  0.00    -0.281 OA
BRANCH   8   9
ATOM      9  C   LIG    1       23.307 -32.394   8.972  0.00  0.00    +0.223 C 
BRANCH   9  10
ATOM     10  C   LIG    1       22.534 -32.071  10.329  0.00  0.00    +0.161 C 
BRANCH  10  11
ATOM     11  N   LIG    1       21.077 -32.716  10.542  0.00  0.00    +0.238 N 
ATOM     12  C   LIG    1       20.769 -33.695   9.418  0.00  0.00    +0.192 C 
ATOM     13  C   LIG    1       19.947 -31.693  10.635  0.00  0.00    +0.192 C 
ATOM     14  C   LIG    1       21.020 -33.516  11.874  0.00  0.00    +0.192 C 
ENDBRANCH  10  11
ENDBRANCH   9  10
ENDBRANCH   8   9
ENDBRANCH   4   8
ENDBRANCH   3   4
ENDBRANCH   2   3
ENDBRANCH   1   2
BRANCH   1  15
ATOM     15  C   LIG    1       26.388 -28.164   8.947  0.00  0.00    +0.279 C 
BRANCH  15  16
ATOM     16  O   LIG    1       26.997 -29.408   9.391  0.00  0.00    -0.461 OA
BRANCH  16  17
ATOM     17  C   LIG    1       26.301 -30.226  10.257  0.00  0.00    +0.307 C 
ATOM     18  O   LIG    1       26.530 -31.436  10.463  0.00  0.00    -0.251 OA
BRANCH  17  19
ATOM     19  C   LIG    1       25.137 -29.474  10.897  0.00  0.00    +0.120 C 
BRANCH  19  20
ATOM     20  C   LIG    1       25.238 -29.086  12.379  0.00  0.00    +0.011 C 
BRANCH  20  21
ATOM     21  C   LIG    1       24.962 -30.159  13.414  0.00  0.00    +0.000 C 
BRANCH  21  22
ATOM     22  C   LIG    1       23.567 -29.936  14.059  0.00  0.00    +0.000 C 
BRANCH  22  23
ATOM     23  C   LIG    1       22.184 -29.812  13.220  0.00  0.00    -0.000 C 
BRANCH  23  24
ATOM     24  C   LIG    1       21.333 -28.549  12.566  0.00  0.00    -0.000 C 
BRANCH  24  25
ATOM     25  C   LIG    1       21.164 -27.049  13.050  0.00  0.00    -0.000 C 
BRANCH  25  26
ATOM     26  C   LIG    1       22.545 -26.298  13.305  0.00  0.00    -0.000 C 
BRANCH  26  27
ATOM     27  C   LIG    1       23.149 -26.364  14.725  0.00  0.00    -0.000 C 
BRANCH  27  28
ATOM     28  C   LIG    1       24.642 -25.895  14.841  0.00  0.00    -0.000 C 
BRANCH  28  29
ATOM     29  C   LIG    1       25.347 -25.528  13.444  0.00  0.00    -0.000 C 
BRANCH  29  31
ATOM     30  C   LIG    1       27.964 -24.867  14.419  0.00  0.00    +0.004 C 
ATOM     31  C   LIG    1       26.946 -25.517  13.368  0.00  0.00    -0.003 C 
ENDBRANCH  29  31
ENDBRANCH  28  29
ENDBRANCH  27  28
ENDBRANCH  26  27
ENDBRANCH  25  26
ENDBRANCH  24  25
ENDBRANCH  23  24
ENDBRANCH  22  23
ENDBRANCH  21  22
ENDBRANCH  20  21
ENDBRANCH  19  20
ENDBRANCH  17  19
ENDBRANCH  16  17
ENDBRANCH  15  16
ENDBRANCH   1  15
BRANCH   1  32
ATOM     32  O   LIG    1       25.981 -26.564   7.147  0.00  0.00    -0.456 OA
BRANCH  32  33
ATOM     33  C   LIG    1       26.359 -26.163   5.882  0.00  0.00    +0.307 C 
ATOM     34  O   LIG    1       27.166 -26.673   5.208  0.00  0.00    -0.251 OA
BRANCH  33  35
ATOM     35  C   LIG    1       25.585 -24.898   5.519  0.00  0.00    +0.120 C 
BRANCH  35  36
ATOM     36  C   LIG    1       24.850 -24.289   6.705  0.00  0.00    +0.011 C 
BRANCH  36  37
ATOM     37  C   LIG    1       23.317 -24.455   6.649  0.00  0.00    +0.000 C 
BRANCH  37  38
ATOM     38  C   LIG    1       22.520 -23.168   6.821  0.00  0.00    +0.000 C 
BRANCH  38  39
ATOM     39  C   LIG    1       23.332 -21.986   7.410  0.00  0.00    -0.000 C 
BRANCH  39  40
ATOM     40  C   LIG    1       23.297 -20.681   6.599  0.00  0.00    -0.000 C 
BRANCH  40  41
ATOM     41  C   LIG    1       23.974 -20.735   5.189  0.00  0.00    -0.000 C 
BRANCH  41  42
ATOM     42  C   LIG    1       25.384 -20.076   4.994  0.00  0.00    -0.000 C 
BRANCH  42  43
ATOM     43  C   LIG    1       26.540 -20.802   5.758  0.00  0.00    -0.000 C 
BRANCH  43  44
ATOM     44  C   LIG    1       26.848 -20.443   7.252  0.00  0.00    -0.000 C 
BRANCH  44  45
ATOM     45  C   LIG    1       28.296 -20.100   7.654  0.00  0.00    -0.000 C 
BRANCH  45  46
ATOM     46  C   LIG    1       29.179 -19.563   6.495  0.00  0.00    -0.003 C 
ATOM     47  C   LIG    1       30.660 -19.386   6.817  0.00  0.00    +0.004 C 
ENDBRANCH  45  46
ENDBRANCH  44  45
ENDBRANCH  43  44
ENDBRANCH  42  43
ENDBRANCH  41  42
ENDBRANCH  40  41
ENDBRANCH  39  40
ENDBRANCH  38  39
ENDBRANCH  37  38
ENDBRANCH  36  37
ENDBRANCH  35  36
ENDBRANCH  33  35
ENDBRANCH  32  33
ENDBRANCH   1  32
TORSDOF 37
ENDMDL
MODEL 8
REMARK VINA RESULT:      -6.2      4.275     11.955
REMARK  Name = *****
REMARK                            x       y       z     vdW  Elec       q    Type
REMARK                         _______ _______ _______ _____ _____    ______ ____
ROOT
ATOM      1  C   LIG    1       25.234 -28.358   6.675  0.00  0.00    +0.240 C 
ENDROOT
BRANCH   1   2
ATOM      2  C   LIG    1       24.133 -29.164   5.863  0.00  0.00    +0.220 C 
BRANCH   2   3
ATOM      3  O   LIG    1       23.597 -30.397   6.474  0.00  0.00    -0.283 OA
BRANCH   3   4
ATOM      4  P   LIG    1       24.138 -31.900   6.194  0.00  0.00    +0.475 P 
ATOM      5  O   LIG    1       23.225 -32.817   5.447  0.00  0.00    -0.227 OA
BRANCH   4   6
ATOM      6  O   LIG    1       25.429 -31.599   5.301  0.00  0.00    -0.302 OA
ATOM      7  H   LIG    1       25.157 -31.806   4.397  0.00  0.00    +0.222 HD
ENDBRANCH   4   6
BRANCH   4   8
ATOM      8  O   LIG    1       24.861 -32.572   7.509  0.00  0.00    -0.281 OA
BRANCH   8   9
ATOM      9  C   LIG    1       24.122 -33.397   8.474  0.00  0.00    +0.223 C 
BRANCH   9  10
ATOM     10  C   LIG    1       22.637 -32.876   8.737  0.00  0.00    +0.161 C 
BRANCH  10  11
ATOM     11  N   LIG    1       22.330 -32.139  10.132  0.00  0.00    +0.238 N 
ATOM     12  C   LIG    1       22.952 -30.751  10.139  0.00  0.00    +0.192 C 
ATOM     13  C   LIG    1       22.809 -32.906  11.363  0.00  0.00    +0.192 C 
ATOM     14  C   LIG    1       20.798 -31.957  10.331  0.00  0.00    +0.192 C 
ENDBRANCH  10  11
ENDBRANCH   9  10
ENDBRANCH   8   9
ENDBRANCH   4   8
ENDBRANCH   3   4
ENDBRANCH   2   3
ENDBRANCH   1   2
BRANCH   1  15
ATOM     15  C   LIG    1       25.434 -28.598   8.250  0.00  0.00    +0.279 C 
BRANCH  15  16
ATOM     16  O   LIG    1       26.125 -29.799   8.691  0.00  0.00    -0.461 OA
BRANCH  16  17
ATOM     17  C   LIG    1       26.787 -29.789   9.902  0.00  0.00    +0.307 C 
ATOM     18  O   LIG    1       27.787 -30.477  10.194  0.00  0.00    -0.251 OA
BRANCH  17  19
ATOM     19  C   LIG    1       26.087 -28.865  10.895  0.00  0.00    +0.120 C 
BRANCH  19  20
ATOM     20  C   LIG    1       26.852 -27.646  11.431  0.00  0.00    +0.011 C 
BRANCH  20  21
ATOM     21  C   LIG    1       26.989 -27.498  12.933  0.00  0.00    +0.000 C 
BRANCH  21  22
ATOM     22  C   LIG    1       25.753 -26.761  13.515  0.00  0.00    +0.000 C 
BRANCH  22  23
ATOM     23  C   LIG    1       24.957 -27.231  14.849  0.00  0.00    -0.000 C 
BRANCH  23  24
ATOM     24  C   LIG    1       23.451 -26.924  15.469  0.00  0.00    -0.000 C 
BRANCH  24  25
ATOM     25  C   LIG    1       22.121 -26.421  14.769  0.00  0.00    -0.000 C 
BRANCH  25  26
ATOM     26  C   LIG    1       22.088 -26.677  13.197  0.00  0.00    -0.000 C 
BRANCH  26  27
ATOM     27  C   LIG    1       22.157 -28.139  12.704  0.00  0.00    -0.000 C 
BRANCH  27  28
ATOM     28  C   LIG    1       21.099 -29.111  13.335  0.00  0.00    -0.000 C 
BRANCH  28  29
ATOM     29  C   LIG    1       21.696 -30.504  13.873  0.00  0.00    -0.000 C 
BRANCH  29  31
ATOM     30  C   LIG    1       24.560 -30.663  13.782  0.00  0.00    +0.004 C 
ATOM     31  C   LIG    1       23.154 -30.512  14.534  0.00  0.00    -0.003 C 
ENDBRANCH  29  31
ENDBRANCH  28  29
ENDBRANCH  27  28
ENDBRANCH  26  27
ENDBRANCH  25  26
ENDBRANCH  24  25
ENDBRANCH  23  24
ENDBRANCH  22  23
ENDBRANCH  21  22
ENDBRANCH  20  21
ENDBRANCH  19  20
ENDBRANCH  17  19
ENDBRANCH  16  17
ENDBRANCH  15  16
ENDBRANCH   1  15
BRANCH   1  32
ATOM     32  O   LIG    1       24.828 -26.962   6.541  0.00  0.00    -0.456 OA
BRANCH  32  33
ATOM     33  C   LIG    1       25.835 -26.068   6.238  0.00  0.00    +0.307 C 
ATOM     34  O   LIG    1       26.868 -26.328   5.756  0.00  0.00    -0.251 OA
BRANCH  33  35
ATOM     35  C   LIG    1       25.402 -24.674   6.685  0.00  0.00    +0.120 C 
BRANCH  35  36
ATOM     36  C   LIG    1       23.957 -24.356   6.325  0.00  0.00    +0.011 C 
BRANCH  36  37
ATOM     37  C   LIG    1       23.408 -23.077   6.993  0.00  0.00    +0.000 C 
BRANCH  37  38
ATOM     38  C   LIG    1       22.776 -22.071   6.042  0.00  0.00    +0.000 C 
BRANCH  38  39
ATOM     39  C   LIG    1       23.112 -20.591   6.360  0.00  0.00    -0.000 C 
BRANCH  39  40
ATOM     40  C   LIG    1       22.632 -19.560   5.327  0.00  0.00    -0.000 C 
BRANCH  40  41
ATOM     41  C   LIG    1       23.374 -19.576   3.949  0.00  0.00    -0.000 C 
BRANCH  41  42
ATOM     42  C   LIG    1       24.911 -19.270   3.907  0.00  0.00    -0.000 C 
BRANCH  42  43
ATOM     43  C   LIG    1       25.800 -20.364   4.586  0.00  0.00    -0.000 C 
BRANCH  43  44
ATOM     44  C   LIG    1       27.036 -19.951   5.455  0.00  0.00    -0.000 C 
BRANCH  44  45
ATOM     45  C   LIG    1       27.345 -20.745   6.740  0.00  0.00    -0.000 C 
BRANCH  45  46
ATOM     46  C   LIG    1       26.420 -20.415   7.942  0.00  0.00    -0.003 C 
ATOM     47  C   LIG    1       25.948 -21.613   8.763  0.00  0.00    +0.004 C 
ENDBRANCH  45  46
ENDBRANCH  44  45
ENDBRANCH  43  44
ENDBRANCH  42  43
ENDBRANCH  41  42
ENDBRANCH  40  41
ENDBRANCH  39  40
ENDBRANCH  38  39
ENDBRANCH  37  38
ENDBRANCH  36  37
ENDBRANCH  35  36
ENDBRANCH  33  35
ENDBRANCH  32  33
ENDBRANCH   1  32
TORSDOF 37
ENDMDL
MODEL 9
REMARK VINA RESULT:      -6.2      1.327     10.481
REMARK  Name = *****
REMARK                            x       y       z     vdW  Elec       q    Type
REMARK                         _______ _______ _______ _____ _____    ______ ____
ROOT
ATOM      1  C   LIG    1       25.006 -24.541   6.881  0.00  0.00    +0.240 C 
ENDROOT
BRANCH   1   2
ATOM      2  C   LIG    1       26.159 -23.453   6.806  0.00  0.00    +0.220 C 
BRANCH   2   3
ATOM      3  O   LIG    1       26.394 -22.620   8.004  0.00  0.00    -0.283 OA
BRANCH   3   4
ATOM      4  P   LIG    1       26.446 -21.000   8.030  0.00  0.00    +0.475 P 
ATOM      5  O   LIG    1       25.514 -20.280   7.112  0.00  0.00    -0.227 OA
BRANCH   4   6
ATOM      6  O   LIG    1       26.028 -20.704   9.544  0.00  0.00    -0.302 OA
ATOM      7  H   LIG    1       26.847 -20.432   9.977  0.00  0.00    +0.222 HD
ENDBRANCH   4   6
BRANCH   4   8
ATOM      8  O   LIG    1       27.982 -20.412   8.047  0.00  0.00    -0.281 OA
BRANCH   8   9
ATOM      9  C   LIG    1       28.551 -19.671   6.913  0.00  0.00    +0.223 C 
BRANCH   9  10
ATOM     10  C   LIG    1       30.143 -19.567   6.969  0.00  0.00    +0.161 C 
BRANCH  10  11
ATOM     11  N   LIG    1       30.819 -19.061   8.337  0.00  0.00    +0.238 N 
ATOM     12  C   LIG    1       29.825 -18.234   9.138  0.00  0.00    +0.192 C 
ATOM     13  C   LIG    1       32.098 -18.250   8.141  0.00  0.00    +0.192 C 
ATOM     14  C   LIG    1       31.230 -20.270   9.225  0.00  0.00    +0.192 C 
ENDBRANCH  10  11
ENDBRANCH   9  10
ENDBRANCH   8   9
ENDBRANCH   4   8
ENDBRANCH   3   4
ENDBRANCH   2   3
ENDBRANCH   1   2
BRANCH   1  15
ATOM     15  C   LIG    1       24.883 -25.688   5.764  0.00  0.00    +0.279 C 
BRANCH  15  16
ATOM     16  O   LIG    1       24.004 -26.818   6.018  0.00  0.00    -0.461 OA
BRANCH  16  17
ATOM     17  C   LIG    1       24.503 -28.099   5.897  0.00  0.00    +0.307 C 
ATOM     18  O   LIG    1       24.938 -28.618   4.848  0.00  0.00    -0.251 OA
BRANCH  17  19
ATOM     19  C   LIG    1       24.390 -28.853   7.219  0.00  0.00    +0.120 C 
BRANCH  19  20
ATOM     20  C   LIG    1       25.627 -28.944   8.123  0.00  0.00    +0.011 C 
BRANCH  20  21
ATOM     21  C   LIG    1       25.446 -29.501   9.521  0.00  0.00    +0.000 C 
BRANCH  21  22
ATOM     22  C   LIG    1       26.709 -29.218  10.380  0.00  0.00    +0.000 C 
BRANCH  22  23
ATOM     23  C   LIG    1       26.958 -27.845  11.208  0.00  0.00    -0.000 C 
BRANCH  23  24
ATOM     24  C   LIG    1       26.466 -27.276  12.685  0.00  0.00    -0.000 C 
BRANCH  24  25
ATOM     25  C   LIG    1       26.251 -25.796  13.210  0.00  0.00    -0.000 C 
BRANCH  25  26
ATOM     26  C   LIG    1       24.747 -25.473  13.620  0.00  0.00    -0.000 C 
BRANCH  26  27
ATOM     27  C   LIG    1       23.811 -26.665  13.922  0.00  0.00    -0.000 C 
BRANCH  27  28
ATOM     28  C   LIG    1       22.298 -26.435  13.573  0.00  0.00    -0.000 C 
BRANCH  28  29
ATOM     29  C   LIG    1       21.574 -27.675  12.850  0.00  0.00    -0.000 C 
BRANCH  29  31
ATOM     30  C   LIG    1       22.378 -30.011  11.390  0.00  0.00    +0.004 C 
ATOM     31  C   LIG    1       22.389 -29.040  12.664  0.00  0.00    -0.003 C 
ENDBRANCH  29  31
ENDBRANCH  28  29
ENDBRANCH  27  28
ENDBRANCH  26  27
ENDBRANCH  25  26
ENDBRANCH  24  25
ENDBRANCH  23  24
ENDBRANCH  22  23
ENDBRANCH  21  22
ENDBRANCH  20  21
ENDBRANCH  19  20
ENDBRANCH  17  19
ENDBRANCH  16  17
ENDBRANCH  15  16
ENDBRANCH   1  15
BRANCH   1  32
ATOM     32  O   LIG    1       23.773 -23.765   6.782  0.00  0.00    -0.456 OA
BRANCH  32  33
ATOM     33  C   LIG    1       23.772 -22.753   5.844  0.00  0.00    +0.307 C 
ATOM     34  O   LIG    1       24.454 -22.687   4.897  0.00  0.00    -0.251 OA
BRANCH  33  35
ATOM     35  C   LIG    1       22.763 -21.690   6.273  0.00  0.00    +0.120 C 
BRANCH  35  36
ATOM     36  C   LIG    1       22.154 -20.938   5.097  0.00  0.00    +0.011 C 
BRANCH  36  37
ATOM     37  C   LIG    1       22.478 -19.430   5.079  0.00  0.00    +0.000 C 
BRANCH  37  38
ATOM     38  C   LIG    1       23.324 -18.965   3.902  0.00  0.00    +0.000 C 
BRANCH  38  39
ATOM     39  C   LIG    1       24.835 -19.290   4.031  0.00  0.00    -0.000 C 
BRANCH  39  40
ATOM     40  C   LIG    1       25.759 -18.584   3.027  0.00  0.00    -0.000 C 
BRANCH  40  41
ATOM     41  C   LIG    1       25.957 -17.048   3.245  0.00  0.00    -0.000 C 
BRANCH  41  42
ATOM     42  C   LIG    1       27.325 -16.528   3.811  0.00  0.00    -0.000 C 
BRANCH  42  43
ATOM     43  C   LIG    1       27.467 -14.970   3.806  0.00  0.00    -0.000 C 
BRANCH  43  44
ATOM     44  C   LIG    1       26.278 -14.069   3.326  0.00  0.00    -0.000 C 
BRANCH  44  45
ATOM     45  C   LIG    1       25.247 -13.578   4.361  0.00  0.00    -0.000 C 
BRANCH  45  46
ATOM     46  C   LIG    1       23.770 -13.892   4.001  0.00  0.00    -0.003 C 
ATOM     47  C   LIG    1       23.221 -15.209   4.545  0.00  0.00    +0.004 C 
ENDBRANCH  45  46
ENDBRANCH  44  45
ENDBRANCH  43  44
ENDBRANCH  42  43
ENDBRANCH  41  42
ENDBRANCH  40  41
ENDBRANCH  39  40
ENDBRANCH  38  39
ENDBRANCH  37  38
ENDBRANCH  36  37
ENDBRANCH  35  36
ENDBRANCH  33  35
ENDBRANCH  32  33
ENDBRANCH   1  32
TORSDOF 37
ENDMDL
