MODEL 1
REMARK VINA RESULT:      -4.8      0.000      0.000
REMARK  Name = *****
REMARK                            x       y       z     vdW  Elec       q    Type
REMARK                         _______ _______ _______ _____ _____    ______ ____
ROOT
ATOM      1  C   LIG    1       22.938 -20.577   5.050  0.00  0.00    +0.146 C 
ENDROOT
BRANCH   1   2
ATOM      2  C   LIG    1       23.961 -20.998   4.017  0.00  0.00    +0.032 C 
ATOM      3  C   LIG    1       24.937 -20.297   3.428  0.00  0.00    +0.079 C 
ATOM      4 CL   LIG    1       25.345 -18.667   3.745  0.00  0.00    -0.092 Cl
ENDBRANCH   1   2
BRANCH   1   6
ATOM      5  C   LIG    1       21.928 -18.255   4.325  0.00  0.00    +0.007 C 
ATOM      6  C   LIG    1       22.385 -19.304   4.653  0.00  0.00    -0.067 C 
ENDBRANCH   1   6
BRANCH   1   7
ATOM      7  C   LIG    1       23.567 -20.436   6.456  0.00  0.00    +0.049 C 
ATOM      8  C   LIG    1       24.508 -21.571   6.850  0.00  0.00    +0.008 C 
ENDBRANCH   1   7
BRANCH   1   9
ATOM      9  O   LIG    1       21.887 -21.527   5.151  0.00  0.00    -0.373 OA
ATOM     10  H   LIG    1       21.370 -21.284   5.938  0.00  0.00    +0.212 HD
ENDBRANCH   1   9
TORSDOF 4
ENDMDL
MODEL 2
REMARK VINA RESULT:      -4.7      6.301      7.294
REMARK  Name = *****
REMARK                            x       y       z     vdW  Elec       q    Type
REMARK                         _______ _______ _______ _____ _____    ______ ____
ROOT
ATOM      1  C   LIG    1       26.142 -14.652   3.281  0.00  0.00    +0.146 C 
ENDROOT
BRANCH   1   2
ATOM      2  C   LIG    1       24.749 -14.159   3.611  0.00  0.00    +0.032 C 
ATOM      3  C   LIG    1       24.092 -13.072   3.192  0.00  0.00    +0.079 C 
ATOM      4 CL   LIG    1       24.662 -11.917   2.067  0.00  0.00    -0.092 Cl
ENDBRANCH   1   2
BRANCH   1   6
ATOM      5  C   LIG    1       26.133 -17.285   3.351  0.00  0.00    +0.007 C 
ATOM      6  C   LIG    1       26.137 -16.095   3.319  0.00  0.00    -0.067 C 
ENDBRANCH   1   6
BRANCH   1   7
ATOM      7  C   LIG    1       27.190 -14.125   4.290  0.00  0.00    +0.049 C 
ATOM      8  C   LIG    1       28.341 -13.344   3.664  0.00  0.00    +0.008 C 
ENDBRANCH   1   7
BRANCH   1   9
ATOM      9  O   LIG    1       26.548 -14.225   1.989  0.00  0.00    -0.373 OA
ATOM     10  H   LIG    1       27.070 -13.414   2.117  0.00  0.00    +0.212 HD
ENDBRANCH   1   9
TORSDOF 4
ENDMDL
MODEL 3
REMARK VINA RESULT:      -4.7      6.448      7.363
REMARK  Name = *****
REMARK                            x       y       z     vdW  Elec       q    Type
REMARK                         _______ _______ _______ _____ _____    ______ ____
ROOT
ATOM      1  C   LIG    1       25.766 -14.255   3.360  0.00  0.00    +0.146 C 
ENDROOT
BRANCH   1   2
ATOM      2  C   LIG    1       25.481 -13.335   2.192  0.00  0.00    +0.032 C 
ATOM      3  C   LIG    1       24.693 -12.257   2.109  0.00  0.00    +0.079 C 
ATOM      4 CL   LIG    1       23.794 -11.562   3.387  0.00  0.00    -0.092 Cl
ENDBRANCH   1   2
BRANCH   1   6
ATOM      5  C   LIG    1       23.474 -14.931   4.467  0.00  0.00    +0.007 C 
ATOM      6  C   LIG    1       24.510 -14.625   3.967  0.00  0.00    -0.067 C 
ENDBRANCH   1   6
BRANCH   1   7
ATOM      7  C   LIG    1       26.657 -13.571   4.424  0.00  0.00    +0.049 C 
ATOM      8  C   LIG    1       28.093 -13.307   3.980  0.00  0.00    +0.008 C 
ENDBRANCH   1   7
BRANCH   1   9
ATOM      9  O   LIG    1       26.440 -15.431   2.937  0.00  0.00    -0.373 OA
ATOM     10  H   LIG    1       25.892 -15.828   2.239  0.00  0.00    +0.212 HD
ENDBRANCH   1   9
TORSDOF 4
ENDMDL
MODEL 4
REMARK VINA RESULT:      -4.5      6.277      7.575
REMARK  Name = *****
REMARK                            x       y       z     vdW  Elec       q    Type
REMARK                         _______ _______ _______ _____ _____    ______ ____
ROOT
ATOM      1  C   LIG    1       24.557 -13.086   3.891  0.00  0.00    +0.146 C 
ENDROOT
BRANCH   1   2
ATOM      2  C   LIG    1       25.922 -13.154   4.540  0.00  0.00    +0.032 C 
ATOM      3  C   LIG    1       26.907 -14.048   4.399  0.00  0.00    +0.079 C 
ATOM      4 CL   LIG    1       26.905 -15.396   3.345  0.00  0.00    -0.092 Cl
ENDBRANCH   1   2
BRANCH   1   6
ATOM      5  C   LIG    1       23.238 -15.286   4.492  0.00  0.00    +0.007 C 
ATOM      6  C   LIG    1       23.834 -14.292   4.220  0.00  0.00    -0.067 C 
ENDBRANCH   1   6
BRANCH   1   7
ATOM      7  C   LIG    1       24.659 -12.966   2.352  0.00  0.00    +0.049 C 
ATOM      8  C   LIG    1       24.511 -11.546   1.812  0.00  0.00    +0.008 C 
ENDBRANCH   1   7
BRANCH   1   9
ATOM      9  O   LIG    1       23.820 -11.964   4.354  0.00  0.00    -0.373 OA
ATOM     10  H   LIG    1       23.008 -11.927   3.819  0.00  0.00    +0.212 HD
ENDBRANCH   1   9
TORSDOF 4
ENDMDL
MODEL 5
REMARK VINA RESULT:      -4.5      1.562      3.091
REMARK  Name = *****
REMARK                            x       y       z     vdW  Elec       q    Type
REMARK                         _______ _______ _______ _____ _____    ______ ____
ROOT
ATOM      1  C   LIG    1       23.228 -20.275   4.787  0.00  0.00    +0.146 C 
ENDROOT
BRANCH   1   2
ATOM      2  C   LIG    1       23.452 -20.343   6.283  0.00  0.00    +0.032 C 
ATOM      3  C   LIG    1       24.465 -20.861   6.985  0.00  0.00    +0.079 C 
ATOM      4 CL   LIG    1       25.882 -21.572   6.342  0.00  0.00    -0.092 Cl
ENDBRANCH   1   2
BRANCH   1   6
ATOM      5  C   LIG    1       25.313 -19.102   3.685  0.00  0.00    +0.007 C 
ATOM      6  C   LIG    1       24.371 -19.632   4.183  0.00  0.00    -0.067 C 
ENDBRANCH   1   6
BRANCH   1   7
ATOM      7  C   LIG    1       21.954 -19.471   4.434  0.00  0.00    +0.049 C 
ATOM      8  C   LIG    1       22.134 -17.956   4.441  0.00  0.00    +0.008 C 
ENDBRANCH   1   7
BRANCH   1   9
ATOM      9  O   LIG    1       23.078 -21.572   4.228  0.00  0.00    -0.373 OA
ATOM     10  H   LIG    1       22.126 -21.697   4.073  0.00  0.00    +0.212 HD
ENDBRANCH   1   9
TORSDOF 4
ENDMDL
MODEL 6
REMARK VINA RESULT:      -4.4      6.231      7.425
REMARK  Name = *****
REMARK                            x       y       z     vdW  Elec       q    Type
REMARK                         _______ _______ _______ _____ _____    ______ ____
ROOT
ATOM      1  C   LIG    1       25.350 -14.172   3.673  0.00  0.00    +0.146 C 
ENDROOT
BRANCH   1   2
ATOM      2  C   LIG    1       26.086 -13.554   4.842  0.00  0.00    +0.032 C 
ATOM      3  C   LIG    1       27.374 -13.218   4.977  0.00  0.00    +0.079 C 
ATOM      4 CL   LIG    1       28.585 -13.353   3.777  0.00  0.00    -0.092 Cl
ENDBRANCH   1   2
BRANCH   1   6
ATOM      5  C   LIG    1       26.298 -16.597   3.278  0.00  0.00    +0.007 C 
ATOM      6  C   LIG    1       25.870 -15.501   3.456  0.00  0.00    -0.067 C 
ENDBRANCH   1   6
BRANCH   1   7
ATOM      7  C   LIG    1       25.533 -13.344   2.379  0.00  0.00    +0.049 C 
ATOM      8  C   LIG    1       24.530 -12.206   2.203  0.00  0.00    +0.008 C 
ENDBRANCH   1   7
BRANCH   1   9
ATOM      9  O   LIG    1       23.956 -14.256   3.927  0.00  0.00    -0.373 OA
ATOM     10  H   LIG    1       23.638 -15.051   3.465  0.00  0.00    +0.212 HD
ENDBRANCH   1   9
TORSDOF 4
ENDMDL
MODEL 7
REMARK VINA RESULT:      -4.3      6.568      7.471
REMARK  Name = *****
REMARK                            x       y       z     vdW  Elec       q    Type
REMARK                         _______ _______ _______ _____ _____    ______ ____
ROOT
ATOM      1  C   LIG    1       26.613 -14.012   3.388  0.00  0.00    +0.146 C 
ENDROOT
BRANCH   1   2
ATOM      2  C   LIG    1       25.341 -13.352   2.900  0.00  0.00    +0.032 C 
ATOM      3  C   LIG    1       24.070 -13.537   3.273  0.00  0.00    +0.079 C 
ATOM      4 CL   LIG    1       23.520 -14.584   4.508  0.00  0.00    -0.092 Cl
ENDBRANCH   1   2
BRANCH   1   6
ATOM      5  C   LIG    1       26.281 -16.624   3.306  0.00  0.00    +0.007 C 
ATOM      6  C   LIG    1       26.431 -15.444   3.343  0.00  0.00    -0.067 C 
ENDBRANCH   1   6
BRANCH   1   7
ATOM      7  C   LIG    1       26.956 -13.594   4.838  0.00  0.00    +0.049 C 
ATOM      8  C   LIG    1       28.213 -12.739   4.974  0.00  0.00    +0.008 C 
ENDBRANCH   1   7
BRANCH   1   9
ATOM      9  O   LIG    1       27.722 -13.661   2.574  0.00  0.00    -0.373 OA
ATOM     10  H   LIG    1       28.418 -14.315   2.758  0.00  0.00    +0.212 HD
ENDBRANCH   1   9
TORSDOF 4
ENDMDL
MODEL 8
REMARK VINA RESULT:      -4.3      6.459      7.328
REMARK  Name = *****
REMARK                            x       y       z     vdW  Elec       q    Type
REMARK                         _______ _______ _______ _____ _____    ______ ____
ROOT
ATOM      1  C   LIG    1       25.801 -14.185   3.427  0.00  0.00    +0.146 C 
ENDROOT
BRANCH   1   2
ATOM      2  C   LIG    1       26.412 -13.638   4.699  0.00  0.00    +0.032 C 
ATOM      3  C   LIG    1       27.634 -13.147   4.933  0.00  0.00    +0.079 C 
ATOM      4 CL   LIG    1       28.879 -12.943   3.778  0.00  0.00    -0.092 Cl
ENDBRANCH   1   2
BRANCH   1   6
ATOM      5  C   LIG    1       24.707 -12.189   2.103  0.00  0.00    +0.007 C 
ATOM      6  C   LIG    1       25.201 -13.091   2.701  0.00  0.00    -0.067 C 
ENDBRANCH   1   6
BRANCH   1   7
ATOM      7  C   LIG    1       24.715 -15.247   3.723  0.00  0.00    +0.049 C 
ATOM      8  C   LIG    1       23.479 -14.712   4.440  0.00  0.00    +0.008 C 
ENDBRANCH   1   7
BRANCH   1   9
ATOM      9  O   LIG    1       26.782 -14.802   2.607  0.00  0.00    -0.373 OA
ATOM     10  H   LIG    1       26.746 -15.754   2.801  0.00  0.00    +0.212 HD
ENDBRANCH   1   9
TORSDOF 4
ENDMDL
MODEL 9
REMARK VINA RESULT:      -4.2      1.867      2.027
REMARK  Name = *****
REMARK                            x       y       z     vdW  Elec       q    Type
REMARK                         _______ _______ _______ _____ _____    ______ ____
ROOT
ATOM      1  C   LIG    1       24.135 -20.694   4.663  0.00  0.00    +0.146 C 
ENDROOT
BRANCH   1   2
ATOM      2  C   LIG    1       25.495 -20.072   4.429  0.00  0.00    +0.032 C 
ATOM      3  C   LIG    1       26.531 -19.915   5.260  0.00  0.00    +0.079 C 
ATOM      4 CL   LIG    1       26.619 -20.456   6.880  0.00  0.00    -0.092 Cl
ENDBRANCH   1   2
BRANCH   1   6
ATOM      5  C   LIG    1       22.350 -18.763   4.810  0.00  0.00    +0.007 C 
ATOM      6  C   LIG    1       23.157 -19.635   4.744  0.00  0.00    -0.067 C 
ENDBRANCH   1   6
BRANCH   1   7
ATOM      7  C   LIG    1       24.098 -21.515   5.974  0.00  0.00    +0.049 C 
ATOM      8  C   LIG    1       23.144 -20.975   7.036  0.00  0.00    +0.008 C 
ENDBRANCH   1   7
BRANCH   1   9
ATOM      9  O   LIG    1       23.780 -21.572   3.604  0.00  0.00    -0.373 OA
ATOM     10  H   LIG    1       24.577 -21.680   3.057  0.00  0.00    +0.212 HD
ENDBRANCH   1   9
TORSDOF 4
ENDMDL
