MODEL 1
REMARK VINA RESULT:      -3.0      0.000      0.000
REMARK  Name = *****
REMARK                            x       y       z     vdW  Elec       q    Type
REMARK                         _______ _______ _______ _____ _____    ______ ____
ROOT
ATOM      1  N   LIG    1       26.141 -18.933   4.167  0.00  0.00    -0.297 N 
ATOM      2  C   LIG    1       26.871 -19.688   5.124  0.00  0.00    +0.048 A 
ATOM      3  C   LIG    1       28.154 -19.299   5.550  0.00  0.00    +0.034 A 
ATOM      4  C   LIG    1       28.856 -20.065   6.497  0.00  0.00    +0.017 A 
ATOM      5  C   LIG    1       28.281 -21.201   7.062  0.00  0.00    +0.001 A 
ATOM      6  C   LIG    1       26.997 -21.571   6.694  0.00  0.00    +0.002 A 
ATOM      7  S   LIG    1       28.976 -17.852   4.913  0.00  0.00    -0.086 S 
ATOM      8  C   LIG    1       27.603 -16.946   4.224  0.00  0.00    +0.034 A 
ATOM      9  C   LIG    1       27.807 -15.578   3.976  0.00  0.00    +0.017 A 
ATOM     10  C   LIG    1       26.796 -14.799   3.420  0.00  0.00    +0.001 A 
ATOM     11  C   LIG    1       25.577 -15.382   3.106  0.00  0.00    +0.002 A 
ATOM     12  C   LIG    1       25.371 -16.747   3.340  0.00  0.00    +0.024 A 
ATOM     13  C   LIG    1       26.299 -20.820   5.743  0.00  0.00    +0.024 A 
ATOM     14  C   LIG    1       26.379 -17.562   3.894  0.00  0.00    +0.048 A 
ENDROOT
BRANCH   1  15
ATOM     15  C   LIG    1       25.361 -19.706   3.166  0.00  0.00    +0.129 C 
BRANCH  15  17
ATOM     16  C   LIG    1       23.770 -21.572   3.949  0.00  0.00    +0.026 C 
ATOM     17  C   LIG    1       23.909 -20.076   3.621  0.00  0.00    +0.071 C 
BRANCH  17  18
ATOM     18  N   LIG    1       23.378 -19.279   4.764  0.00  0.00    -0.304 NA
ATOM     19  C   LIG    1       22.970 -20.122   5.887  0.00  0.00    +0.105 C 
ATOM     20  C   LIG    1       22.309 -18.344   4.413  0.00  0.00    +0.105 C 
ENDBRANCH  17  18
ENDBRANCH  15  17
ENDBRANCH   1  15
TORSDOF 3
ENDMDL
MODEL 2
REMARK VINA RESULT:      -2.3      1.755      5.298
REMARK  Name = *****
REMARK                            x       y       z     vdW  Elec       q    Type
REMARK                         _______ _______ _______ _____ _____    ______ ____
ROOT
ATOM      1  N   LIG    1       25.722 -18.628   4.408  0.00  0.00    -0.297 N 
ATOM      2  C   LIG    1       24.336 -18.937   4.407  0.00  0.00    +0.048 A 
ATOM      3  C   LIG    1       23.866 -20.225   4.725  0.00  0.00    +0.034 A 
ATOM      4  C   LIG    1       22.488 -20.506   4.714  0.00  0.00    +0.017 A 
ATOM      5  C   LIG    1       21.560 -19.507   4.429  0.00  0.00    +0.001 A 
ATOM      6  C   LIG    1       22.001 -18.221   4.166  0.00  0.00    +0.002 A 
ATOM      7  S   LIG    1       24.961 -21.572   5.128  0.00  0.00    -0.086 S 
ATOM      8  C   LIG    1       26.457 -20.692   5.544  0.00  0.00    +0.034 A 
ATOM      9  C   LIG    1       27.423 -21.398   6.281  0.00  0.00    +0.017 A 
ATOM     10  C   LIG    1       28.628 -20.795   6.632  0.00  0.00    +0.001 A 
ATOM     11  C   LIG    1       28.877 -19.486   6.244  0.00  0.00    +0.002 A 
ATOM     12  C   LIG    1       27.923 -18.781   5.500  0.00  0.00    +0.024 A 
ATOM     13  C   LIG    1       23.370 -17.938   4.162  0.00  0.00    +0.024 A 
ATOM     14  C   LIG    1       26.697 -19.368   5.124  0.00  0.00    +0.048 A 
ENDROOT
BRANCH   1  15
ATOM     15  C   LIG    1       26.203 -17.727   3.328  0.00  0.00    +0.129 C 
BRANCH  15  17
ATOM     16  C   LIG    1       27.890 -15.833   3.763  0.00  0.00    +0.026 C 
ATOM     17  C   LIG    1       26.407 -16.239   3.769  0.00  0.00    +0.071 C 
BRANCH  17  18
ATOM     18  N   LIG    1       25.627 -15.232   2.994  0.00  0.00    -0.304 NA
ATOM     19  C   LIG    1       26.483 -14.215   2.385  0.00  0.00    +0.105 C 
ATOM     20  C   LIG    1       24.534 -14.603   3.735  0.00  0.00    +0.105 C 
ENDBRANCH  17  18
ENDBRANCH  15  17
ENDBRANCH   1  15
TORSDOF 3
ENDMDL
MODEL 3
REMARK VINA RESULT:      -0.7      1.860      4.357
REMARK  Name = *****
REMARK                            x       y       z     vdW  Elec       q    Type
REMARK                         _______ _______ _______ _____ _____    ______ ____
ROOT
ATOM      1  N   LIG    1       25.412 -18.269   3.636  0.00  0.00    -0.297 N 
ATOM      2  C   LIG    1       24.277 -19.108   3.797  0.00  0.00    +0.048 A 
ATOM      3  C   LIG    1       23.078 -18.629   4.357  0.00  0.00    +0.034 A 
ATOM      4  C   LIG    1       21.969 -19.480   4.507  0.00  0.00    +0.017 A 
ATOM      5  C   LIG    1       22.021 -20.801   4.068  0.00  0.00    +0.001 A 
ATOM      6  C   LIG    1       23.175 -21.276   3.466  0.00  0.00    +0.002 A 
ATOM      7  S   LIG    1       22.892 -16.952   4.930  0.00  0.00    -0.086 S 
ATOM      8  C   LIG    1       24.243 -16.145   4.090  0.00  0.00    +0.034 A 
ATOM      9  C   LIG    1       24.183 -14.744   3.994  0.00  0.00    +0.017 A 
ATOM     10  C   LIG    1       25.204 -14.030   3.373  0.00  0.00    +0.001 A 
ATOM     11  C   LIG    1       26.293 -14.711   2.848  0.00  0.00    +0.002 A 
ATOM     12  C   LIG    1       26.364 -16.106   2.949  0.00  0.00    +0.024 A 
ATOM     13  C   LIG    1       24.285 -20.437   3.326  0.00  0.00    +0.024 A 
ATOM     14  C   LIG    1       25.348 -16.853   3.580  0.00  0.00    +0.048 A 
ENDROOT
BRANCH   1  15
ATOM     15  C   LIG    1       26.737 -18.885   3.911  0.00  0.00    +0.129 C 
BRANCH  15  17
ATOM     16  C   LIG    1       26.088 -20.419   5.873  0.00  0.00    +0.026 C 
ATOM     17  C   LIG    1       26.980 -19.254   5.413  0.00  0.00    +0.071 C 
BRANCH  17  18
ATOM     18  N   LIG    1       28.395 -19.557   5.775  0.00  0.00    -0.304 NA
ATOM     19  C   LIG    1       28.504 -20.244   7.060  0.00  0.00    +0.105 C 
ATOM     20  C   LIG    1       29.296 -18.406   5.732  0.00  0.00    +0.105 C 
ENDBRANCH  17  18
ENDBRANCH  15  17
ENDBRANCH   1  15
TORSDOF 3
ENDMDL
MODEL 4
REMARK VINA RESULT:      -0.6      1.945      4.488
REMARK  Name = *****
REMARK                            x       y       z     vdW  Elec       q    Type
REMARK                         _______ _______ _______ _____ _____    ______ ____
ROOT
ATOM      1  N   LIG    1       25.549 -17.476   3.535  0.00  0.00    -0.297 N 
ATOM      2  C   LIG    1       24.339 -18.190   3.744  0.00  0.00    +0.048 A 
ATOM      3  C   LIG    1       23.205 -17.573   4.303  0.00  0.00    +0.034 A 
ATOM      4  C   LIG    1       22.019 -18.302   4.502  0.00  0.00    +0.017 A 
ATOM      5  C   LIG    1       21.930 -19.637   4.113  0.00  0.00    +0.001 A 
ATOM      6  C   LIG    1       23.020 -20.247   3.513  0.00  0.00    +0.002 A 
ATOM      7  S   LIG    1       23.198 -15.866   4.814  0.00  0.00    -0.086 S 
ATOM      8  C   LIG    1       24.607 -15.230   3.925  0.00  0.00    +0.034 A 
ATOM      9  C   LIG    1       24.685 -13.834   3.776  0.00  0.00    +0.017 A 
ATOM     10  C   LIG    1       25.762 -13.250   3.113  0.00  0.00    +0.001 A 
ATOM     11  C   LIG    1       26.767 -14.056   2.598  0.00  0.00    +0.002 A 
ATOM     12  C   LIG    1       26.700 -15.446   2.752  0.00  0.00    +0.024 A 
ATOM     13  C   LIG    1       24.206 -19.530   3.324  0.00  0.00    +0.024 A 
ATOM     14  C   LIG    1       25.626 -16.064   3.425  0.00  0.00    +0.048 A 
ENDROOT
BRANCH   1  15
ATOM     15  C   LIG    1       26.811 -18.212   3.813  0.00  0.00    +0.129 C 
BRANCH  15  17
ATOM     16  C   LIG    1       26.315 -20.426   5.028  0.00  0.00    +0.026 C 
ATOM     17  C   LIG    1       26.824 -18.982   5.176  0.00  0.00    +0.071 C 
BRANCH  17  18
ATOM     18  N   LIG    1       28.135 -19.002   5.886  0.00  0.00    -0.304 NA
ATOM     19  C   LIG    1       29.151 -18.208   5.197  0.00  0.00    +0.105 C 
ATOM     20  C   LIG    1       28.647 -20.339   6.186  0.00  0.00    +0.105 C 
ENDBRANCH  17  18
ENDBRANCH  15  17
ENDBRANCH   1  15
TORSDOF 3
ENDMDL
MODEL 5
REMARK VINA RESULT:      -0.1      3.064      5.455
REMARK  Name = *****
REMARK                            x       y       z     vdW  Elec       q    Type
REMARK                         _______ _______ _______ _____ _____    ______ ____
ROOT
ATOM      1  N   LIG    1       25.380 -15.812   3.161  0.00  0.00    -0.297 N 
ATOM      2  C   LIG    1       24.522 -16.856   3.597  0.00  0.00    +0.048 A 
ATOM      3  C   LIG    1       23.372 -16.595   4.364  0.00  0.00    +0.034 A 
ATOM      4  C   LIG    1       22.539 -17.647   4.786  0.00  0.00    +0.017 A 
ATOM      5  C   LIG    1       22.813 -18.962   4.418  0.00  0.00    +0.001 A 
ATOM      6  C   LIG    1       23.911 -19.233   3.618  0.00  0.00    +0.002 A 
ATOM      7  S   LIG    1       22.912 -14.950   4.871  0.00  0.00    -0.086 S 
ATOM      8  C   LIG    1       23.856 -13.957   3.728  0.00  0.00    +0.034 A 
ATOM      9  C   LIG    1       23.456 -12.619   3.571  0.00  0.00    +0.017 A 
ATOM     10  C   LIG    1       24.148 -11.767   2.715  0.00  0.00    +0.001 A 
ATOM     11  C   LIG    1       25.247 -12.245   2.014  0.00  0.00    +0.002 A 
ATOM     12  C   LIG    1       25.657 -13.574   2.175  0.00  0.00    +0.024 A 
ATOM     13  C   LIG    1       24.750 -18.193   3.207  0.00  0.00    +0.024 A 
ATOM     14  C   LIG    1       24.980 -14.457   3.041  0.00  0.00    +0.048 A 
ENDROOT
BRANCH   1  15
ATOM     15  C   LIG    1       26.840 -16.096   3.190  0.00  0.00    +0.129 C 
BRANCH  15  17
ATOM     16  C   LIG    1       28.644 -16.857   4.860  0.00  0.00    +0.026 C 
ATOM     17  C   LIG    1       27.519 -15.847   4.579  0.00  0.00    +0.071 C 
BRANCH  17  18
ATOM     18  N   LIG    1       28.042 -14.468   4.795  0.00  0.00    -0.304 NA
ATOM     19  C   LIG    1       27.110 -13.634   5.553  0.00  0.00    +0.105 C 
ATOM     20  C   LIG    1       28.471 -13.779   3.579  0.00  0.00    +0.105 C 
ENDBRANCH  17  18
ENDBRANCH  15  17
ENDBRANCH   1  15
TORSDOF 3
ENDMDL
