MODEL 1
REMARK VINA RESULT:      -2.8      0.000      0.000
REMARK  Name = *****
REMARK                            x       y       z     vdW  Elec       q    Type
REMARK                         _______ _______ _______ _____ _____    ______ ____
ROOT
ATOM      1  C   LIG    1       25.596 -14.599   3.477  0.00  0.00    +0.134 C 
ENDROOT
BRANCH   1   2
ATOM      2  C   LIG    1       25.666 -13.567   2.319  0.00  0.00    +0.338 C 
BRANCH   2   3
ATOM      3  O   LIG    1       25.550 -12.248   2.845  0.00  0.00    -0.216 OA
BRANCH   3   5
ATOM      4  O   LIG    1       23.704 -11.448   1.815  0.00  0.00    +0.093 OA
ATOM      5  N   LIG    1       24.228 -11.746   2.888  0.00  0.00    +0.284 N 
ATOM      6  O   LIG    1       23.798 -11.644   4.039  0.00  0.00    -0.534 OA
ENDBRANCH   3   5
ENDBRANCH   2   3
ENDBRANCH   1   2
BRANCH   1   7
ATOM      7  C   LIG    1       26.503 -15.821   3.146  0.00  0.00    +0.338 C 
BRANCH   7   8
ATOM      8  O   LIG    1       25.703 -16.988   2.942  0.00  0.00    -0.216 OA
BRANCH   8   9
ATOM      9  N   LIG    1       26.187 -18.120   3.644  0.00  0.00    +0.284 N 
ATOM     10  O   LIG    1       27.301 -18.021   4.166  0.00  0.00    -0.534 OA
ATOM     11  O   LIG    1       25.401 -19.065   3.636  0.00  0.00    +0.093 OA
ENDBRANCH   8   9
ENDBRANCH   7   8
ENDBRANCH   1   7
BRANCH   1  12
ATOM     12  C   LIG    1       24.147 -15.120   3.685  0.00  0.00    +0.338 C 
BRANCH  12  13
ATOM     13  O   LIG    1       23.575 -14.723   4.928  0.00  0.00    -0.216 OA
BRANCH  13  14
ATOM     14  N   LIG    1       22.498 -15.552   5.336  0.00  0.00    +0.284 N 
ATOM     15  O   LIG    1       21.889 -15.219   6.348  0.00  0.00    -0.534 OA
ATOM     16  O   LIG    1       22.367 -16.547   4.623  0.00  0.00    +0.093 OA
ENDBRANCH  13  14
ENDBRANCH  12  13
ENDBRANCH   1  12
BRANCH   1  17
ATOM     17  C   LIG    1       26.118 -13.910   4.768  0.00  0.00    +0.338 C 
BRANCH  17  18
ATOM     18  O   LIG    1       27.503 -14.201   4.945  0.00  0.00    -0.216 OA
BRANCH  18  19
ATOM     19  N   LIG    1       28.327 -13.107   4.582  0.00  0.00    +0.284 N 
ATOM     20  O   LIG    1       28.322 -12.212   5.426  0.00  0.00    -0.534 OA
ATOM     21  O   LIG    1       28.938 -13.204   3.522  0.00  0.00    +0.093 OA
ENDBRANCH  18  19
ENDBRANCH  17  18
ENDBRANCH   1  17
TORSDOF 12
ENDMDL
MODEL 2
REMARK VINA RESULT:      -2.7      0.792      4.615
REMARK  Name = *****
REMARK                            x       y       z     vdW  Elec       q    Type
REMARK                         _______ _______ _______ _____ _____    ______ ____
ROOT
ATOM      1  C   LIG    1       25.528 -14.583   3.657  0.00  0.00    +0.134 C 
ENDROOT
BRANCH   1   2
ATOM      2  C   LIG    1       26.355 -15.878   3.432  0.00  0.00    +0.338 C 
BRANCH   2   3
ATOM      3  O   LIG    1       25.506 -16.911   2.943  0.00  0.00    -0.216 OA
BRANCH   3   5
ATOM      4  O   LIG    1       24.924 -19.066   3.305  0.00  0.00    +0.093 OA
ATOM      5  N   LIG    1       25.780 -18.197   3.470  0.00  0.00    +0.284 N 
ATOM      6  O   LIG    1       26.856 -18.243   4.068  0.00  0.00    -0.534 OA
ENDBRANCH   3   5
ENDBRANCH   2   3
ENDBRANCH   1   2
BRANCH   1   7
ATOM      7  C   LIG    1       26.436 -13.481   4.278  0.00  0.00    +0.338 C 
BRANCH   7   8
ATOM      8  O   LIG    1       27.765 -13.977   4.450  0.00  0.00    -0.216 OA
BRANCH   8   9
ATOM      9  N   LIG    1       28.753 -12.971   4.305  0.00  0.00    +0.284 N 
ATOM     10  O   LIG    1       29.475 -13.035   3.306  0.00  0.00    -0.534 OA
ATOM     11  O   LIG    1       28.745 -12.153   5.222  0.00  0.00    +0.093 OA
ENDBRANCH   8   9
ENDBRANCH   7   8
ENDBRANCH   1   7
BRANCH   1  12
ATOM     12  C   LIG    1       24.341 -14.831   4.628  0.00  0.00    +0.338 C 
BRANCH  12  13
ATOM     13  O   LIG    1       23.200 -15.403   3.995  0.00  0.00    -0.216 OA
BRANCH  13  14
ATOM     14  N   LIG    1       22.428 -16.216   4.865  0.00  0.00    +0.284 N 
ATOM     15  O   LIG    1       21.983 -15.685   5.878  0.00  0.00    -0.534 OA
ATOM     16  O   LIG    1       22.367 -17.388   4.491  0.00  0.00    +0.093 OA
ENDBRANCH  13  14
ENDBRANCH  12  13
ENDBRANCH   1  12
BRANCH   1  17
ATOM     17  C   LIG    1       25.008 -14.098   2.275  0.00  0.00    +0.338 C 
BRANCH  17  18
ATOM     18  O   LIG    1       23.829 -13.315   2.449  0.00  0.00    -0.216 OA
BRANCH  18  19
ATOM     19  N   LIG    1       24.128 -11.953   2.699  0.00  0.00    +0.284 N 
ATOM     20  O   LIG    1       24.817 -11.450   1.813  0.00  0.00    -0.534 OA
ATOM     21  O   LIG    1       23.653 -11.461   3.720  0.00  0.00    +0.093 OA
ENDBRANCH  18  19
ENDBRANCH  17  18
ENDBRANCH   1  17
TORSDOF 12
ENDMDL
MODEL 3
REMARK VINA RESULT:      -2.6      0.850      4.427
REMARK  Name = *****
REMARK                            x       y       z     vdW  Elec       q    Type
REMARK                         _______ _______ _______ _____ _____    ______ ____
ROOT
ATOM      1  C   LIG    1       25.435 -14.639   3.771  0.00  0.00    +0.134 C 
ENDROOT
BRANCH   1   2
ATOM      2  C   LIG    1       24.066 -14.885   4.460  0.00  0.00    +0.338 C 
BRANCH   2   3
ATOM      3  O   LIG    1       23.521 -16.123   4.015  0.00  0.00    -0.216 OA
BRANCH   3   5
ATOM      4  O   LIG    1       22.078 -17.765   4.594  0.00  0.00    +0.093 OA
ATOM      5  N   LIG    1       22.443 -16.607   4.796  0.00  0.00    +0.284 N 
ATOM      6  O   LIG    1       21.995 -15.753   5.563  0.00  0.00    -0.534 OA
ENDBRANCH   3   5
ENDBRANCH   2   3
ENDBRANCH   1   2
BRANCH   1   7
ATOM      7  C   LIG    1       25.208 -14.133   2.316  0.00  0.00    +0.338 C 
BRANCH   7   8
ATOM      8  O   LIG    1       24.013 -13.352   2.247  0.00  0.00    -0.216 OA
BRANCH   8   9
ATOM      9  N   LIG    1       24.228 -11.985   2.555  0.00  0.00    +0.284 N 
ATOM     10  O   LIG    1       23.592 -11.518   3.504  0.00  0.00    -0.534 OA
ATOM     11  O   LIG    1       25.046 -11.447   1.812  0.00  0.00    +0.093 OA
ENDBRANCH   8   9
ENDBRANCH   7   8
ENDBRANCH   1   7
BRANCH   1  12
ATOM     12  C   LIG    1       26.277 -15.943   3.700  0.00  0.00    +0.338 C 
BRANCH  12  13
ATOM     13  O   LIG    1       25.644 -16.985   2.962  0.00  0.00    -0.216 OA
BRANCH  13  14
ATOM     14  N   LIG    1       25.857 -18.272   3.522  0.00  0.00    +0.284 N 
ATOM     15  O   LIG    1       26.892 -18.440   4.159  0.00  0.00    -0.534 OA
ATOM     16  O   LIG    1       24.968 -19.072   3.225  0.00  0.00    +0.093 OA
ENDBRANCH  13  14
ENDBRANCH  12  13
ENDBRANCH   1  12
BRANCH   1  17
ATOM     17  C   LIG    1       26.191 -13.547   4.579  0.00  0.00    +0.338 C 
BRANCH  17  18
ATOM     18  O   LIG    1       27.535 -13.962   4.812  0.00  0.00    -0.216 OA
BRANCH  18  19
ATOM     19  N   LIG    1       28.474 -13.002   4.360  0.00  0.00    +0.284 N 
ATOM     20  O   LIG    1       28.730 -12.153   5.213  0.00  0.00    -0.534 OA
ATOM     21  O   LIG    1       28.916 -13.153   3.224  0.00  0.00    +0.093 OA
ENDBRANCH  18  19
ENDBRANCH  17  18
ENDBRANCH   1  17
TORSDOF 12
ENDMDL
MODEL 4
REMARK VINA RESULT:      -2.6      0.908      4.292
REMARK  Name = *****
REMARK                            x       y       z     vdW  Elec       q    Type
REMARK                         _______ _______ _______ _____ _____    ______ ____
ROOT
ATOM      1  C   LIG    1       25.628 -14.992   3.433  0.00  0.00    +0.134 C 
ENDROOT
BRANCH   1   2
ATOM      2  C   LIG    1       27.054 -14.865   4.034  0.00  0.00    +0.338 C 
BRANCH   2   3
ATOM      3  O   LIG    1       27.206 -13.587   4.643  0.00  0.00    -0.216 OA
BRANCH   3   5
ATOM      4  O   LIG    1       29.025 -13.295   3.332  0.00  0.00    +0.093 OA
ATOM      5  N   LIG    1       28.425 -12.932   4.344  0.00  0.00    +0.284 N 
ATOM      6  O   LIG    1       28.730 -12.092   5.192  0.00  0.00    -0.534 OA
ENDBRANCH   3   5
ENDBRANCH   2   3
ENDBRANCH   1   2
BRANCH   1   7
ATOM      7  C   LIG    1       24.568 -14.638   4.518  0.00  0.00    +0.338 C 
BRANCH   7   8
ATOM      8  O   LIG    1       23.262 -15.005   4.069  0.00  0.00    -0.216 OA
BRANCH   8   9
ATOM      9  N   LIG    1       22.550 -15.783   5.016  0.00  0.00    +0.284 N 
ATOM     10  O   LIG    1       22.140 -15.201   6.023  0.00  0.00    -0.534 OA
ATOM     11  O   LIG    1       22.436 -16.961   4.684  0.00  0.00    +0.093 OA
ENDBRANCH   8   9
ENDBRANCH   7   8
ENDBRANCH   1   7
BRANCH   1  12
ATOM     12  C   LIG    1       25.347 -16.438   2.942  0.00  0.00    +0.338 C 
BRANCH  12  13
ATOM     13  O   LIG    1       26.350 -17.374   3.328  0.00  0.00    -0.216 OA
BRANCH  13  14
ATOM     14  N   LIG    1       25.818 -18.616   3.762  0.00  0.00    +0.284 N 
ATOM     15  O   LIG    1       26.540 -19.320   4.460  0.00  0.00    -0.534 OA
ATOM     16  O   LIG    1       24.693 -18.834   3.310  0.00  0.00    +0.093 OA
ENDBRANCH  13  14
ENDBRANCH  12  13
ENDBRANCH   1  12
BRANCH   1  17
ATOM     17  C   LIG    1       25.510 -13.984   2.256  0.00  0.00    +0.338 C 
BRANCH  17  18
ATOM     18  O   LIG    1       24.233 -13.351   2.288  0.00  0.00    -0.216 OA
BRANCH  18  19
ATOM     19  N   LIG    1       24.336 -11.955   2.505  0.00  0.00    +0.284 N 
ATOM     20  O   LIG    1       25.265 -11.447   1.879  0.00  0.00    -0.534 OA
ATOM     21  O   LIG    1       23.497 -11.447   3.244  0.00  0.00    +0.093 OA
ENDBRANCH  18  19
ENDBRANCH  17  18
ENDBRANCH   1  17
TORSDOF 12
ENDMDL
MODEL 5
REMARK VINA RESULT:      -2.6      0.773      4.309
REMARK  Name = *****
REMARK                            x       y       z     vdW  Elec       q    Type
REMARK                         _______ _______ _______ _____ _____    ______ ____
ROOT
ATOM      1  C   LIG    1       25.568 -14.530   3.709  0.00  0.00    +0.134 C 
ENDROOT
BRANCH   1   2
ATOM      2  C   LIG    1       26.356 -13.355   4.349  0.00  0.00    +0.338 C 
BRANCH   2   3
ATOM      3  O   LIG    1       27.647 -13.805   4.746  0.00  0.00    -0.216 OA
BRANCH   3   5
ATOM      4  O   LIG    1       29.330 -13.281   3.329  0.00  0.00    +0.093 OA
ATOM      5  N   LIG    1       28.713 -12.963   4.346  0.00  0.00    +0.284 N 
ATOM      6  O   LIG    1       28.892 -12.024   5.124  0.00  0.00    -0.534 OA
ENDBRANCH   3   5
ENDBRANCH   2   3
ENDBRANCH   1   2
BRANCH   1   7
ATOM      7  C   LIG    1       26.533 -15.720   3.430  0.00  0.00    +0.338 C 
BRANCH   7   8
ATOM      8  O   LIG    1       25.803 -16.837   2.918  0.00  0.00    -0.216 OA
BRANCH   8   9
ATOM      9  N   LIG    1       26.106 -18.049   3.588  0.00  0.00    +0.284 N 
ATOM     10  O   LIG    1       27.218 -18.133   4.117  0.00  0.00    -0.534 OA
ATOM     11  O   LIG    1       25.188 -18.865   3.547  0.00  0.00    +0.093 OA
ENDBRANCH   8   9
ENDBRANCH   7   8
ENDBRANCH   1   7
BRANCH   1  12
ATOM     12  C   LIG    1       24.921 -14.110   2.360  0.00  0.00    +0.338 C 
BRANCH  12  13
ATOM     13  O   LIG    1       23.740 -13.329   2.516  0.00  0.00    -0.216 OA
BRANCH  13  14
ATOM     14  N   LIG    1       24.008 -11.955   2.755  0.00  0.00    +0.284 N 
ATOM     15  O   LIG    1       23.484 -11.447   3.741  0.00  0.00    -0.534 OA
ATOM     16  O   LIG    1       24.703 -11.447   1.874  0.00  0.00    +0.093 OA
ENDBRANCH  13  14
ENDBRANCH  12  13
ENDBRANCH   1  12
BRANCH   1  17
ATOM     17  C   LIG    1       24.476 -14.983   4.718  0.00  0.00    +0.338 C 
BRANCH  17  18
ATOM     18  O   LIG    1       23.318 -15.423   4.012  0.00  0.00    -0.216 OA
BRANCH  18  19
ATOM     19  N   LIG    1       22.454 -16.191   4.832  0.00  0.00    +0.284 N 
ATOM     20  O   LIG    1       22.313 -17.342   4.421  0.00  0.00    -0.534 OA
ATOM     21  O   LIG    1       21.998 -15.635   5.828  0.00  0.00    +0.093 OA
ENDBRANCH  18  19
ENDBRANCH  17  18
ENDBRANCH   1  17
TORSDOF 12
ENDMDL
MODEL 6
REMARK VINA RESULT:      -2.6      0.937      4.526
REMARK  Name = *****
REMARK                            x       y       z     vdW  Elec       q    Type
REMARK                         _______ _______ _______ _____ _____    ______ ____
ROOT
ATOM      1  C   LIG    1       25.657 -15.064   3.512  0.00  0.00    +0.134 C 
ENDROOT
BRANCH   1   2
ATOM      2  C   LIG    1       25.370 -14.075   2.351  0.00  0.00    +0.338 C 
BRANCH   2   3
ATOM      3  O   LIG    1       24.140 -13.399   2.590  0.00  0.00    -0.216 OA
BRANCH   3   5
ATOM      4  O   LIG    1       24.982 -11.449   1.813  0.00  0.00    +0.093 OA
ATOM      5  N   LIG    1       24.242 -11.988   2.637  0.00  0.00    +0.284 N 
ATOM      6  O   LIG    1       23.580 -11.496   3.553  0.00  0.00    -0.534 OA
ENDBRANCH   3   5
ENDBRANCH   2   3
ENDBRANCH   1   2
BRANCH   1   7
ATOM      7  C   LIG    1       27.052 -14.754   4.133  0.00  0.00    +0.338 C 
BRANCH   7   8
ATOM      8  O   LIG    1       27.173 -13.355   4.398  0.00  0.00    -0.216 OA
BRANCH   8   9
ATOM      9  N   LIG    1       28.511 -12.894   4.333  0.00  0.00    +0.284 N 
ATOM     10  O   LIG    1       28.864 -12.076   5.187  0.00  0.00    -0.534 OA
ATOM     11  O   LIG    1       29.149 -13.395   3.409  0.00  0.00    +0.093 OA
ENDBRANCH   8   9
ENDBRANCH   7   8
ENDBRANCH   1   7
BRANCH   1  12
ATOM     12  C   LIG    1       25.671 -16.535   3.014  0.00  0.00    +0.338 C 
BRANCH  12  13
ATOM     13  O   LIG    1       26.554 -17.376   3.752  0.00  0.00    -0.216 OA
BRANCH  13  14
ATOM     14  N   LIG    1       26.020 -18.668   3.996  0.00  0.00    +0.284 N 
ATOM     15  O   LIG    1       26.698 -19.433   4.675  0.00  0.00    -0.534 OA
ATOM     16  O   LIG    1       24.947 -18.855   3.422  0.00  0.00    +0.093 OA
ENDBRANCH  13  14
ENDBRANCH  12  13
ENDBRANCH   1  12
BRANCH   1  17
ATOM     17  C   LIG    1       24.560 -14.866   4.596  0.00  0.00    +0.338 C 
BRANCH  17  18
ATOM     18  O   LIG    1       23.283 -15.195   4.055  0.00  0.00    -0.216 OA
BRANCH  18  19
ATOM     19  N   LIG    1       22.501 -15.954   4.961  0.00  0.00    +0.284 N 
ATOM     20  O   LIG    1       22.381 -17.127   4.613  0.00  0.00    -0.534 OA
ATOM     21  O   LIG    1       22.084 -15.368   5.956  0.00  0.00    +0.093 OA
ENDBRANCH  18  19
ENDBRANCH  17  18
ENDBRANCH   1  17
TORSDOF 12
ENDMDL
MODEL 7
REMARK VINA RESULT:      -2.5      0.829      4.218
REMARK  Name = *****
REMARK                            x       y       z     vdW  Elec       q    Type
REMARK                         _______ _______ _______ _____ _____    ______ ____
ROOT
ATOM      1  C   LIG    1       25.555 -14.481   3.869  0.00  0.00    +0.134 C 
ENDROOT
BRANCH   1   2
ATOM      2  C   LIG    1       26.605 -15.617   3.727  0.00  0.00    +0.338 C 
BRANCH   2   3
ATOM      3  O   LIG    1       26.088 -16.645   2.889  0.00  0.00    -0.216 OA
BRANCH   3   5
ATOM      4  O   LIG    1       24.998 -18.560   3.399  0.00  0.00    +0.093 OA
ATOM      5  N   LIG    1       26.051 -17.929   3.486  0.00  0.00    +0.284 N 
ATOM      6  O   LIG    1       27.106 -18.215   4.055  0.00  0.00    -0.534 OA
ENDBRANCH   3   5
ENDBRANCH   2   3
ENDBRANCH   1   2
BRANCH   1   7
ATOM      7  C   LIG    1       24.412 -14.939   4.822  0.00  0.00    +0.338 C 
BRANCH   7   8
ATOM      8  O   LIG    1       23.332 -15.493   4.067  0.00  0.00    -0.216 OA
BRANCH   8   9
ATOM      9  N   LIG    1       22.426 -16.237   4.862  0.00  0.00    +0.284 N 
ATOM     10  O   LIG    1       22.156 -17.380   4.482  0.00  0.00    -0.534 OA
ATOM     11  O   LIG    1       22.030 -15.620   5.849  0.00  0.00    +0.093 OA
ENDBRANCH   8   9
ENDBRANCH   7   8
ENDBRANCH   1   7
BRANCH   1  12
ATOM     12  C   LIG    1       24.920 -14.121   2.498  0.00  0.00    +0.338 C 
BRANCH  12  13
ATOM     13  O   LIG    1       23.732 -13.342   2.610  0.00  0.00    -0.216 OA
BRANCH  13  14
ATOM     14  N   LIG    1       23.987 -11.949   2.713  0.00  0.00    +0.284 N 
ATOM     15  O   LIG    1       24.703 -11.447   1.853  0.00  0.00    -0.534 OA
ATOM     16  O   LIG    1       23.480 -11.447   3.718  0.00  0.00    +0.093 OA
ENDBRANCH  13  14
ENDBRANCH  12  13
ENDBRANCH   1  12
BRANCH   1  17
ATOM     17  C   LIG    1       26.266 -13.243   4.482  0.00  0.00    +0.338 C 
BRANCH  17  18
ATOM     18  O   LIG    1       27.554 -13.616   4.969  0.00  0.00    -0.216 OA
BRANCH  18  19
ATOM     19  N   LIG    1       28.588 -12.846   4.383  0.00  0.00    +0.284 N 
ATOM     20  O   LIG    1       29.030 -11.990   5.148  0.00  0.00    -0.534 OA
ATOM     21  O   LIG    1       28.916 -13.141   3.236  0.00  0.00    +0.093 OA
ENDBRANCH  18  19
ENDBRANCH  17  18
ENDBRANCH   1  17
TORSDOF 12
ENDMDL
MODEL 8
REMARK VINA RESULT:      -2.4      3.534      7.076
REMARK  Name = *****
REMARK                            x       y       z     vdW  Elec       q    Type
REMARK                         _______ _______ _______ _____ _____    ______ ____
ROOT
ATOM      1  C   LIG    1       25.125 -19.420   4.263  0.00  0.00    +0.134 C 
ENDROOT
BRANCH   1   2
ATOM      2  C   LIG    1       24.435 -20.708   3.737  0.00  0.00    +0.338 C 
BRANCH   2   3
ATOM      3  O   LIG    1       24.135 -21.571   4.829  0.00  0.00    -0.216 OA
BRANCH   3   5
ATOM      4  O   LIG    1       21.894 -21.265   4.801  0.00  0.00    +0.093 OA
ATOM      5  N   LIG    1       22.915 -21.283   5.489  0.00  0.00    +0.284 N 
ATOM      6  O   LIG    1       23.070 -21.051   6.689  0.00  0.00    -0.534 OA
ENDBRANCH   3   5
ENDBRANCH   2   3
ENDBRANCH   1   2
BRANCH   1   7
ATOM      7  C   LIG    1       26.079 -18.852   3.171  0.00  0.00    +0.338 C 
BRANCH   7   8
ATOM      8  O   LIG    1       25.773 -17.480   2.913  0.00  0.00    -0.216 OA
BRANCH   8   9
ATOM      9  N   LIG    1       26.785 -16.595   3.359  0.00  0.00    +0.284 N 
ATOM     10  O   LIG    1       27.673 -17.072   4.070  0.00  0.00    -0.534 OA
ATOM     11  O   LIG    1       26.631 -15.444   2.955  0.00  0.00    +0.093 OA
ENDBRANCH   8   9
ENDBRANCH   7   8
ENDBRANCH   1   7
BRANCH   1  12
ATOM     12  C   LIG    1       25.969 -19.707   5.535  0.00  0.00    +0.338 C 
BRANCH  12  13
ATOM     13  O   LIG    1       27.194 -20.382   5.262  0.00  0.00    -0.216 OA
BRANCH  13  14
ATOM     14  N   LIG    1       28.153 -20.237   6.298  0.00  0.00    +0.284 N 
ATOM     15  O   LIG    1       28.823 -19.209   6.300  0.00  0.00    -0.534 OA
ATOM     16  O   LIG    1       28.212 -21.224   7.032  0.00  0.00    +0.093 OA
ENDBRANCH  13  14
ENDBRANCH  12  13
ENDBRANCH   1  12
BRANCH   1  17
ATOM     17  C   LIG    1       24.018 -18.372   4.568  0.00  0.00    +0.338 C 
BRANCH  17  18
ATOM     18  O   LIG    1       22.902 -18.583   3.707  0.00  0.00    -0.216 OA
BRANCH  18  19
ATOM     19  N   LIG    1       21.767 -17.839   4.114  0.00  0.00    +0.284 N 
ATOM     20  O   LIG    1       20.714 -18.317   3.694  0.00  0.00    -0.534 OA
ATOM     21  O   LIG    1       21.974 -16.864   4.832  0.00  0.00    +0.093 OA
ENDBRANCH  18  19
ENDBRANCH  17  18
ENDBRANCH   1  17
TORSDOF 12
ENDMDL
MODEL 9
REMARK VINA RESULT:      -2.4      1.703      3.639
REMARK  Name = *****
REMARK                            x       y       z     vdW  Elec       q    Type
REMARK                         _______ _______ _______ _____ _____    ______ ____
ROOT
ATOM      1  C   LIG    1       26.527 -15.365   3.626  0.00  0.00    +0.134 C 
ENDROOT
BRANCH   1   2
ATOM      2  C   LIG    1       27.123 -14.411   2.557  0.00  0.00    +0.338 C 
BRANCH   2   3
ATOM      3  O   LIG    1       27.282 -13.109   3.111  0.00  0.00    -0.216 OA
BRANCH   3   5
ATOM      4  O   LIG    1       28.259 -12.550   5.072  0.00  0.00    +0.093 OA
ATOM      5  N   LIG    1       28.432 -12.949   3.921  0.00  0.00    +0.284 N 
ATOM      6  O   LIG    1       29.475 -13.208   3.317  0.00  0.00    -0.534 OA
ENDBRANCH   3   5
ENDBRANCH   2   3
ENDBRANCH   1   2
BRANCH   1   7
ATOM      7  C   LIG    1       27.676 -15.992   4.470  0.00  0.00    +0.338 C 
BRANCH   7   8
ATOM      8  O   LIG    1       27.879 -17.355   4.089  0.00  0.00    -0.216 OA
BRANCH   8   9
ATOM      9  N   LIG    1       28.516 -18.121   5.097  0.00  0.00    +0.284 N 
ATOM     10  O   LIG    1       28.065 -19.249   5.313  0.00  0.00    -0.534 OA
ATOM     11  O   LIG    1       29.460 -17.535   5.624  0.00  0.00    +0.093 OA
ENDBRANCH   8   9
ENDBRANCH   7   8
ENDBRANCH   1   7
BRANCH   1  12
ATOM     12  C   LIG    1       25.727 -16.523   2.970  0.00  0.00    +0.338 C 
BRANCH  12  13
ATOM     13  O   LIG    1       24.608 -16.949   3.743  0.00  0.00    -0.216 OA
BRANCH  13  14
ATOM     14  N   LIG    1       24.392 -18.351   3.686  0.00  0.00    +0.284 N 
ATOM     15  O   LIG    1       25.353 -19.053   3.390  0.00  0.00    -0.534 OA
ATOM     16  O   LIG    1       23.217 -18.659   3.893  0.00  0.00    +0.093 OA
ENDBRANCH  13  14
ENDBRANCH  12  13
ENDBRANCH   1  12
BRANCH   1  17
ATOM     17  C   LIG    1       25.607 -14.528   4.559  0.00  0.00    +0.338 C 
BRANCH  17  18
ATOM     18  O   LIG    1       24.419 -14.159   3.861  0.00  0.00    -0.216 OA
BRANCH  18  19
ATOM     19  N   LIG    1       24.210 -12.757   3.871  0.00  0.00    +0.284 N 
ATOM     20  O   LIG    1       24.311 -12.273   4.997  0.00  0.00    -0.534 OA
ATOM     21  O   LIG    1       23.991 -12.224   2.786  0.00  0.00    +0.093 OA
ENDBRANCH  18  19
ENDBRANCH  17  18
ENDBRANCH   1  17
TORSDOF 12
ENDMDL
