MODEL 1
REMARK VINA RESULT:      -8.6      0.000      0.000
REMARK  Name = *****
REMARK                            x       y       z     vdW  Elec       q    Type
REMARK                         _______ _______ _______ _____ _____    ______ ____
ROOT
ATOM      1  C   LIG    1       29.699 -19.593   7.156  0.00  0.00    +0.167 C 
ATOM      2  O   LIG    1       30.203 -19.202   6.108  0.00  0.00    -0.292 OA
ENDROOT
BRANCH   1   6
ATOM      3  C   LIG    1       25.517 -20.691   7.164  0.00  0.00    -0.048 A 
ATOM      4  C   LIG    1       26.210 -20.563   8.368  0.00  0.00    +0.004 A 
ATOM      5  C   LIG    1       27.560 -20.215   8.373  0.00  0.00    +0.012 A 
ATOM      6  C   LIG    1       28.249 -19.988   7.175  0.00  0.00    +0.018 A 
ATOM      7  C   LIG    1       27.559 -20.135   5.965  0.00  0.00    +0.012 A 
ATOM      8  C   LIG    1       26.203 -20.484   5.961  0.00  0.00    +0.004 A 
BRANCH   3  10
ATOM      9  C   LIG    1       23.283 -20.381   6.064  0.00  0.00    +0.009 C 
ATOM     10  C   LIG    1       24.061 -21.073   7.172  0.00  0.00    +0.032 C 
ENDBRANCH   3  10
ENDBRANCH   1   6
BRANCH   1  11
ATOM     11  C   LIG    1       30.511 -19.724   8.448  0.00  0.00    +0.071 C 
ATOM     12  C   LIG    1       30.983 -21.168   8.616  0.00  0.00    +0.017 C 
BRANCH  11  13
ATOM     13  C   LIG    1       31.651 -18.691   8.495  0.00  0.00    +0.095 C 
BRANCH  13  14
ATOM     14  N   LIG    1       31.209 -17.312   8.797  0.00  0.00    -0.302 NA
ATOM     15  C   LIG    1       30.140 -17.305   9.812  0.00  0.00    +0.084 C 
ATOM     16  C   LIG    1       30.631 -17.610  11.230  0.00  0.00    +0.015 C 
ATOM     17  C   LIG    1       31.760 -16.670  11.638  0.00  0.00    +0.002 C 
ATOM     18  C   LIG    1       32.859 -16.649  10.581  0.00  0.00    +0.015 C 
ATOM     19  C   LIG    1       32.280 -16.384   9.190  0.00  0.00    +0.084 C 
ENDBRANCH  13  14
ENDBRANCH  11  13
ENDBRANCH   1  11
TORSDOF 5
ENDMDL
MODEL 2
REMARK VINA RESULT:      -8.3      3.245      7.513
REMARK  Name = *****
REMARK                            x       y       z     vdW  Elec       q    Type
REMARK                         _______ _______ _______ _____ _____    ______ ____
ROOT
ATOM      1  C   LIG    1       25.991 -21.740   7.856  0.00  0.00    +0.167 C 
ATOM      2  O   LIG    1       25.600 -21.806   9.017  0.00  0.00    -0.292 OA
ENDROOT
BRANCH   1   6
ATOM      3  C   LIG    1       29.826 -19.905   7.068  0.00  0.00    -0.048 A 
ATOM      4  C   LIG    1       28.709 -19.545   6.313  0.00  0.00    +0.004 A 
ATOM      5  C   LIG    1       27.471 -20.136   6.557  0.00  0.00    +0.012 A 
ATOM      6  C   LIG    1       27.320 -21.102   7.561  0.00  0.00    +0.018 A 
ATOM      7  C   LIG    1       28.445 -21.479   8.306  0.00  0.00    +0.012 A 
ATOM      8  C   LIG    1       29.688 -20.883   8.060  0.00  0.00    +0.004 A 
BRANCH   3  10
ATOM      9  C   LIG    1       31.718 -18.554   8.012  0.00  0.00    +0.009 C 
ATOM     10  C   LIG    1       31.160 -19.263   6.789  0.00  0.00    +0.032 C 
ENDBRANCH   3  10
ENDBRANCH   1   6
BRANCH   1  11
ATOM     11  C   LIG    1       25.180 -22.316   6.692  0.00  0.00    +0.071 C 
ATOM     12  C   LIG    1       24.978 -23.817   6.898  0.00  0.00    +0.017 C 
BRANCH  11  13
ATOM     13  C   LIG    1       23.869 -21.537   6.488  0.00  0.00    +0.095 C 
BRANCH  13  14
ATOM     14  N   LIG    1       23.345 -21.581   5.106  0.00  0.00    -0.302 NA
ATOM     15  C   LIG    1       22.160 -20.717   4.957  0.00  0.00    +0.084 C 
ATOM     16  C   LIG    1       22.484 -19.220   4.939  0.00  0.00    +0.015 C 
ATOM     17  C   LIG    1       23.520 -18.893   3.869  0.00  0.00    +0.002 C 
ATOM     18  C   LIG    1       24.739 -19.800   3.996  0.00  0.00    +0.015 C 
ATOM     19  C   LIG    1       24.326 -21.272   4.054  0.00  0.00    +0.084 C 
ENDBRANCH  13  14
ENDBRANCH  11  13
ENDBRANCH   1  11
TORSDOF 5
ENDMDL
MODEL 3
REMARK VINA RESULT:      -8.3      1.246      2.214
REMARK  Name = *****
REMARK                            x       y       z     vdW  Elec       q    Type
REMARK                         _______ _______ _______ _____ _____    ______ ____
ROOT
ATOM      1  C   LIG    1       29.068 -20.541   7.490  0.00  0.00    +0.167 C 
ATOM      2  O   LIG    1       29.656 -21.567   7.815  0.00  0.00    -0.292 OA
ENDROOT
BRANCH   1   6
ATOM      3  C   LIG    1       24.787 -20.694   6.903  0.00  0.00    -0.048 A 
ATOM      4  C   LIG    1       25.642 -20.614   5.803  0.00  0.00    +0.004 A 
ATOM      5  C   LIG    1       27.023 -20.558   5.985  0.00  0.00    +0.012 A 
ATOM      6  C   LIG    1       27.582 -20.580   7.270  0.00  0.00    +0.018 A 
ATOM      7  C   LIG    1       26.724 -20.642   8.375  0.00  0.00    +0.012 A 
ATOM      8  C   LIG    1       25.337 -20.698   8.191  0.00  0.00    +0.004 A 
BRANCH   3  10
ATOM      9  C   LIG    1       22.858 -19.903   5.507  0.00  0.00    +0.009 C 
ATOM     10  C   LIG    1       23.297 -20.747   6.693  0.00  0.00    +0.032 C 
ENDBRANCH   3  10
ENDBRANCH   1   6
BRANCH   1  11
ATOM     11  C   LIG    1       29.797 -19.204   7.330  0.00  0.00    +0.071 C 
ATOM     12  C   LIG    1       29.347 -18.522   6.039  0.00  0.00    +0.017 C 
BRANCH  11  13
ATOM     13  C   LIG    1       29.630 -18.327   8.584  0.00  0.00    +0.095 C 
BRANCH  13  14
ATOM     14  N   LIG    1       30.571 -18.646   9.679  0.00  0.00    -0.302 NA
ATOM     15  C   LIG    1       31.970 -18.476   9.246  0.00  0.00    +0.084 C 
ATOM     16  C   LIG    1       32.402 -17.012   9.110  0.00  0.00    +0.015 C 
ATOM     17  C   LIG    1       32.144 -16.239  10.398  0.00  0.00    +0.002 C 
ATOM     18  C   LIG    1       30.707 -16.430  10.870  0.00  0.00    +0.015 C 
ATOM     19  C   LIG    1       30.342 -17.915  10.934  0.00  0.00    +0.084 C 
ENDBRANCH  13  14
ENDBRANCH  11  13
ENDBRANCH   1  11
TORSDOF 5
ENDMDL
MODEL 4
REMARK VINA RESULT:      -8.2      5.310      7.680
REMARK  Name = *****
REMARK                            x       y       z     vdW  Elec       q    Type
REMARK                         _______ _______ _______ _____ _____    ______ ____
ROOT
ATOM      1  C   LIG    1       26.187 -22.653   7.047  0.00  0.00    +0.167 C 
ATOM      2  O   LIG    1       27.367 -22.513   7.351  0.00  0.00    -0.292 OA
ENDROOT
BRANCH   1   6
ATOM      3  C   LIG    1       24.644 -26.586   6.130  0.00  0.00    -0.048 A 
ATOM      4  C   LIG    1       26.017 -26.392   6.287  0.00  0.00    +0.004 A 
ATOM      5  C   LIG    1       26.522 -25.125   6.577  0.00  0.00    +0.012 A 
ATOM      6  C   LIG    1       25.668 -24.024   6.716  0.00  0.00    +0.018 A 
ATOM      7  C   LIG    1       24.291 -24.214   6.539  0.00  0.00    +0.012 A 
ATOM      8  C   LIG    1       23.785 -25.487   6.249  0.00  0.00    +0.004 A 
BRANCH   3  10
ATOM      9  C   LIG    1       24.524 -28.987   6.852  0.00  0.00    +0.009 C 
ATOM     10  C   LIG    1       24.112 -27.959   5.811  0.00  0.00    +0.032 C 
ENDBRANCH   3  10
ENDBRANCH   1   6
BRANCH   1  11
ATOM     11  C   LIG    1       25.209 -21.474   7.024  0.00  0.00    +0.071 C 
ATOM     12  C   LIG    1       25.371 -20.645   8.298  0.00  0.00    +0.017 C 
BRANCH  11  13
ATOM     13  C   LIG    1       25.357 -20.655   5.730  0.00  0.00    +0.095 C 
BRANCH  13  14
ATOM     14  N   LIG    1       24.376 -20.999   4.678  0.00  0.00    -0.302 NA
ATOM     15  C   LIG    1       23.000 -20.986   5.206  0.00  0.00    +0.084 C 
ATOM     16  C   LIG    1       22.448 -19.580   5.460  0.00  0.00    +0.015 C 
ATOM     17  C   LIG    1       22.547 -18.714   4.209  0.00  0.00    +0.002 C 
ATOM     18  C   LIG    1       23.961 -18.742   3.638  0.00  0.00    +0.015 C 
ATOM     19  C   LIG    1       24.453 -20.180   3.458  0.00  0.00    +0.084 C 
ENDBRANCH  13  14
ENDBRANCH  11  13
ENDBRANCH   1  11
TORSDOF 5
ENDMDL
MODEL 5
REMARK VINA RESULT:      -8.2      3.293      7.627
REMARK  Name = *****
REMARK                            x       y       z     vdW  Elec       q    Type
REMARK                         _______ _______ _______ _____ _____    ______ ____
ROOT
ATOM      1  C   LIG    1       25.443 -20.319   5.059  0.00  0.00    +0.167 C 
ATOM      2  O   LIG    1       25.473 -20.107   3.852  0.00  0.00    -0.292 OA
ENDROOT
BRANCH   1   6
ATOM      3  C   LIG    1       28.985 -19.683   7.456  0.00  0.00    -0.048 A 
ATOM      4  C   LIG    1       29.002 -19.394   6.092  0.00  0.00    +0.004 A 
ATOM      5  C   LIG    1       27.866 -19.602   5.312  0.00  0.00    +0.012 A 
ATOM      6  C   LIG    1       26.687 -20.105   5.876  0.00  0.00    +0.018 A 
ATOM      7  C   LIG    1       26.675 -20.414   7.242  0.00  0.00    +0.012 A 
ATOM      8  C   LIG    1       27.817 -20.205   8.025  0.00  0.00    +0.004 A 
BRANCH   3  10
ATOM      9  C   LIG    1       30.472 -17.984   8.552  0.00  0.00    +0.009 C 
ATOM     10  C   LIG    1       30.222 -19.460   8.287  0.00  0.00    +0.032 C 
ENDBRANCH   3  10
ENDBRANCH   1   6
BRANCH   1  11
ATOM     11  C   LIG    1       24.165 -20.766   5.775  0.00  0.00    +0.071 C 
ATOM     12  C   LIG    1       22.991 -19.898   5.325  0.00  0.00    +0.017 C 
BRANCH  11  13
ATOM     13  C   LIG    1       23.925 -22.275   5.591  0.00  0.00    +0.095 C 
BRANCH  13  14
ATOM     14  N   LIG    1       23.882 -23.042   6.855  0.00  0.00    -0.302 NA
ATOM     15  C   LIG    1       23.212 -24.341   6.668  0.00  0.00    +0.084 C 
ATOM     16  C   LIG    1       24.055 -25.368   5.907  0.00  0.00    +0.015 C 
ATOM     17  C   LIG    1       25.417 -25.560   6.565  0.00  0.00    +0.002 C 
ATOM     18  C   LIG    1       26.108 -24.220   6.789  0.00  0.00    +0.015 C 
ATOM     19  C   LIG    1       25.183 -23.238   7.512  0.00  0.00    +0.084 C 
ENDBRANCH  13  14
ENDBRANCH  11  13
ENDBRANCH   1  11
TORSDOF 5
ENDMDL
MODEL 6
REMARK VINA RESULT:      -7.9      6.620      8.575
REMARK  Name = *****
REMARK                            x       y       z     vdW  Elec       q    Type
REMARK                         _______ _______ _______ _____ _____    ______ ____
ROOT
ATOM      1  C   LIG    1       25.335 -22.872   6.491  0.00  0.00    +0.167 C 
ATOM      2  O   LIG    1       26.459 -22.585   6.890  0.00  0.00    -0.292 OA
ENDROOT
BRANCH   1   6
ATOM      3  C   LIG    1       22.877 -19.761   4.766  0.00  0.00    -0.048 A 
ATOM      4  C   LIG    1       22.794 -20.043   6.129  0.00  0.00    +0.004 A 
ATOM      5  C   LIG    1       23.579 -21.049   6.691  0.00  0.00    +0.012 A 
ATOM      6  C   LIG    1       24.464 -21.796   5.904  0.00  0.00    +0.018 A 
ATOM      7  C   LIG    1       24.534 -21.526   4.531  0.00  0.00    +0.012 A 
ATOM      8  C   LIG    1       23.745 -20.516   3.967  0.00  0.00    +0.004 A 
BRANCH   3  10
ATOM      9  C   LIG    1       22.379 -17.302   4.711  0.00  0.00    +0.009 C 
ATOM     10  C   LIG    1       22.018 -18.676   4.170  0.00  0.00    +0.032 C 
ENDBRANCH   3  10
ENDBRANCH   1   6
BRANCH   1  11
ATOM     11  C   LIG    1       24.796 -24.304   6.539  0.00  0.00    +0.071 C 
ATOM     12  C   LIG    1       23.274 -24.279   6.674  0.00  0.00    +0.017 C 
BRANCH  11  13
ATOM     13  C   LIG    1       25.298 -25.128   5.340  0.00  0.00    +0.095 C 
BRANCH  13  14
ATOM     14  N   LIG    1       26.313 -26.146   5.685  0.00  0.00    -0.302 NA
ATOM     15  C   LIG    1       26.083 -26.695   7.033  0.00  0.00    +0.084 C 
ATOM     16  C   LIG    1       24.889 -27.651   7.116  0.00  0.00    +0.015 C 
ATOM     17  C   LIG    1       25.012 -28.777   6.096  0.00  0.00    +0.002 C 
ATOM     18  C   LIG    1       25.279 -28.222   4.701  0.00  0.00    +0.015 C 
ATOM     19  C   LIG    1       26.454 -27.243   4.714  0.00  0.00    +0.084 C 
ENDBRANCH  13  14
ENDBRANCH  11  13
ENDBRANCH   1  11
TORSDOF 5
ENDMDL
MODEL 7
REMARK VINA RESULT:      -7.9      7.328     10.161
REMARK  Name = *****
REMARK                            x       y       z     vdW  Elec       q    Type
REMARK                         _______ _______ _______ _____ _____    ______ ____
ROOT
ATOM      1  C   LIG    1       25.721 -26.454   6.237  0.00  0.00    +0.167 C 
ATOM      2  O   LIG    1       26.853 -26.523   5.769  0.00  0.00    -0.292 OA
ENDROOT
BRANCH   1   6
ATOM      3  C   LIG    1       23.983 -22.584   7.072  0.00  0.00    -0.048 A 
ATOM      4  C   LIG    1       25.356 -22.781   7.218  0.00  0.00    +0.004 A 
ATOM      5  C   LIG    1       25.923 -24.027   6.956  0.00  0.00    +0.012 A 
ATOM      6  C   LIG    1       25.130 -25.106   6.544  0.00  0.00    +0.018 A 
ATOM      7  C   LIG    1       23.748 -24.915   6.416  0.00  0.00    +0.012 A 
ATOM      8  C   LIG    1       23.180 -23.663   6.679  0.00  0.00    +0.004 A 
BRANCH   3  10
ATOM      9  C   LIG    1       23.057 -20.468   6.093  0.00  0.00    +0.009 C 
ATOM     10  C   LIG    1       23.382 -21.234   7.365  0.00  0.00    +0.032 C 
ENDBRANCH   3  10
ENDBRANCH   1   6
BRANCH   1  11
ATOM     11  C   LIG    1       24.870 -27.702   6.490  0.00  0.00    +0.071 C 
ATOM     12  C   LIG    1       24.616 -28.430   5.171  0.00  0.00    +0.017 C 
BRANCH  11  13
ATOM     13  C   LIG    1       25.498 -28.592   7.577  0.00  0.00    +0.095 C 
BRANCH  13  14
ATOM     14  N   LIG    1       24.856 -29.916   7.724  0.00  0.00    -0.302 NA
ATOM     15  C   LIG    1       25.860 -30.995   7.764  0.00  0.00    +0.084 C 
ATOM     16  C   LIG    1       26.637 -31.066   9.082  0.00  0.00    +0.015 C 
ATOM     17  C   LIG    1       25.692 -31.171  10.275  0.00  0.00    +0.002 C 
ATOM     18  C   LIG    1       24.632 -30.077  10.228  0.00  0.00    +0.015 C 
ATOM     19  C   LIG    1       23.937 -30.043   8.865  0.00  0.00    +0.084 C 
ENDBRANCH  13  14
ENDBRANCH  11  13
ENDBRANCH   1  11
TORSDOF 5
ENDMDL
MODEL 8
REMARK VINA RESULT:      -7.8      3.862      5.634
REMARK  Name = *****
REMARK                            x       y       z     vdW  Elec       q    Type
REMARK                         _______ _______ _______ _____ _____    ______ ____
ROOT
ATOM      1  C   LIG    1       25.131 -22.030   7.249  0.00  0.00    +0.167 C 
ATOM      2  O   LIG    1       24.509 -21.590   8.210  0.00  0.00    -0.292 OA
ENDROOT
BRANCH   1   6
ATOM      3  C   LIG    1       24.640 -26.196   6.200  0.00  0.00    -0.048 A 
ATOM      4  C   LIG    1       25.913 -25.682   6.449  0.00  0.00    +0.004 A 
ATOM      5  C   LIG    1       26.080 -24.339   6.782  0.00  0.00    +0.012 A 
ATOM      6  C   LIG    1       24.979 -23.477   6.872  0.00  0.00    +0.018 A 
ATOM      7  C   LIG    1       23.702 -23.988   6.603  0.00  0.00    +0.012 A 
ATOM      8  C   LIG    1       23.536 -25.338   6.269  0.00  0.00    +0.004 A 
BRANCH   3  10
ATOM      9  C   LIG    1       24.761 -28.568   7.010  0.00  0.00    +0.009 C 
ATOM     10  C   LIG    1       24.475 -27.648   5.835  0.00  0.00    +0.032 C 
ENDBRANCH   3  10
ENDBRANCH   1   6
BRANCH   1  11
ATOM     11  C   LIG    1       26.040 -21.143   6.393  0.00  0.00    +0.071 C 
ATOM     12  C   LIG    1       25.189 -20.189   5.555  0.00  0.00    +0.017 C 
BRANCH  11  13
ATOM     13  C   LIG    1       27.096 -20.432   7.257  0.00  0.00    +0.095 C 
BRANCH  13  14
ATOM     14  N   LIG    1       28.490 -20.825   6.958  0.00  0.00    -0.302 NA
ATOM     15  C   LIG    1       28.975 -20.175   5.727  0.00  0.00    +0.084 C 
ATOM     16  C   LIG    1       29.280 -18.684   5.894  0.00  0.00    +0.015 C 
ATOM     17  C   LIG    1       30.255 -18.445   7.042  0.00  0.00    +0.002 C 
ATOM     18  C   LIG    1       29.778 -19.137   8.314  0.00  0.00    +0.015 C 
ATOM     19  C   LIG    1       29.450 -20.609   8.051  0.00  0.00    +0.084 C 
ENDBRANCH  13  14
ENDBRANCH  11  13
ENDBRANCH   1  11
TORSDOF 5
ENDMDL
MODEL 9
REMARK VINA RESULT:      -7.8      4.115      5.979
REMARK  Name = *****
REMARK                            x       y       z     vdW  Elec       q    Type
REMARK                         _______ _______ _______ _____ _____    ______ ____
ROOT
ATOM      1  C   LIG    1       24.056 -23.602   6.628  0.00  0.00    +0.167 C 
ATOM      2  O   LIG    1       23.119 -24.378   6.786  0.00  0.00    -0.292 OA
ENDROOT
BRANCH   1   6
ATOM      3  C   LIG    1       23.343 -19.878   4.550  0.00  0.00    -0.048 A 
ATOM      4  C   LIG    1       24.102 -20.882   3.948  0.00  0.00    +0.004 A 
ATOM      5  C   LIG    1       24.341 -22.082   4.614  0.00  0.00    +0.012 A 
ATOM      6  C   LIG    1       23.828 -22.309   5.898  0.00  0.00    +0.018 A 
ATOM      7  C   LIG    1       23.082 -21.294   6.511  0.00  0.00    +0.012 A 
ATOM      8  C   LIG    1       22.842 -20.088   5.841  0.00  0.00    +0.004 A 
BRANCH   3  10
ATOM      9  C   LIG    1       22.102 -17.697   4.555  0.00  0.00    +0.009 C 
ATOM     10  C   LIG    1       23.097 -18.583   3.822  0.00  0.00    +0.032 C 
ENDBRANCH   3  10
ENDBRANCH   1   6
BRANCH   1  11
ATOM     11  C   LIG    1       25.454 -23.895   7.181  0.00  0.00    +0.071 C 
ATOM     12  C   LIG    1       25.845 -25.336   6.859  0.00  0.00    +0.017 C 
BRANCH  11  13
ATOM     13  C   LIG    1       26.475 -22.853   6.691  0.00  0.00    +0.095 C 
BRANCH  13  14
ATOM     14  N   LIG    1       26.645 -21.696   7.597  0.00  0.00    -0.302 NA
ATOM     15  C   LIG    1       27.985 -21.691   8.211  0.00  0.00    +0.084 C 
ATOM     16  C   LIG    1       29.104 -21.284   7.248  0.00  0.00    +0.015 C 
ATOM     17  C   LIG    1       28.810 -19.936   6.599  0.00  0.00    +0.002 C 
ATOM     18  C   LIG    1       27.415 -19.920   5.985  0.00  0.00    +0.015 C 
ATOM     19  C   LIG    1       26.364 -20.383   6.996  0.00  0.00    +0.084 C 
ENDBRANCH  13  14
ENDBRANCH  11  13
ENDBRANCH   1  11
TORSDOF 5
ENDMDL
