MODEL 1
REMARK VINA RESULT:      -9.0      0.000      0.000
REMARK  Name = *****
REMARK                            x       y       z     vdW  Elec       q    Type
REMARK                         _______ _______ _______ _____ _____    ______ ____
ROOT
ATOM      1  C   LIG    1       24.706 -22.835   5.349  0.00  0.00    +0.063 A 
ATOM      2  C   LIG    1       25.234 -23.331   6.563  0.00  0.00    +0.151 A 
ATOM      3  C   LIG    1       25.386 -24.794   6.450  0.00  0.00    +0.032 A 
ATOM      4  C   LIG    1       25.170 -25.293   5.209  0.00  0.00    +0.027 A 
ATOM      5  C   LIG    1       25.327 -26.682   4.854  0.00  0.00    +0.061 A 
ATOM      6  C   LIG    1       25.823 -27.540   5.866  0.00  0.00    +0.118 A 
ATOM      7  C   LIG    1       26.022 -27.117   7.087  0.00  0.00    +0.046 A 
ATOM      8  C   LIG    1       25.688 -25.793   7.449  0.00  0.00    +0.016 A 
ATOM      9  S   LIG    1       24.618 -24.074   4.155  0.00  0.00    -0.084 S 
ENDROOT
BRANCH   1  13
ATOM     10  C   LIG    1       23.358 -18.907   4.216  0.00  0.00    +0.120 A 
ATOM     11  C   LIG    1       22.600 -19.677   5.103  0.00  0.00    +0.046 A 
ATOM     12  C   LIG    1       23.042 -20.953   5.490  0.00  0.00    +0.012 A 
ATOM     13  C   LIG    1       24.235 -21.490   4.985  0.00  0.00    -0.007 A 
ATOM     14  C   LIG    1       24.956 -20.714   4.064  0.00  0.00    +0.012 A 
ATOM     15  C   LIG    1       24.516 -19.454   3.679  0.00  0.00    +0.046 A 
BRANCH  10  17
ATOM     16  C   LIG    1       22.057 -17.067   4.891  0.00  0.00    +0.277 C 
ATOM     17  O   LIG    1       22.903 -17.656   3.897  0.00  0.00    -0.495 OA
ENDBRANCH  10  17
ENDBRANCH   1  13
BRANCH   6  18
ATOM     18  O   LIG    1       26.018 -28.882   5.568  0.00  0.00    -0.507 OA
ATOM     19  H   LIG    1       25.203 -29.286   5.321  0.00  0.00    +0.292 HD
ENDBRANCH   6  18
BRANCH   2  20
ATOM     20  O   LIG    1       25.395 -22.498   7.644  0.00  0.00    -0.454 OA
BRANCH  20  21
ATOM     21  C   LIG    1       26.585 -21.803   7.976  0.00  0.00    +0.129 A 
ATOM     22  C   LIG    1       27.833 -22.282   7.491  0.00  0.00    +0.050 A 
ATOM     23  C   LIG    1       29.015 -21.449   7.362  0.00  0.00    +0.049 A 
ATOM     24  C   LIG    1       28.956 -20.083   7.638  0.00  0.00    +0.121 A 
ATOM     25  C   LIG    1       27.755 -19.687   8.189  0.00  0.00    +0.049 A 
ATOM     26  C   LIG    1       26.575 -20.480   8.382  0.00  0.00    +0.050 A 
BRANCH  24  27
ATOM     27  O   LIG    1       29.804 -19.191   6.955  0.00  0.00    -0.491 OA
BRANCH  27  28
ATOM     28  C   LIG    1       31.267 -19.141   7.165  0.00  0.00    +0.244 C 
BRANCH  28  29
ATOM     29  C   LIG    1       31.917 -18.278   8.346  0.00  0.00    +0.125 C 
BRANCH  29  30
ATOM     30  N   LIG    1       31.465 -16.981   8.899  0.00  0.00    -0.299 NA
ATOM     31  C   LIG    1       30.221 -17.063   9.672  0.00  0.00    +0.084 C 
ATOM     32  C   LIG    1       30.457 -17.622  11.022  0.00  0.00    +0.015 C 
ATOM     33  C   LIG    1       31.638 -16.912  11.622  0.00  0.00    +0.002 C 
ATOM     34  C   LIG    1       32.940 -16.631  10.830  0.00  0.00    +0.015 C 
ATOM     35  C   LIG    1       32.494 -16.116   9.503  0.00  0.00    +0.084 C 
ENDBRANCH  29  30
ENDBRANCH  28  29
ENDBRANCH  27  28
ENDBRANCH  24  27
ENDBRANCH  20  21
ENDBRANCH   2  20
TORSDOF 9
ENDMDL
MODEL 2
REMARK VINA RESULT:      -8.5      5.184      8.914
REMARK  Name = *****
REMARK                            x       y       z     vdW  Elec       q    Type
REMARK                         _______ _______ _______ _____ _____    ______ ____
ROOT
ATOM      1  C   LIG    1       25.806 -30.088   8.624  0.00  0.00    +0.063 A 
ATOM      2  C   LIG    1       25.211 -29.730   7.393  0.00  0.00    +0.151 A 
ATOM      3  C   LIG    1       25.661 -30.678   6.357  0.00  0.00    +0.032 A 
ATOM      4  C   LIG    1       26.364 -31.739   6.824  0.00  0.00    +0.027 A 
ATOM      5  C   LIG    1       26.844 -32.820   6.001  0.00  0.00    +0.061 A 
ATOM      6  C   LIG    1       26.468 -32.791   4.636  0.00  0.00    +0.118 A 
ATOM      7  C   LIG    1       25.816 -31.779   4.127  0.00  0.00    +0.046 A 
ATOM      8  C   LIG    1       25.515 -30.648   4.919  0.00  0.00    +0.016 A 
ATOM      9  S   LIG    1       26.663 -31.576   8.493  0.00  0.00    -0.084 S 
ENDROOT
BRANCH   1  13
ATOM     10  C   LIG    1       25.788 -28.145  12.466  0.00  0.00    +0.120 A 
ATOM     11  C   LIG    1       26.692 -27.736  11.480  0.00  0.00    +0.046 A 
ATOM     12  C   LIG    1       26.692 -28.354  10.219  0.00  0.00    +0.012 A 
ATOM     13  C   LIG    1       25.807 -29.402   9.926  0.00  0.00    -0.007 A 
ATOM     14  C   LIG    1       24.939 -29.821  10.946  0.00  0.00    +0.012 A 
ATOM     15  C   LIG    1       24.942 -29.212  12.194  0.00  0.00    +0.046 A 
BRANCH  10  17
ATOM     16  C   LIG    1       27.102 -27.377  14.259  0.00  0.00    +0.277 C 
ATOM     17  O   LIG    1       25.804 -27.488  13.667  0.00  0.00    -0.495 OA
ENDBRANCH  10  17
ENDBRANCH   1  13
BRANCH   6  18
ATOM     18  O   LIG    1       26.882 -33.823   3.806  0.00  0.00    -0.507 OA
ATOM     19  H   LIG    1       27.737 -34.126   4.059  0.00  0.00    +0.292 HD
ENDBRANCH   6  18
BRANCH   2  20
ATOM     20  O   LIG    1       24.473 -28.575   7.286  0.00  0.00    -0.454 OA
BRANCH  20  21
ATOM     21  C   LIG    1       24.885 -27.397   6.615  0.00  0.00    +0.129 A 
ATOM     22  C   LIG    1       23.929 -26.380   6.335  0.00  0.00    +0.050 A 
ATOM     23  C   LIG    1       24.283 -24.994   6.094  0.00  0.00    +0.049 A 
ATOM     24  C   LIG    1       25.607 -24.567   6.211  0.00  0.00    +0.121 A 
ATOM     25  C   LIG    1       26.502 -25.599   6.392  0.00  0.00    +0.049 A 
ATOM     26  C   LIG    1       26.207 -26.991   6.588  0.00  0.00    +0.050 A 
BRANCH  24  27
ATOM     27  O   LIG    1       25.886 -23.246   6.611  0.00  0.00    -0.491 OA
BRANCH  27  28
ATOM     28  C   LIG    1       24.919 -22.398   7.339  0.00  0.00    +0.244 C 
BRANCH  28  29
ATOM     29  C   LIG    1       23.956 -21.374   6.574  0.00  0.00    +0.125 C 
BRANCH  29  30
ATOM     30  N   LIG    1       23.427 -21.459   5.194  0.00  0.00    -0.299 NA
ATOM     31  C   LIG    1       22.232 -20.642   4.961  0.00  0.00    +0.084 C 
ATOM     32  C   LIG    1       22.576 -19.211   4.802  0.00  0.00    +0.015 C 
ATOM     33  C   LIG    1       23.722 -19.110   3.836  0.00  0.00    +0.002 C 
ATOM     34  C   LIG    1       24.959 -20.042   3.900  0.00  0.00    +0.015 C 
ATOM     35  C   LIG    1       24.410 -21.415   4.097  0.00  0.00    +0.084 C 
ENDBRANCH  29  30
ENDBRANCH  28  29
ENDBRANCH  27  28
ENDBRANCH  24  27
ENDBRANCH  20  21
ENDBRANCH   2  20
TORSDOF 9
ENDMDL
MODEL 3
REMARK VINA RESULT:      -8.1      3.656      9.483
REMARK  Name = *****
REMARK                            x       y       z     vdW  Elec       q    Type
REMARK                         _______ _______ _______ _____ _____    ______ ____
ROOT
ATOM      1  C   LIG    1       26.376 -20.294   5.981  0.00  0.00    +0.063 A 
ATOM      2  C   LIG    1       25.164 -20.904   6.379  0.00  0.00    +0.151 A 
ATOM      3  C   LIG    1       24.059 -20.314   5.599  0.00  0.00    +0.032 A 
ATOM      4  C   LIG    1       24.449 -19.491   4.596  0.00  0.00    +0.027 A 
ATOM      5  C   LIG    1       23.545 -18.859   3.668  0.00  0.00    +0.061 A 
ATOM      6  C   LIG    1       22.177 -19.207   3.782  0.00  0.00    +0.118 A 
ATOM      7  C   LIG    1       21.743 -19.974   4.747  0.00  0.00    +0.046 A 
ATOM      8  C   LIG    1       22.627 -20.434   5.749  0.00  0.00    +0.016 A 
ATOM      9  S   LIG    1       26.135 -19.250   4.633  0.00  0.00    -0.084 S 
ENDROOT
BRANCH   1  13
ATOM     10  C   LIG    1       30.363 -20.552   7.585  0.00  0.00    +0.120 A 
ATOM     11  C   LIG    1       29.355 -21.386   8.080  0.00  0.00    +0.046 A 
ATOM     12  C   LIG    1       28.056 -21.319   7.549  0.00  0.00    +0.012 A 
ATOM     13  C   LIG    1       27.734 -20.408   6.534  0.00  0.00    -0.007 A 
ATOM     14  C   LIG    1       28.754 -19.553   6.084  0.00  0.00    +0.012 A 
ATOM     15  C   LIG    1       30.037 -19.617   6.611  0.00  0.00    +0.046 A 
BRANCH  10  17
ATOM     16  C   LIG    1       31.746 -21.719   9.087  0.00  0.00    +0.277 C 
ATOM     17  O   LIG    1       31.621 -20.680   8.110  0.00  0.00    -0.495 OA
ENDBRANCH  10  17
ENDBRANCH   1  13
BRANCH   6  18
ATOM     18  O   LIG    1       21.268 -18.648   2.894  0.00  0.00    -0.507 OA
ATOM     19  H   LIG    1       21.571 -17.804   2.602  0.00  0.00    +0.292 HD
ENDBRANCH   6  18
BRANCH   2  20
ATOM     20  O   LIG    1       25.141 -21.783   7.436  0.00  0.00    -0.454 OA
BRANCH  20  21
ATOM     21  C   LIG    1       24.968 -23.186   7.333  0.00  0.00    +0.129 A 
ATOM     22  C   LIG    1       23.729 -23.706   6.866  0.00  0.00    +0.050 A 
ATOM     23  C   LIG    1       23.583 -25.030   6.290  0.00  0.00    +0.049 A 
ATOM     24  C   LIG    1       24.698 -25.845   6.087  0.00  0.00    +0.121 A 
ATOM     25  C   LIG    1       25.855 -25.336   6.637  0.00  0.00    +0.049 A 
ATOM     26  C   LIG    1       26.041 -24.055   7.259  0.00  0.00    +0.050 A 
BRANCH  24  27
ATOM     27  O   LIG    1       24.709 -26.768   5.025  0.00  0.00    -0.491 OA
BRANCH  27  28
ATOM     28  C   LIG    1       24.481 -28.218   5.208  0.00  0.00    +0.244 C 
BRANCH  28  29
ATOM     29  C   LIG    1       24.339 -28.868   6.664  0.00  0.00    +0.125 C 
BRANCH  29  30
ATOM     30  N   LIG    1       24.007 -30.266   7.022  0.00  0.00    -0.299 NA
ATOM     31  C   LIG    1       24.414 -31.252   6.016  0.00  0.00    +0.084 C 
ATOM     32  C   LIG    1       25.869 -31.522   6.077  0.00  0.00    +0.015 C 
ATOM     33  C   LIG    1       26.241 -31.756   7.514  0.00  0.00    +0.002 C 
ATOM     34  C   LIG    1       25.725 -30.863   8.671  0.00  0.00    +0.015 C 
ATOM     35  C   LIG    1       24.267 -30.680   8.412  0.00  0.00    +0.084 C 
ENDBRANCH  29  30
ENDBRANCH  28  29
ENDBRANCH  27  28
ENDBRANCH  24  27
ENDBRANCH  20  21
ENDBRANCH   2  20
TORSDOF 9
ENDMDL
MODEL 4
REMARK VINA RESULT:      -8.0      5.200     10.041
REMARK  Name = *****
REMARK                            x       y       z     vdW  Elec       q    Type
REMARK                         _______ _______ _______ _____ _____    ______ ____
ROOT
ATOM      1  C   LIG    1       25.039 -31.846   8.107  0.00  0.00    +0.063 A 
ATOM      2  C   LIG    1       24.465 -30.645   8.581  0.00  0.00    +0.151 A 
ATOM      3  C   LIG    1       24.325 -30.734  10.047  0.00  0.00    +0.032 A 
ATOM      4  C   LIG    1       24.915 -31.816  10.609  0.00  0.00    +0.027 A 
ATOM      5  C   LIG    1       24.960 -32.071  12.027  0.00  0.00    +0.061 A 
ATOM      6  C   LIG    1       24.422 -31.066  12.867  0.00  0.00    +0.118 A 
ATOM      7  C   LIG    1       23.817 -30.015  12.378  0.00  0.00    +0.046 A 
ATOM      8  C   LIG    1       23.629 -29.882  10.984  0.00  0.00    +0.016 A 
ATOM      9  S   LIG    1       25.523 -32.863   9.410  0.00  0.00    -0.084 S 
ENDROOT
BRANCH   1  13
ATOM     10  C   LIG    1       25.607 -33.243   4.075  0.00  0.00    +0.120 A 
ATOM     11  C   LIG    1       26.673 -32.663   4.770  0.00  0.00    +0.046 A 
ATOM     12  C   LIG    1       26.499 -32.220   6.092  0.00  0.00    +0.012 A 
ATOM     13  C   LIG    1       25.258 -32.329   6.735  0.00  0.00    -0.007 A 
ATOM     14  C   LIG    1       24.194 -32.877   6.001  0.00  0.00    +0.012 A 
ATOM     15  C   LIG    1       24.366 -33.311   4.693  0.00  0.00    +0.046 A 
BRANCH  10  17
ATOM     16  C   LIG    1       27.062 -33.226   2.227  0.00  0.00    +0.277 C 
ATOM     17  O   LIG    1       25.836 -33.691   2.801  0.00  0.00    -0.495 OA
ENDBRANCH  10  17
ENDBRANCH   1  13
BRANCH   6  18
ATOM     18  O   LIG    1       24.466 -31.249  14.242  0.00  0.00    -0.507 OA
ATOM     19  H   LIG    1       25.152 -30.727  14.622  0.00  0.00    +0.292 HD
ENDBRANCH   6  18
BRANCH   2  20
ATOM     20  O   LIG    1       24.019 -29.690   7.698  0.00  0.00    -0.454 OA
BRANCH  20  21
ATOM     21  C   LIG    1       24.845 -28.803   6.962  0.00  0.00    +0.129 A 
ATOM     22  C   LIG    1       24.593 -28.599   5.577  0.00  0.00    +0.050 A 
ATOM     23  C   LIG    1       25.034 -27.425   4.847  0.00  0.00    +0.049 A 
ATOM     24  C   LIG    1       25.672 -26.375   5.509  0.00  0.00    +0.121 A 
ATOM     25  C   LIG    1       25.973 -26.658   6.824  0.00  0.00    +0.049 A 
ATOM     26  C   LIG    1       25.602 -27.823   7.577  0.00  0.00    +0.050 A 
BRANCH  24  27
ATOM     27  O   LIG    1       25.533 -25.057   5.033  0.00  0.00    -0.491 OA
BRANCH  27  28
ATOM     28  C   LIG    1       25.321 -23.893   5.919  0.00  0.00    +0.244 C 
BRANCH  28  29
ATOM     29  C   LIG    1       24.511 -22.602   5.430  0.00  0.00    +0.125 C 
BRANCH  29  30
ATOM     30  N   LIG    1       24.617 -21.207   5.915  0.00  0.00    -0.299 NA
ATOM     31  C   LIG    1       25.521 -20.368   5.122  0.00  0.00    +0.084 C 
ATOM     32  C   LIG    1       24.891 -19.939   3.853  0.00  0.00    +0.015 C 
ATOM     33  C   LIG    1       23.513 -19.427   4.165  0.00  0.00    +0.002 C 
ATOM     34  C   LIG    1       22.541 -20.161   5.124  0.00  0.00    +0.015 C 
ATOM     35  C   LIG    1       23.365 -20.539   6.310  0.00  0.00    +0.084 C 
ENDBRANCH  29  30
ENDBRANCH  28  29
ENDBRANCH  27  28
ENDBRANCH  24  27
ENDBRANCH  20  21
ENDBRANCH   2  20
TORSDOF 9
ENDMDL
MODEL 5
REMARK VINA RESULT:      -7.7      4.942      9.629
REMARK  Name = *****
REMARK                            x       y       z     vdW  Elec       q    Type
REMARK                         _______ _______ _______ _____ _____    ______ ____
ROOT
ATOM      1  C   LIG    1       25.022 -31.813   8.201  0.00  0.00    +0.063 A 
ATOM      2  C   LIG    1       24.433 -30.608   8.645  0.00  0.00    +0.151 A 
ATOM      3  C   LIG    1       24.292 -30.662  10.112  0.00  0.00    +0.032 A 
ATOM      4  C   LIG    1       24.895 -31.723  10.702  0.00  0.00    +0.027 A 
ATOM      5  C   LIG    1       24.942 -31.941  12.126  0.00  0.00    +0.061 A 
ATOM      6  C   LIG    1       24.391 -30.921  12.940  0.00  0.00    +0.118 A 
ATOM      7  C   LIG    1       23.773 -29.892  12.424  0.00  0.00    +0.046 A 
ATOM      8  C   LIG    1       23.585 -29.795  11.027  0.00  0.00    +0.016 A 
ATOM      9  S   LIG    1       25.517 -32.791   9.530  0.00  0.00    -0.084 S 
ENDROOT
BRANCH   1  13
ATOM     10  C   LIG    1       25.614 -33.298   4.204  0.00  0.00    +0.120 A 
ATOM     11  C   LIG    1       26.696 -32.785   4.926  0.00  0.00    +0.046 A 
ATOM     12  C   LIG    1       26.514 -32.314   6.237  0.00  0.00    +0.012 A 
ATOM     13  C   LIG    1       25.248 -32.328   6.842  0.00  0.00    -0.007 A 
ATOM     14  C   LIG    1       24.172 -32.809   6.080  0.00  0.00    +0.012 A 
ATOM     15  C   LIG    1       24.352 -33.271   4.783  0.00  0.00    +0.046 A 
BRANCH  10  17
ATOM     16  C   LIG    1       26.846 -33.051   2.216  0.00  0.00    +0.277 C 
ATOM     17  O   LIG    1       25.849 -33.777   2.943  0.00  0.00    -0.495 OA
ENDBRANCH  10  17
ENDBRANCH   1  13
BRANCH   6  18
ATOM     18  O   LIG    1       24.436 -31.070  14.319  0.00  0.00    -0.507 OA
ATOM     19  H   LIG    1       24.234 -30.254  14.745  0.00  0.00    +0.292 HD
ENDBRANCH   6  18
BRANCH   2  20
ATOM     20  O   LIG    1       23.976 -29.681   7.738  0.00  0.00    -0.454 OA
BRANCH  20  21
ATOM     21  C   LIG    1       24.793 -28.835   6.947  0.00  0.00    +0.129 A 
ATOM     22  C   LIG    1       24.484 -28.650   5.571  0.00  0.00    +0.050 A 
ATOM     23  C   LIG    1       24.926 -27.505   4.798  0.00  0.00    +0.049 A 
ATOM     24  C   LIG    1       25.624 -26.461   5.407  0.00  0.00    +0.121 A 
ATOM     25  C   LIG    1       25.977 -26.728   6.713  0.00  0.00    +0.049 A 
ATOM     26  C   LIG    1       25.606 -27.866   7.507  0.00  0.00    +0.050 A 
BRANCH  24  27
ATOM     27  O   LIG    1       25.502 -25.150   4.910  0.00  0.00    -0.491 OA
BRANCH  27  28
ATOM     28  C   LIG    1       24.741 -24.088   5.602  0.00  0.00    +0.244 C 
BRANCH  28  29
ATOM     29  C   LIG    1       25.471 -22.966   6.480  0.00  0.00    +0.125 C 
BRANCH  29  30
ATOM     30  N   LIG    1       25.291 -21.497   6.437  0.00  0.00    -0.299 NA
ATOM     31  C   LIG    1       24.804 -20.919   7.693  0.00  0.00    +0.084 C 
ATOM     32  C   LIG    1       25.885 -20.814   8.698  0.00  0.00    +0.015 C 
ATOM     33  C   LIG    1       27.084 -20.198   8.034  0.00  0.00    +0.002 C 
ATOM     34  C   LIG    1       27.580 -20.631   6.630  0.00  0.00    +0.015 C 
ATOM     35  C   LIG    1       26.354 -20.713   5.784  0.00  0.00    +0.084 C 
ENDBRANCH  29  30
ENDBRANCH  28  29
ENDBRANCH  27  28
ENDBRANCH  24  27
ENDBRANCH  20  21
ENDBRANCH   2  20
TORSDOF 9
ENDMDL
MODEL 6
REMARK VINA RESULT:      -7.7      3.589      8.711
REMARK  Name = *****
REMARK                            x       y       z     vdW  Elec       q    Type
REMARK                         _______ _______ _______ _____ _____    ______ ____
ROOT
ATOM      1  C   LIG    1       26.661 -20.619   6.726  0.00  0.00    +0.063 A 
ATOM      2  C   LIG    1       27.065 -21.630   7.628  0.00  0.00    +0.151 A 
ATOM      3  C   LIG    1       28.487 -21.424   7.964  0.00  0.00    +0.032 A 
ATOM      4  C   LIG    1       29.017 -20.266   7.502  0.00  0.00    +0.027 A 
ATOM      5  C   LIG    1       30.365 -19.829   7.766  0.00  0.00    +0.061 A 
ATOM      6  C   LIG    1       31.133 -20.639   8.638  0.00  0.00    +0.118 A 
ATOM      7  C   LIG    1       30.680 -21.779   9.089  0.00  0.00    +0.046 A 
ATOM      8  C   LIG    1       29.424 -22.268   8.669  0.00  0.00    +0.016 A 
ATOM      9  S   LIG    1       27.902 -19.444   6.511  0.00  0.00    -0.084 S 
ENDROOT
BRANCH   1  13
ATOM     10  C   LIG    1       22.961 -20.075   4.594  0.00  0.00    +0.120 A 
ATOM     11  C   LIG    1       24.172 -20.100   3.896  0.00  0.00    +0.046 A 
ATOM     12  C   LIG    1       25.382 -20.294   4.583  0.00  0.00    +0.012 A 
ATOM     13  C   LIG    1       25.407 -20.445   5.977  0.00  0.00    -0.007 A 
ATOM     14  C   LIG    1       24.181 -20.374   6.659  0.00  0.00    +0.012 A 
ATOM     15  C   LIG    1       22.986 -20.179   5.979  0.00  0.00    +0.046 A 
BRANCH  10  17
ATOM     16  C   LIG    1       21.330 -18.569   3.816  0.00  0.00    +0.277 C 
ATOM     17  O   LIG    1       21.806 -19.918   3.876  0.00  0.00    -0.495 OA
ENDBRANCH  10  17
ENDBRANCH   1  13
BRANCH   6  18
ATOM     18  O   LIG    1       32.428 -20.248   8.947  0.00  0.00    -0.507 OA
ATOM     19  H   LIG    1       32.422 -19.601   9.632  0.00  0.00    +0.292 HD
ENDBRANCH   6  18
BRANCH   2  20
ATOM     20  O   LIG    1       26.213 -22.662   7.944  0.00  0.00    -0.454 OA
BRANCH  20  21
ATOM     21  C   LIG    1       25.668 -23.588   7.020  0.00  0.00    +0.129 A 
ATOM     22  C   LIG    1       26.459 -24.686   6.581  0.00  0.00    +0.050 A 
ATOM     23  C   LIG    1       25.899 -25.908   6.034  0.00  0.00    +0.049 A 
ATOM     24  C   LIG    1       24.517 -26.100   5.992  0.00  0.00    +0.121 A 
ATOM     25  C   LIG    1       23.797 -24.978   6.342  0.00  0.00    +0.049 A 
ATOM     26  C   LIG    1       24.304 -23.731   6.841  0.00  0.00    +0.050 A 
BRANCH  24  27
ATOM     27  O   LIG    1       23.985 -27.400   6.090  0.00  0.00    -0.491 OA
BRANCH  27  28
ATOM     28  C   LIG    1       24.437 -28.527   5.246  0.00  0.00    +0.244 C 
BRANCH  28  29
ATOM     29  C   LIG    1       25.103 -29.837   5.880  0.00  0.00    +0.125 C 
BRANCH  29  30
ATOM     30  N   LIG    1       24.597 -30.689   6.981  0.00  0.00    -0.299 NA
ATOM     31  C   LIG    1       25.264 -31.992   7.081  0.00  0.00    +0.084 C 
ATOM     32  C   LIG    1       26.599 -31.871   7.711  0.00  0.00    +0.015 C 
ATOM     33  C   LIG    1       26.457 -31.032   8.949  0.00  0.00    +0.002 C 
ATOM     34  C   LIG    1       25.633 -29.720   8.984  0.00  0.00    +0.015 C 
ATOM     35  C   LIG    1       24.357 -30.034   8.278  0.00  0.00    +0.084 C 
ENDBRANCH  29  30
ENDBRANCH  28  29
ENDBRANCH  27  28
ENDBRANCH  24  27
ENDBRANCH  20  21
ENDBRANCH   2  20
TORSDOF 9
ENDMDL
MODEL 7
REMARK VINA RESULT:      -7.6      3.845      9.738
REMARK  Name = *****
REMARK                            x       y       z     vdW  Elec       q    Type
REMARK                         _______ _______ _______ _____ _____    ______ ____
ROOT
ATOM      1  C   LIG    1       26.145 -20.555   5.974  0.00  0.00    +0.063 A 
ATOM      2  C   LIG    1       25.043 -21.430   6.118  0.00  0.00    +0.151 A 
ATOM      3  C   LIG    1       23.858 -20.804   5.502  0.00  0.00    +0.032 A 
ATOM      4  C   LIG    1       24.113 -19.668   4.807  0.00  0.00    +0.027 A 
ATOM      5  C   LIG    1       23.119 -18.928   4.071  0.00  0.00    +0.061 A 
ATOM      6  C   LIG    1       21.822 -19.493   4.015  0.00  0.00    +0.118 A 
ATOM      7  C   LIG    1       21.515 -20.571   4.689  0.00  0.00    +0.046 A 
ATOM      8  C   LIG    1       22.462 -21.174   5.546  0.00  0.00    +0.016 A 
ATOM      9  S   LIG    1       25.741 -19.202   4.989  0.00  0.00    -0.084 S 
ENDROOT
BRANCH   1  13
ATOM     10  C   LIG    1       30.138 -20.690   7.577  0.00  0.00    +0.120 A 
ATOM     11  C   LIG    1       29.150 -21.538   8.088  0.00  0.00    +0.046 A 
ATOM     12  C   LIG    1       27.850 -21.511   7.559  0.00  0.00    +0.012 A 
ATOM     13  C   LIG    1       27.506 -20.627   6.526  0.00  0.00    -0.007 A 
ATOM     14  C   LIG    1       28.505 -19.757   6.060  0.00  0.00    +0.012 A 
ATOM     15  C   LIG    1       29.789 -19.781   6.586  0.00  0.00    +0.046 A 
BRANCH  10  17
ATOM     16  C   LIG    1       31.547 -21.787   9.108  0.00  0.00    +0.277 C 
ATOM     17  O   LIG    1       31.399 -20.778   8.103  0.00  0.00    -0.495 OA
ENDBRANCH  10  17
ENDBRANCH   1  13
BRANCH   6  18
ATOM     18  O   LIG    1       20.835 -18.834   3.296  0.00  0.00    -0.507 OA
ATOM     19  H   LIG    1       19.993 -18.964   3.698  0.00  0.00    +0.292 HD
ENDBRANCH   6  18
BRANCH   2  20
ATOM     20  O   LIG    1       25.160 -22.579   6.863  0.00  0.00    -0.454 OA
BRANCH  20  21
ATOM     21  C   LIG    1       25.126 -23.899   6.347  0.00  0.00    +0.129 A 
ATOM     22  C   LIG    1       26.290 -24.712   6.429  0.00  0.00    +0.050 A 
ATOM     23  C   LIG    1       26.259 -26.162   6.375  0.00  0.00    +0.049 A 
ATOM     24  C   LIG    1       25.044 -26.846   6.322  0.00  0.00    +0.121 A 
ATOM     25  C   LIG    1       23.955 -26.017   6.152  0.00  0.00    +0.049 A 
ATOM     26  C   LIG    1       23.939 -24.581   6.150  0.00  0.00    +0.050 A 
BRANCH  24  27
ATOM     27  O   LIG    1       24.934 -28.129   6.890  0.00  0.00    -0.491 OA
BRANCH  27  28
ATOM     28  C   LIG    1       24.173 -29.231   6.264  0.00  0.00    +0.244 C 
BRANCH  28  29
ATOM     29  C   LIG    1       24.851 -30.646   5.945  0.00  0.00    +0.125 C 
BRANCH  29  30
ATOM     30  N   LIG    1       24.801 -31.894   6.741  0.00  0.00    -0.299 NA
ATOM     31  C   LIG    1       25.834 -32.870   6.382  0.00  0.00    +0.084 C 
ATOM     32  C   LIG    1       27.152 -32.497   6.944  0.00  0.00    +0.015 C 
ATOM     33  C   LIG    1       26.960 -32.143   8.392  0.00  0.00    +0.002 C 
ATOM     34  C   LIG    1       25.796 -31.248   8.890  0.00  0.00    +0.015 C 
ATOM     35  C   LIG    1       24.579 -31.754   8.191  0.00  0.00    +0.084 C 
ENDBRANCH  29  30
ENDBRANCH  28  29
ENDBRANCH  27  28
ENDBRANCH  24  27
ENDBRANCH  20  21
ENDBRANCH   2  20
TORSDOF 9
ENDMDL
MODEL 8
REMARK VINA RESULT:      -7.6      5.628     10.249
REMARK  Name = *****
REMARK                            x       y       z     vdW  Elec       q    Type
REMARK                         _______ _______ _______ _____ _____    ______ ____
ROOT
ATOM      1  C   LIG    1       23.667 -29.352  11.879  0.00  0.00    +0.063 A 
ATOM      2  C   LIG    1       25.002 -29.066  11.511  0.00  0.00    +0.151 A 
ATOM      3  C   LIG    1       25.462 -27.890  12.274  0.00  0.00    +0.032 A 
ATOM      4  C   LIG    1       24.611 -27.475  13.244  0.00  0.00    +0.027 A 
ATOM      5  C   LIG    1       24.885 -26.390  14.153  0.00  0.00    +0.061 A 
ATOM      6  C   LIG    1       26.167 -25.795  14.059  0.00  0.00    +0.118 A 
ATOM      7  C   LIG    1       27.015 -26.138  13.125  0.00  0.00    +0.046 A 
ATOM      8  C   LIG    1       26.649 -27.079  12.137  0.00  0.00    +0.016 A 
ATOM      9  S   LIG    1       23.155 -28.357  13.189  0.00  0.00    -0.084 S 
ENDROOT
BRANCH   1  13
ATOM     10  C   LIG    1       20.887 -32.226  10.287  0.00  0.00    +0.120 A 
ATOM     11  C   LIG    1       20.440 -30.955  10.659  0.00  0.00    +0.046 A 
ATOM     12  C   LIG    1       21.345 -30.006  11.164  0.00  0.00    +0.012 A 
ATOM     13  C   LIG    1       22.703 -30.314  11.325  0.00  0.00    -0.007 A 
ATOM     14  C   LIG    1       23.118 -31.611  10.982  0.00  0.00    +0.012 A 
ATOM     15  C   LIG    1       22.222 -32.550  10.487  0.00  0.00    +0.046 A 
BRANCH  10  17
ATOM     16  C   LIG    1       18.614 -32.663   9.865  0.00  0.00    +0.277 C 
ATOM     17  O   LIG    1       19.973 -33.104   9.767  0.00  0.00    -0.495 OA
ENDBRANCH  10  17
ENDBRANCH   1  13
BRANCH   6  18
ATOM     18  O   LIG    1       26.491 -24.764  14.930  0.00  0.00    -0.507 OA
ATOM     19  H   LIG    1       26.457 -23.934  14.484  0.00  0.00    +0.292 HD
ENDBRANCH   6  18
BRANCH   2  20
ATOM     20  O   LIG    1       25.605 -29.758  10.488  0.00  0.00    -0.454 OA
BRANCH  20  21
ATOM     21  C   LIG    1       25.686 -29.325   9.141  0.00  0.00    +0.129 A 
ATOM     22  C   LIG    1       24.693 -29.740   8.212  0.00  0.00    +0.050 A 
ATOM     23  C   LIG    1       24.401 -29.029   6.981  0.00  0.00    +0.049 A 
ATOM     24  C   LIG    1       25.042 -27.826   6.685  0.00  0.00    +0.121 A 
ATOM     25  C   LIG    1       26.056 -27.515   7.566  0.00  0.00    +0.049 A 
ATOM     26  C   LIG    1       26.416 -28.211   8.769  0.00  0.00    +0.050 A 
BRANCH  24  27
ATOM     27  O   LIG    1       24.382 -26.847   5.918  0.00  0.00    -0.491 OA
BRANCH  27  28
ATOM     28  C   LIG    1       25.094 -25.805   5.148  0.00  0.00    +0.244 C 
BRANCH  28  29
ATOM     29  C   LIG    1       25.065 -24.267   5.591  0.00  0.00    +0.125 C 
BRANCH  29  30
ATOM     30  N   LIG    1       24.608 -23.684   6.873  0.00  0.00    -0.299 NA
ATOM     31  C   LIG    1       25.640 -22.918   7.580  0.00  0.00    +0.084 C 
ATOM     32  C   LIG    1       25.834 -21.581   6.975  0.00  0.00    +0.015 C 
ATOM     33  C   LIG    1       24.481 -20.959   6.771  0.00  0.00    +0.002 C 
ATOM     34  C   LIG    1       23.279 -21.739   6.181  0.00  0.00    +0.015 C 
ATOM     35  C   LIG    1       23.276 -23.055   6.885  0.00  0.00    +0.084 C 
ENDBRANCH  29  30
ENDBRANCH  28  29
ENDBRANCH  27  28
ENDBRANCH  24  27
ENDBRANCH  20  21
ENDBRANCH   2  20
TORSDOF 9
ENDMDL
MODEL 9
REMARK VINA RESULT:      -7.6      5.573      9.637
REMARK  Name = *****
REMARK                            x       y       z     vdW  Elec       q    Type
REMARK                         _______ _______ _______ _____ _____    ______ ____
ROOT
ATOM      1  C   LIG    1       23.606 -29.354  11.639  0.00  0.00    +0.063 A 
ATOM      2  C   LIG    1       23.987 -30.150  10.535  0.00  0.00    +0.151 A 
ATOM      3  C   LIG    1       22.979 -31.211  10.346  0.00  0.00    +0.032 A 
ATOM      4  C   LIG    1       21.872 -31.085  11.117  0.00  0.00    +0.027 A 
ATOM      5  C   LIG    1       20.734 -31.967  11.052  0.00  0.00    +0.061 A 
ATOM      6  C   LIG    1       20.766 -32.967  10.049  0.00  0.00    +0.118 A 
ATOM      7  C   LIG    1       21.819 -33.150   9.297  0.00  0.00    +0.046 A 
ATOM      8  C   LIG    1       22.989 -32.386   9.506  0.00  0.00    +0.016 A 
ATOM      9  S   LIG    1       22.046 -29.797  12.218  0.00  0.00    -0.084 S 
ENDROOT
BRANCH   1  13
ATOM     10  C   LIG    1       25.639 -26.183  13.724  0.00  0.00    +0.120 A 
ATOM     11  C   LIG    1       26.373 -27.117  12.986  0.00  0.00    +0.046 A 
ATOM     12  C   LIG    1       25.715 -28.144  12.290  0.00  0.00    +0.012 A 
ATOM     13  C   LIG    1       24.319 -28.270  12.333  0.00  0.00    -0.007 A 
ATOM     14  C   LIG    1       23.610 -27.345  13.115  0.00  0.00    +0.012 A 
ATOM     15  C   LIG    1       24.261 -26.332  13.806  0.00  0.00    +0.046 A 
BRANCH  10  17
ATOM     16  C   LIG    1       25.487 -24.180  14.946  0.00  0.00    +0.277 C 
ATOM     17  O   LIG    1       26.324 -25.180  14.357  0.00  0.00    -0.495 OA
ENDBRANCH  10  17
ENDBRANCH   1  13
BRANCH   6  18
ATOM     18  O   LIG    1       19.682 -33.825   9.926  0.00  0.00    -0.507 OA
ATOM     19  H   LIG    1       19.118 -33.544   9.225  0.00  0.00    +0.292 HD
ENDBRANCH   6  18
BRANCH   2  20
ATOM     20  O   LIG    1       25.200 -29.951   9.918  0.00  0.00    -0.454 OA
BRANCH  20  21
ATOM     21  C   LIG    1       25.386 -29.348   8.649  0.00  0.00    +0.129 A 
ATOM     22  C   LIG    1       24.442 -29.592   7.613  0.00  0.00    +0.050 A 
ATOM     23  C   LIG    1       24.258 -28.712   6.474  0.00  0.00    +0.049 A 
ATOM     24  C   LIG    1       24.960 -27.510   6.383  0.00  0.00    +0.121 A 
ATOM     25  C   LIG    1       25.924 -27.364   7.358  0.00  0.00    +0.049 A 
ATOM     26  C   LIG    1       26.178 -28.228   8.477  0.00  0.00    +0.050 A 
BRANCH  24  27
ATOM     27  O   LIG    1       24.388 -26.410   5.716  0.00  0.00    -0.491 OA
BRANCH  27  28
ATOM     28  C   LIG    1       25.186 -25.309   5.136  0.00  0.00    +0.244 C 
BRANCH  28  29
ATOM     29  C   LIG    1       25.102 -23.817   5.711  0.00  0.00    +0.125 C 
BRANCH  29  30
ATOM     30  N   LIG    1       24.423 -23.337   6.936  0.00  0.00    -0.299 NA
ATOM     31  C   LIG    1       25.214 -22.383   7.720  0.00  0.00    +0.084 C 
ATOM     32  C   LIG    1       25.196 -21.033   7.112  0.00  0.00    +0.015 C 
ATOM     33  C   LIG    1       23.772 -20.691   6.776  0.00  0.00    +0.002 C 
ATOM     34  C   LIG    1       22.806 -21.694   6.093  0.00  0.00    +0.015 C 
ATOM     35  C   LIG    1       22.998 -22.984   6.817  0.00  0.00    +0.084 C 
ENDBRANCH  29  30
ENDBRANCH  28  29
ENDBRANCH  27  28
ENDBRANCH  24  27
ENDBRANCH  20  21
ENDBRANCH   2  20
TORSDOF 9
ENDMDL
