MODEL 1
REMARK VINA RESULT:      -8.9      0.000      0.000
REMARK  Name = *****
REMARK                            x       y       z     vdW  Elec       q    Type
REMARK                         _______ _______ _______ _____ _____    ______ ____
ROOT
ATOM      1  O   LIG    1       26.468 -20.897   6.420  0.00  0.00    -0.458 OA
ENDROOT
BRANCH   1   3
ATOM      2  C   LIG    1       24.314 -22.006   6.907  0.00  0.00    +0.032 C 
ATOM      3  C   LIG    1       25.036 -20.765   6.299  0.00  0.00    +0.180 C 
ATOM      4  C   LIG    1       24.643 -20.534   4.834  0.00  0.00    +0.048 C 
ATOM      5  C   LIG    1       23.128 -20.412   4.618  0.00  0.00    -0.011 C 
ATOM      6  C   LIG    1       22.593 -19.047   5.070  0.00  0.00    +0.007 C 
ATOM      7  C   LIG    1       22.371 -21.560   5.297  0.00  0.00    +0.004 C 
ATOM      8  C   LIG    1       22.792 -21.781   6.752  0.00  0.00    +0.007 C 
BRANCH   2  10
ATOM      9  C   LIG    1       25.980 -23.986   7.125  0.00  0.00    +0.007 C 
ATOM     10  C   LIG    1       24.753 -23.427   6.398  0.00  0.00    -0.011 C 
ATOM     11  C   LIG    1       23.621 -24.459   6.561  0.00  0.00    +0.007 C 
ENDBRANCH   2  10
ENDBRANCH   1   3
BRANCH   1  12
ATOM     12  C   LIG    1       27.040 -20.437   7.569  0.00  0.00    +0.341 C 
ATOM     13  O   LIG    1       26.488 -20.299   8.644  0.00  0.00    -0.245 OA
BRANCH  12  14
ATOM     14  C   LIG    1       28.469 -20.080   7.313  0.00  0.00    +0.080 A 
ATOM     15  C   LIG    1       28.821 -19.330   6.171  0.00  0.00    +0.039 A 
ATOM     16  C   LIG    1       30.180 -19.040   5.956  0.00  0.00    +0.023 A 
ATOM     17  C   LIG    1       31.157 -19.418   6.882  0.00  0.00    +0.002 A 
ATOM     18  C   LIG    1       30.796 -20.117   8.026  0.00  0.00    +0.001 A 
ATOM     19  C   LIG    1       29.457 -20.443   8.242  0.00  0.00    +0.017 A 
BRANCH  15  20
ATOM     20  N   LIG    1       27.917 -19.068   5.122  0.00  0.00    -0.357 N 
ATOM     21  H   LIG    1       28.395 -18.827   4.249  0.00  0.00    +0.142 HD
ATOM     22  H   LIG    1       27.221 -19.793   4.984  0.00  0.00    +0.142 HD
ENDBRANCH  15  20
ENDBRANCH  12  14
ENDBRANCH   1  12
TORSDOF 5
ENDMDL
MODEL 2
REMARK VINA RESULT:      -8.6      1.370      1.735
REMARK  Name = *****
REMARK                            x       y       z     vdW  Elec       q    Type
REMARK                         _______ _______ _______ _____ _____    ______ ____
ROOT
ATOM      1  O   LIG    1       26.642 -21.836   6.533  0.00  0.00    -0.458 OA
ENDROOT
BRANCH   1   3
ATOM      2  C   LIG    1       24.463 -22.916   6.975  0.00  0.00    +0.032 C 
ATOM      3  C   LIG    1       25.214 -21.625   6.525  0.00  0.00    +0.180 C 
ATOM      4  C   LIG    1       24.754 -21.147   5.141  0.00  0.00    +0.048 C 
ATOM      5  C   LIG    1       23.237 -20.927   5.044  0.00  0.00    -0.011 C 
ATOM      6  C   LIG    1       22.800 -19.630   5.737  0.00  0.00    +0.007 C 
ATOM      7  C   LIG    1       22.460 -22.136   5.581  0.00  0.00    +0.004 C 
ATOM      8  C   LIG    1       22.949 -22.604   6.954  0.00  0.00    +0.007 C 
BRANCH   2  10
ATOM      9  C   LIG    1       26.044 -24.965   6.762  0.00  0.00    +0.007 C 
ATOM     10  C   LIG    1       24.799 -24.254   6.222  0.00  0.00    -0.011 C 
ATOM     11  C   LIG    1       23.633 -25.256   6.308  0.00  0.00    +0.007 C 
ENDBRANCH   2  10
ENDBRANCH   1   3
BRANCH   1  12
ATOM     12  C   LIG    1       27.331 -21.386   7.620  0.00  0.00    +0.341 C 
ATOM     13  O   LIG    1       27.074 -21.624   8.785  0.00  0.00    -0.245 OA
BRANCH  12  14
ATOM     14  C   LIG    1       28.456 -20.508   7.176  0.00  0.00    +0.080 A 
ATOM     15  C   LIG    1       29.750 -20.684   7.711  0.00  0.00    +0.039 A 
ATOM     16  C   LIG    1       30.772 -19.819   7.284  0.00  0.00    +0.023 A 
ATOM     17  C   LIG    1       30.541 -18.853   6.301  0.00  0.00    +0.002 A 
ATOM     18  C   LIG    1       29.275 -18.716   5.746  0.00  0.00    +0.001 A 
ATOM     19  C   LIG    1       28.239 -19.543   6.179  0.00  0.00    +0.017 A 
BRANCH  15  20
ATOM     20  N   LIG    1       30.010 -21.517   8.818  0.00  0.00    -0.357 N 
ATOM     21  H   LIG    1       29.520 -21.204   9.662  0.00  0.00    +0.142 HD
ATOM     22  H   LIG    1       29.860 -22.504   8.639  0.00  0.00    +0.142 HD
ENDBRANCH  15  20
ENDBRANCH  12  14
ENDBRANCH   1  12
TORSDOF 5
ENDMDL
MODEL 3
REMARK VINA RESULT:      -7.9      2.239      6.566
REMARK  Name = *****
REMARK                            x       y       z     vdW  Elec       q    Type
REMARK                         _______ _______ _______ _____ _____    ______ ____
ROOT
ATOM      1  O   LIG    1       27.378 -21.839   7.402  0.00  0.00    -0.458 OA
ENDROOT
BRANCH   1   3
ATOM      2  C   LIG    1       28.552 -19.665   7.346  0.00  0.00    +0.032 C 
ATOM      3  C   LIG    1       28.487 -21.099   7.955  0.00  0.00    +0.180 C 
ATOM      4  C   LIG    1       29.799 -21.869   7.749  0.00  0.00    +0.048 C 
ATOM      5  C   LIG    1       31.033 -21.130   8.287  0.00  0.00    -0.011 C 
ATOM      6  C   LIG    1       31.125 -21.206   9.816  0.00  0.00    +0.007 C 
ATOM      7  C   LIG    1       31.074 -19.677   7.796  0.00  0.00    +0.004 C 
ATOM      8  C   LIG    1       29.750 -18.936   7.998  0.00  0.00    +0.007 C 
BRANCH   2  10
ATOM      9  C   LIG    1       27.180 -19.659   5.141  0.00  0.00    +0.007 C 
ATOM     10  C   LIG    1       28.567 -19.538   5.779  0.00  0.00    -0.011 C 
ATOM     11  C   LIG    1       29.155 -18.187   5.330  0.00  0.00    +0.007 C 
ENDBRANCH   2  10
ENDBRANCH   1   3
BRANCH   1  12
ATOM     12  C   LIG    1       26.239 -21.902   8.148  0.00  0.00    +0.341 C 
ATOM     13  O   LIG    1       26.017 -21.293   9.177  0.00  0.00    -0.245 OA
BRANCH  12  14
ATOM     14  C   LIG    1       25.287 -22.876   7.532  0.00  0.00    +0.080 A 
ATOM     15  C   LIG    1       23.941 -22.514   7.315  0.00  0.00    +0.039 A 
ATOM     16  C   LIG    1       23.074 -23.470   6.757  0.00  0.00    +0.023 A 
ATOM     17  C   LIG    1       23.541 -24.726   6.358  0.00  0.00    +0.002 A 
ATOM     18  C   LIG    1       24.878 -25.058   6.534  0.00  0.00    +0.001 A 
ATOM     19  C   LIG    1       25.747 -24.135   7.115  0.00  0.00    +0.017 A 
BRANCH  15  20
ATOM     20  N   LIG    1       23.372 -21.339   7.845  0.00  0.00    -0.357 N 
ATOM     21  H   LIG    1       23.081 -21.455   8.821  0.00  0.00    +0.142 HD
ATOM     22  H   LIG    1       23.942 -20.509   7.718  0.00  0.00    +0.142 HD
ENDBRANCH  15  20
ENDBRANCH  12  14
ENDBRANCH   1  12
TORSDOF 5
ENDMDL
MODEL 4
REMARK VINA RESULT:      -7.9      1.175      3.072
REMARK  Name = *****
REMARK                            x       y       z     vdW  Elec       q    Type
REMARK                         _______ _______ _______ _____ _____    ______ ____
ROOT
ATOM      1  O   LIG    1       26.231 -20.835   6.748  0.00  0.00    -0.458 OA
ENDROOT
BRANCH   1   3
ATOM      2  C   LIG    1       24.417 -22.011   5.551  0.00  0.00    +0.032 C 
ATOM      3  C   LIG    1       25.776 -22.131   6.306  0.00  0.00    +0.180 C 
ATOM      4  C   LIG    1       25.689 -23.100   7.493  0.00  0.00    +0.048 C 
ATOM      5  C   LIG    1       25.184 -24.497   7.107  0.00  0.00    -0.011 C 
ATOM      6  C   LIG    1       26.265 -25.322   6.398  0.00  0.00    +0.007 C 
ATOM      7  C   LIG    1       23.902 -24.417   6.267  0.00  0.00    +0.004 C 
ATOM      8  C   LIG    1       24.008 -23.433   5.099  0.00  0.00    +0.007 C 
BRANCH   2  10
ATOM      9  C   LIG    1       23.585 -20.830   7.708  0.00  0.00    +0.007 C 
ATOM     10  C   LIG    1       23.242 -21.265   6.281  0.00  0.00    -0.011 C 
ATOM     11  C   LIG    1       22.815 -20.000   5.513  0.00  0.00    +0.007 C 
ENDBRANCH   2  10
ENDBRANCH   1   3
BRANCH   1  12
ATOM     12  C   LIG    1       27.053 -20.144   5.907  0.00  0.00    +0.341 C 
ATOM     13  O   LIG    1       26.755 -19.690   4.820  0.00  0.00    -0.245 OA
BRANCH  12  14
ATOM     14  C   LIG    1       28.421 -20.050   6.505  0.00  0.00    +0.080 A 
ATOM     15  C   LIG    1       29.304 -19.027   6.100  0.00  0.00    +0.039 A 
ATOM     16  C   LIG    1       30.589 -18.991   6.669  0.00  0.00    +0.023 A 
ATOM     17  C   LIG    1       30.966 -19.897   7.664  0.00  0.00    +0.002 A 
ATOM     18  C   LIG    1       30.074 -20.872   8.090  0.00  0.00    +0.001 A 
ATOM     19  C   LIG    1       28.806 -20.945   7.515  0.00  0.00    +0.017 A 
BRANCH  15  20
ATOM     20  N   LIG    1       29.051 -18.196   4.990  0.00  0.00    -0.357 N 
ATOM     21  H   LIG    1       28.557 -18.691   4.240  0.00  0.00    +0.142 HD
ATOM     22  H   LIG    1       28.600 -17.318   5.224  0.00  0.00    +0.142 HD
ENDBRANCH  15  20
ENDBRANCH  12  14
ENDBRANCH   1  12
TORSDOF 5
ENDMDL
MODEL 5
REMARK VINA RESULT:      -7.9      1.214      2.877
REMARK  Name = *****
REMARK                            x       y       z     vdW  Elec       q    Type
REMARK                         _______ _______ _______ _____ _____    ______ ____
ROOT
ATOM      1  O   LIG    1       26.554 -20.523   6.208  0.00  0.00    -0.458 OA
ENDROOT
BRANCH   1   3
ATOM      2  C   LIG    1       24.773 -20.595   4.495  0.00  0.00    +0.032 C 
ATOM      3  C   LIG    1       25.297 -21.142   5.858  0.00  0.00    +0.180 C 
ATOM      4  C   LIG    1       24.275 -20.947   6.986  0.00  0.00    +0.048 C 
ATOM      5  C   LIG    1       22.899 -21.555   6.676  0.00  0.00    -0.011 C 
ATOM      6  C   LIG    1       22.902 -23.082   6.820  0.00  0.00    +0.007 C 
ATOM      7  C   LIG    1       22.396 -21.126   5.292  0.00  0.00    +0.004 C 
ATOM      8  C   LIG    1       23.439 -21.315   4.187  0.00  0.00    +0.007 C 
BRANCH   2  10
ATOM      9  C   LIG    1       25.600 -18.453   3.282  0.00  0.00    +0.007 C 
ATOM     10  C   LIG    1       24.651 -19.036   4.334  0.00  0.00    -0.011 C 
ATOM     11  C   LIG    1       23.223 -18.621   3.934  0.00  0.00    +0.007 C 
ENDBRANCH   2  10
ENDBRANCH   1   3
BRANCH   1  12
ATOM     12  C   LIG    1       27.454 -21.286   6.890  0.00  0.00    +0.341 C 
ATOM     13  O   LIG    1       27.255 -22.391   7.357  0.00  0.00    -0.245 OA
BRANCH  12  14
ATOM     14  C   LIG    1       28.746 -20.544   7.022  0.00  0.00    +0.080 A 
ATOM     15  C   LIG    1       29.029 -19.454   6.173  0.00  0.00    +0.039 A 
ATOM     16  C   LIG    1       30.267 -18.802   6.314  0.00  0.00    +0.023 A 
ATOM     17  C   LIG    1       31.169 -19.171   7.315  0.00  0.00    +0.002 A 
ATOM     18  C   LIG    1       30.863 -20.217   8.176  0.00  0.00    +0.001 A 
ATOM     19  C   LIG    1       29.654 -20.897   8.032  0.00  0.00    +0.017 A 
BRANCH  15  20
ATOM     20  N   LIG    1       28.245 -19.143   5.044  0.00  0.00    -0.357 N 
ATOM     21  H   LIG    1       27.267 -18.961   5.289  0.00  0.00    +0.142 HD
ATOM     22  H   LIG    1       28.631 -18.407   4.461  0.00  0.00    +0.142 HD
ENDBRANCH  15  20
ENDBRANCH  12  14
ENDBRANCH   1  12
TORSDOF 5
ENDMDL
MODEL 6
REMARK VINA RESULT:      -7.8      2.649      5.285
REMARK  Name = *****
REMARK                            x       y       z     vdW  Elec       q    Type
REMARK                         _______ _______ _______ _____ _____    ______ ____
ROOT
ATOM      1  O   LIG    1       25.562 -21.579   6.431  0.00  0.00    -0.458 OA
ENDROOT
BRANCH   1   3
ATOM      2  C   LIG    1       25.325 -20.352   4.299  0.00  0.00    +0.032 C 
ATOM      3  C   LIG    1       24.610 -21.137   5.441  0.00  0.00    +0.180 C 
ATOM      4  C   LIG    1       23.501 -20.306   6.101  0.00  0.00    +0.048 C 
ATOM      5  C   LIG    1       22.461 -19.773   5.105  0.00  0.00    -0.011 C 
ATOM      6  C   LIG    1       21.490 -20.870   4.648  0.00  0.00    +0.007 C 
ATOM      7  C   LIG    1       23.131 -19.087   3.907  0.00  0.00    +0.004 C 
ATOM      8  C   LIG    1       24.244 -19.929   3.277  0.00  0.00    +0.007 C 
BRANCH   2  10
ATOM      9  C   LIG    1       27.657 -19.576   5.139  0.00  0.00    +0.007 C 
ATOM     10  C   LIG    1       26.250 -19.149   4.710  0.00  0.00    -0.011 C 
ATOM     11  C   LIG    1       26.414 -18.145   3.554  0.00  0.00    +0.007 C 
ENDBRANCH   2  10
ENDBRANCH   1   3
BRANCH   1  12
ATOM     12  C   LIG    1       25.100 -22.403   7.414  0.00  0.00    +0.341 C 
ATOM     13  O   LIG    1       24.810 -22.079   8.550  0.00  0.00    -0.245 OA
BRANCH  12  14
ATOM     14  C   LIG    1       25.029 -23.806   6.903  0.00  0.00    +0.080 A 
ATOM     15  C   LIG    1       23.793 -24.354   6.497  0.00  0.00    +0.039 A 
ATOM     16  C   LIG    1       23.769 -25.686   6.048  0.00  0.00    +0.023 A 
ATOM     17  C   LIG    1       24.944 -26.433   5.933  0.00  0.00    +0.002 A 
ATOM     18  C   LIG    1       26.162 -25.872   6.293  0.00  0.00    +0.001 A 
ATOM     19  C   LIG    1       26.204 -24.563   6.771  0.00  0.00    +0.017 A 
BRANCH  15  20
ATOM     20  N   LIG    1       22.560 -23.718   6.746  0.00  0.00    -0.357 N 
ATOM     21  H   LIG    1       22.634 -22.995   7.468  0.00  0.00    +0.142 HD
ATOM     22  H   LIG    1       22.096 -23.373   5.912  0.00  0.00    +0.142 HD
ENDBRANCH  15  20
ENDBRANCH  12  14
ENDBRANCH   1  12
TORSDOF 5
ENDMDL
MODEL 7
REMARK VINA RESULT:      -7.6      1.198      1.731
REMARK  Name = *****
REMARK                            x       y       z     vdW  Elec       q    Type
REMARK                         _______ _______ _______ _____ _____    ______ ____
ROOT
ATOM      1  O   LIG    1       26.534 -21.053   5.990  0.00  0.00    -0.458 OA
ENDROOT
BRANCH   1   3
ATOM      2  C   LIG    1       24.407 -22.008   6.811  0.00  0.00    +0.032 C 
ATOM      3  C   LIG    1       25.106 -20.848   6.038  0.00  0.00    +0.180 C 
ATOM      4  C   LIG    1       24.543 -20.683   4.620  0.00  0.00    +0.048 C 
ATOM      5  C   LIG    1       23.020 -20.489   4.584  0.00  0.00    -0.011 C 
ATOM      6  C   LIG    1       22.614 -19.071   5.007  0.00  0.00    +0.007 C 
ATOM      7  C   LIG    1       22.300 -21.550   5.426  0.00  0.00    +0.004 C 
ATOM      8  C   LIG    1       22.890 -21.707   6.830  0.00  0.00    +0.007 C 
BRANCH   2  10
ATOM      9  C   LIG    1       25.908 -24.112   7.060  0.00  0.00    +0.007 C 
ATOM     10  C   LIG    1       24.710 -23.479   6.347  0.00  0.00    -0.011 C 
ATOM     11  C   LIG    1       23.501 -24.404   6.585  0.00  0.00    +0.007 C 
ENDBRANCH   2  10
ENDBRANCH   1   3
BRANCH   1  12
ATOM     12  C   LIG    1       27.305 -19.983   5.645  0.00  0.00    +0.341 C 
ATOM     13  O   LIG    1       27.034 -19.139   4.812  0.00  0.00    -0.245 OA
BRANCH  12  14
ATOM     14  C   LIG    1       28.580 -20.007   6.425  0.00  0.00    +0.080 A 
ATOM     15  C   LIG    1       28.731 -20.893   7.513  0.00  0.00    +0.039 A 
ATOM     16  C   LIG    1       29.937 -20.864   8.235  0.00  0.00    +0.023 A 
ATOM     17  C   LIG    1       30.993 -20.034   7.848  0.00  0.00    +0.002 A 
ATOM     18  C   LIG    1       30.852 -19.197   6.748  0.00  0.00    +0.001 A 
ATOM     19  C   LIG    1       29.652 -19.188   6.038  0.00  0.00    +0.017 A 
BRANCH  15  20
ATOM     20  N   LIG    1       27.656 -21.626   8.054  0.00  0.00    -0.357 N 
ATOM     21  H   LIG    1       26.767 -21.121   7.982  0.00  0.00    +0.142 HD
ATOM     22  H   LIG    1       27.581 -22.574   7.702  0.00  0.00    +0.142 HD
ENDBRANCH  15  20
ENDBRANCH  12  14
ENDBRANCH   1  12
TORSDOF 5
ENDMDL
MODEL 8
REMARK VINA RESULT:      -7.4      1.877      6.494
REMARK  Name = *****
REMARK                            x       y       z     vdW  Elec       q    Type
REMARK                         _______ _______ _______ _____ _____    ______ ____
ROOT
ATOM      1  O   LIG    1       27.300 -21.620   7.800  0.00  0.00    -0.458 OA
ENDROOT
BRANCH   1   3
ATOM      2  C   LIG    1       28.598 -19.557   7.385  0.00  0.00    +0.032 C 
ATOM      3  C   LIG    1       28.501 -20.906   8.162  0.00  0.00    +0.180 C 
ATOM      4  C   LIG    1       29.736 -21.789   7.935  0.00  0.00    +0.048 C 
ATOM      5  C   LIG    1       31.059 -21.088   8.272  0.00  0.00    -0.011 C 
ATOM      6  C   LIG    1       31.292 -20.998   9.785  0.00  0.00    +0.007 C 
ATOM      7  C   LIG    1       31.146 -19.705   7.611  0.00  0.00    +0.004 C 
ATOM      8  C   LIG    1       29.896 -18.851   7.838  0.00  0.00    +0.007 C 
BRANCH   2  10
ATOM      9  C   LIG    1       27.032 -19.779   5.325  0.00  0.00    +0.007 C 
ATOM     10  C   LIG    1       28.472 -19.608   5.819  0.00  0.00    -0.011 C 
ATOM     11  C   LIG    1       29.024 -18.327   5.168  0.00  0.00    +0.007 C 
ENDBRANCH   2  10
ENDBRANCH   1   3
BRANCH   1  12
ATOM     12  C   LIG    1       26.144 -21.247   8.419  0.00  0.00    +0.341 C 
ATOM     13  O   LIG    1       26.051 -20.696   9.500  0.00  0.00    -0.245 OA
BRANCH  12  14
ATOM     14  C   LIG    1       24.972 -21.650   7.583  0.00  0.00    +0.080 A 
ATOM     15  C   LIG    1       24.809 -22.994   7.188  0.00  0.00    +0.039 A 
ATOM     16  C   LIG    1       23.706 -23.323   6.380  0.00  0.00    +0.023 A 
ATOM     17  C   LIG    1       22.750 -22.365   6.034  0.00  0.00    +0.002 A 
ATOM     18  C   LIG    1       22.894 -21.053   6.466  0.00  0.00    +0.001 A 
ATOM     19  C   LIG    1       23.998 -20.699   7.241  0.00  0.00    +0.017 A 
BRANCH  15  20
ATOM     20  N   LIG    1       25.816 -23.966   7.357  0.00  0.00    -0.357 N 
ATOM     21  H   LIG    1       25.475 -24.796   7.852  0.00  0.00    +0.142 HD
ATOM     22  H   LIG    1       26.304 -24.211   6.502  0.00  0.00    +0.142 HD
ENDBRANCH  15  20
ENDBRANCH  12  14
ENDBRANCH   1  12
TORSDOF 5
ENDMDL
MODEL 9
REMARK VINA RESULT:      -7.4      2.403      5.212
REMARK  Name = *****
REMARK                            x       y       z     vdW  Elec       q    Type
REMARK                         _______ _______ _______ _____ _____    ______ ____
ROOT
ATOM      1  O   LIG    1       23.573 -21.459   5.298  0.00  0.00    -0.458 OA
ENDROOT
BRANCH   1   3
ATOM      2  C   LIG    1       25.083 -23.158   6.269  0.00  0.00    +0.032 C 
ATOM      3  C   LIG    1       24.764 -21.641   6.093  0.00  0.00    +0.180 C 
ATOM      4  C   LIG    1       24.620 -20.925   7.443  0.00  0.00    +0.048 C 
ATOM      5  C   LIG    1       25.839 -21.097   8.360  0.00  0.00    -0.011 C 
ATOM      6  C   LIG    1       27.017 -20.219   7.919  0.00  0.00    +0.007 C 
ATOM      7  C   LIG    1       26.253 -22.571   8.472  0.00  0.00    +0.004 C 
ATOM      8  C   LIG    1       26.374 -23.267   7.114  0.00  0.00    +0.007 C 
BRANCH   2  10
ATOM      9  C   LIG    1       22.534 -23.504   6.626  0.00  0.00    +0.007 C 
ATOM     10  C   LIG    1       23.939 -24.084   6.820  0.00  0.00    -0.011 C 
ATOM     11  C   LIG    1       23.956 -25.465   6.139  0.00  0.00    +0.007 C 
ENDBRANCH   2  10
ENDBRANCH   1   3
BRANCH   1  12
ATOM     12  C   LIG    1       23.730 -20.912   4.060  0.00  0.00    +0.341 C 
ATOM     13  O   LIG    1       24.035 -21.505   3.043  0.00  0.00    -0.245 OA
BRANCH  12  14
ATOM     14  C   LIG    1       23.504 -19.435   4.128  0.00  0.00    +0.080 A 
ATOM     15  C   LIG    1       24.505 -18.542   3.691  0.00  0.00    +0.039 A 
ATOM     16  C   LIG    1       24.261 -17.162   3.798  0.00  0.00    +0.023 A 
ATOM     17  C   LIG    1       23.033 -16.677   4.256  0.00  0.00    +0.002 A 
ATOM     18  C   LIG    1       22.036 -17.564   4.642  0.00  0.00    +0.001 A 
ATOM     19  C   LIG    1       22.270 -18.937   4.574  0.00  0.00    +0.017 A 
BRANCH  15  20
ATOM     20  N   LIG    1       25.816 -18.958   3.382  0.00  0.00    -0.357 N 
ATOM     21  H   LIG    1       26.090 -19.796   3.905  0.00  0.00    +0.142 HD
ATOM     22  H   LIG    1       25.996 -19.056   2.389  0.00  0.00    +0.142 HD
ENDBRANCH  15  20
ENDBRANCH  12  14
ENDBRANCH   1  12
TORSDOF 5
ENDMDL
