MODEL 1
REMARK VINA RESULT:      -8.8      0.000      0.000
REMARK  Name = *****
REMARK                            x       y       z     vdW  Elec       q    Type
REMARK                         _______ _______ _______ _____ _____    ______ ____
ROOT
ATOM      1  C   LIG    1       25.965 -23.799   7.265  0.00  0.00    +0.044 C 
ATOM      2  C   LIG    1       24.495 -23.538   7.032  0.00  0.00    -0.050 C 
ATOM      3  C   LIG    1       23.680 -24.333   6.299  0.00  0.00    +0.003 C 
ENDROOT
BRANCH   3   4
ATOM      4  C   LIG    1       24.030 -25.655   5.822  0.00  0.00    +0.001 C 
ATOM      5  C   LIG    1       24.420 -26.707   6.572  0.00  0.00    +0.003 C 
BRANCH   5   6
ATOM      6  C   LIG    1       24.817 -28.008   6.031  0.00  0.00    -0.052 C 
ATOM      7  C   LIG    1       24.243 -29.160   6.435  0.00  0.00    +0.004 C 
ATOM      8  C   LIG    1       25.894 -27.939   4.975  0.00  0.00    +0.043 C 
BRANCH   7   9
ATOM      9  C   LIG    1       24.545 -30.557   6.009  0.00  0.00    +0.183 C 
BRANCH   9  10
ATOM     10  O   LIG    1       23.310 -31.228   5.781  0.00  0.00    -0.391 OA
ATOM     11  H   LIG    1       23.260 -31.424   4.830  0.00  0.00    +0.210 HD
ENDBRANCH   9  10
ENDBRANCH   7   9
ENDBRANCH   5   6
ENDBRANCH   3   4
BRANCH   2  12
ATOM     12  C   LIG    1       23.955 -22.290   7.561  0.00  0.00    +0.003 C 
ATOM     13  C   LIG    1       23.855 -21.058   7.024  0.00  0.00    +0.004 C 
BRANCH  13  14
ATOM     14  C   LIG    1       24.283 -20.470   5.747  0.00  0.00    -0.043 C 
ATOM     15  C   LIG    1       23.135 -20.021   4.797  0.00  0.00    -0.010 C 
ATOM     16  C   LIG    1       22.099 -21.141   4.567  0.00  0.00    +0.016 C 
ATOM     17  C   LIG    1       22.403 -18.795   5.398  0.00  0.00    +0.016 C 
ATOM     18  C   LIG    1       23.663 -19.628   3.388  0.00  0.00    +0.011 C 
ATOM     19  C   LIG    1       24.893 -18.746   3.462  0.00  0.00    +0.005 C 
ATOM     20  C   LIG    1       26.008 -19.491   4.179  0.00  0.00    +0.031 C 
ATOM     21  C   LIG    1       25.581 -20.185   5.461  0.00  0.00    -0.069 C 
ATOM     22  C   LIG    1       26.755 -20.455   6.369  0.00  0.00    +0.039 C 
ENDBRANCH  13  14
ENDBRANCH   2  12
TORSDOF 6
ENDMDL
MODEL 2
REMARK VINA RESULT:      -8.8      5.327      8.337
REMARK  Name = *****
REMARK                            x       y       z     vdW  Elec       q    Type
REMARK                         _______ _______ _______ _____ _____    ______ ____
ROOT
ATOM      1  C   LIG    1       26.295 -20.324   8.792  0.00  0.00    +0.044 C 
ATOM      2  C   LIG    1       27.314 -20.960   7.877  0.00  0.00    -0.050 C 
ATOM      3  C   LIG    1       28.531 -20.437   7.598  0.00  0.00    +0.003 C 
ENDROOT
BRANCH   3   4
ATOM      4  C   LIG    1       29.126 -19.318   8.301  0.00  0.00    +0.001 C 
ATOM      5  C   LIG    1       30.409 -19.210   8.705  0.00  0.00    +0.003 C 
BRANCH   5   6
ATOM      6  C   LIG    1       30.946 -18.078   9.463  0.00  0.00    -0.052 C 
ATOM      7  C   LIG    1       32.196 -17.609   9.267  0.00  0.00    +0.004 C 
ATOM      8  C   LIG    1       29.976 -17.476  10.452  0.00  0.00    +0.043 C 
BRANCH   7   9
ATOM      9  C   LIG    1       32.898 -16.494   9.965  0.00  0.00    +0.183 C 
BRANCH   9  10
ATOM     10  O   LIG    1       32.921 -15.370   9.091  0.00  0.00    -0.391 OA
ATOM     11  H   LIG    1       32.576 -15.665   8.232  0.00  0.00    +0.210 HD
ENDBRANCH   9  10
ENDBRANCH   7   9
ENDBRANCH   5   6
ENDBRANCH   3   4
BRANCH   2  12
ATOM     12  C   LIG    1       26.905 -22.175   7.178  0.00  0.00    +0.003 C 
ATOM     13  C   LIG    1       25.900 -22.416   6.313  0.00  0.00    +0.004 C 
BRANCH  13  14
ATOM     14  C   LIG    1       24.806 -21.597   5.775  0.00  0.00    -0.043 C 
ATOM     15  C   LIG    1       23.386 -21.938   6.315  0.00  0.00    -0.010 C 
ATOM     16  C   LIG    1       23.061 -23.441   6.189  0.00  0.00    +0.016 C 
ATOM     17  C   LIG    1       23.281 -21.539   7.808  0.00  0.00    +0.016 C 
ATOM     18  C   LIG    1       22.269 -21.190   5.532  0.00  0.00    +0.011 C 
ATOM     19  C   LIG    1       22.602 -19.727   5.316  0.00  0.00    +0.005 C 
ATOM     20  C   LIG    1       23.884 -19.613   4.507  0.00  0.00    +0.031 C 
ATOM     21  C   LIG    1       25.013 -20.512   4.983  0.00  0.00    -0.069 C 
ATOM     22  C   LIG    1       26.358 -20.017   4.514  0.00  0.00    +0.039 C 
ENDBRANCH  13  14
ENDBRANCH   2  12
TORSDOF 6
ENDMDL
MODEL 3
REMARK VINA RESULT:      -8.4      1.404      3.086
REMARK  Name = *****
REMARK                            x       y       z     vdW  Elec       q    Type
REMARK                         _______ _______ _______ _____ _____    ______ ____
ROOT
ATOM      1  C   LIG    1       24.415 -23.065   4.563  0.00  0.00    +0.044 C 
ATOM      2  C   LIG    1       23.812 -23.001   5.946  0.00  0.00    -0.050 C 
ATOM      3  C   LIG    1       23.435 -24.080   6.672  0.00  0.00    +0.003 C 
ENDROOT
BRANCH   3   4
ATOM      4  C   LIG    1       23.755 -25.451   6.335  0.00  0.00    +0.001 C 
ATOM      5  C   LIG    1       24.979 -26.020   6.345  0.00  0.00    +0.003 C 
BRANCH   5   6
ATOM      6  C   LIG    1       25.255 -27.400   5.941  0.00  0.00    -0.052 C 
ATOM      7  C   LIG    1       24.500 -28.437   6.358  0.00  0.00    +0.004 C 
ATOM      8  C   LIG    1       26.431 -27.549   5.005  0.00  0.00    +0.043 C 
BRANCH   7   9
ATOM      9  C   LIG    1       24.659 -29.890   6.063  0.00  0.00    +0.183 C 
BRANCH   9  10
ATOM     10  O   LIG    1       23.386 -30.408   5.689  0.00  0.00    -0.391 OA
ATOM     11  H   LIG    1       23.352 -31.332   5.989  0.00  0.00    +0.210 HD
ENDBRANCH   9  10
ENDBRANCH   7   9
ENDBRANCH   5   6
ENDBRANCH   3   4
BRANCH   2  12
ATOM     12  C   LIG    1       23.536 -21.672   6.485  0.00  0.00    +0.003 C 
ATOM     13  C   LIG    1       24.346 -20.629   6.755  0.00  0.00    +0.004 C 
BRANCH  13  14
ATOM     14  C   LIG    1       25.798 -20.424   6.674  0.00  0.00    -0.043 C 
ATOM     15  C   LIG    1       26.611 -20.888   7.918  0.00  0.00    -0.010 C 
ATOM     16  C   LIG    1       26.047 -20.308   9.231  0.00  0.00    +0.016 C 
ATOM     17  C   LIG    1       26.587 -22.434   8.016  0.00  0.00    +0.016 C 
ATOM     18  C   LIG    1       28.096 -20.430   7.849  0.00  0.00    +0.011 C 
ATOM     19  C   LIG    1       28.708 -20.673   6.483  0.00  0.00    +0.005 C 
ATOM     20  C   LIG    1       27.936 -19.887   5.435  0.00  0.00    +0.031 C 
ATOM     21  C   LIG    1       26.425 -20.007   5.543  0.00  0.00    -0.069 C 
ATOM     22  C   LIG    1       25.743 -19.662   4.242  0.00  0.00    +0.039 C 
ENDBRANCH  13  14
ENDBRANCH   2  12
TORSDOF 6
ENDMDL
MODEL 4
REMARK VINA RESULT:      -7.3      1.213      2.045
REMARK  Name = *****
REMARK                            x       y       z     vdW  Elec       q    Type
REMARK                         _______ _______ _______ _____ _____    ______ ____
ROOT
ATOM      1  C   LIG    1       25.164 -24.338   5.083  0.00  0.00    +0.044 C 
ATOM      2  C   LIG    1       25.779 -24.491   6.454  0.00  0.00    -0.050 C 
ATOM      3  C   LIG    1       25.895 -25.666   7.117  0.00  0.00    +0.003 C 
ENDROOT
BRANCH   3   4
ATOM      4  C   LIG    1       25.661 -26.969   6.530  0.00  0.00    +0.001 C 
ATOM      5  C   LIG    1       25.032 -28.014   7.108  0.00  0.00    +0.003 C 
BRANCH   5   6
ATOM      6  C   LIG    1       24.871 -29.331   6.489  0.00  0.00    -0.052 C 
ATOM      7  C   LIG    1       24.330 -30.375   7.150  0.00  0.00    +0.004 C 
ATOM      8  C   LIG    1       25.335 -29.403   5.053  0.00  0.00    +0.043 C 
BRANCH   7   9
ATOM      9  C   LIG    1       24.121 -31.774   6.679  0.00  0.00    +0.183 C 
BRANCH   9  10
ATOM     10  O   LIG    1       23.144 -31.752   5.644  0.00  0.00    -0.391 OA
ATOM     11  H   LIG    1       22.344 -31.338   6.011  0.00  0.00    +0.210 HD
ENDBRANCH   9  10
ENDBRANCH   7   9
ENDBRANCH   5   6
ENDBRANCH   3   4
BRANCH   2  12
ATOM     12  C   LIG    1       26.183 -23.266   7.137  0.00  0.00    +0.003 C 
ATOM     13  C   LIG    1       25.772 -21.990   7.005  0.00  0.00    +0.004 C 
BRANCH  13  14
ATOM     14  C   LIG    1       24.818 -21.318   6.112  0.00  0.00    -0.043 C 
ATOM     15  C   LIG    1       23.322 -21.424   6.528  0.00  0.00    -0.010 C 
ATOM     16  C   LIG    1       22.894 -22.883   6.793  0.00  0.00    +0.016 C 
ATOM     17  C   LIG    1       23.074 -20.601   7.817  0.00  0.00    +0.016 C 
ATOM     18  C   LIG    1       22.369 -20.892   5.421  0.00  0.00    +0.011 C 
ATOM     19  C   LIG    1       22.842 -19.572   4.844  0.00  0.00    +0.005 C 
ATOM     20  C   LIG    1       24.215 -19.756   4.218  0.00  0.00    +0.031 C 
ATOM     21  C   LIG    1       25.203 -20.523   5.080  0.00  0.00    -0.069 C 
ATOM     22  C   LIG    1       26.630 -20.245   4.676  0.00  0.00    +0.039 C 
ENDBRANCH  13  14
ENDBRANCH   2  12
TORSDOF 6
ENDMDL
MODEL 5
REMARK VINA RESULT:      -7.0      3.112      9.407
REMARK  Name = *****
REMARK                            x       y       z     vdW  Elec       q    Type
REMARK                         _______ _______ _______ _____ _____    ______ ____
ROOT
ATOM      1  C   LIG    1       26.187 -27.776   5.096  0.00  0.00    +0.044 C 
ATOM      2  C   LIG    1       24.792 -27.601   5.646  0.00  0.00    -0.050 C 
ATOM      3  C   LIG    1       24.334 -26.473   6.238  0.00  0.00    +0.003 C 
ENDROOT
BRANCH   3   4
ATOM      4  C   LIG    1       25.026 -25.200   6.231  0.00  0.00    +0.001 C 
ATOM      5  C   LIG    1       24.552 -24.021   6.683  0.00  0.00    +0.003 C 
BRANCH   5   6
ATOM      6  C   LIG    1       25.275 -22.750   6.600  0.00  0.00    -0.052 C 
ATOM      7  C   LIG    1       24.917 -21.773   5.741  0.00  0.00    +0.004 C 
ATOM      8  C   LIG    1       26.425 -22.625   7.571  0.00  0.00    +0.043 C 
BRANCH   7   9
ATOM      9  C   LIG    1       25.555 -20.445   5.515  0.00  0.00    +0.183 C 
BRANCH   9  10
ATOM     10  O   LIG    1       26.274 -20.502   4.287  0.00  0.00    -0.391 OA
ATOM     11  H   LIG    1       27.143 -20.096   4.443  0.00  0.00    +0.210 HD
ENDBRANCH   9  10
ENDBRANCH   7   9
ENDBRANCH   5   6
ENDBRANCH   3   4
BRANCH   2  12
ATOM     12  C   LIG    1       23.919 -28.771   5.616  0.00  0.00    +0.003 C 
ATOM     13  C   LIG    1       24.103 -30.037   6.042  0.00  0.00    +0.004 C 
BRANCH  13  14
ATOM     14  C   LIG    1       25.238 -30.750   6.643  0.00  0.00    -0.043 C 
ATOM     15  C   LIG    1       25.366 -30.623   8.190  0.00  0.00    -0.010 C 
ATOM     16  C   LIG    1       25.331 -29.153   8.658  0.00  0.00    +0.016 C 
ATOM     17  C   LIG    1       24.206 -31.384   8.878  0.00  0.00    +0.016 C 
ATOM     18  C   LIG    1       26.709 -31.208   8.714  0.00  0.00    +0.011 C 
ATOM     19  C   LIG    1       27.028 -32.555   8.094  0.00  0.00    +0.005 C 
ATOM     20  C   LIG    1       27.152 -32.402   6.586  0.00  0.00    +0.031 C 
ATOM     21  C   LIG    1       26.038 -31.594   5.941  0.00  0.00    -0.069 C 
ATOM     22  C   LIG    1       25.914 -31.892   4.467  0.00  0.00    +0.039 C 
ENDBRANCH  13  14
ENDBRANCH   2  12
TORSDOF 6
ENDMDL
MODEL 6
REMARK VINA RESULT:      -7.0      1.016      1.424
REMARK  Name = *****
REMARK                            x       y       z     vdW  Elec       q    Type
REMARK                         _______ _______ _______ _____ _____    ______ ____
ROOT
ATOM      1  C   LIG    1       22.557 -23.890   6.719  0.00  0.00    +0.044 C 
ATOM      2  C   LIG    1       23.746 -23.077   7.173  0.00  0.00    -0.050 C 
ATOM      3  C   LIG    1       25.002 -23.563   7.311  0.00  0.00    +0.003 C 
ENDROOT
BRANCH   3   4
ATOM      4  C   LIG    1       25.441 -24.859   6.835  0.00  0.00    +0.001 C 
ATOM      5  C   LIG    1       24.782 -26.030   6.959  0.00  0.00    +0.003 C 
BRANCH   5   6
ATOM      6  C   LIG    1       25.298 -27.324   6.507  0.00  0.00    -0.052 C 
ATOM      7  C   LIG    1       25.079 -27.790   5.260  0.00  0.00    +0.004 C 
ATOM      8  C   LIG    1       26.111 -28.064   7.543  0.00  0.00    +0.043 C 
BRANCH   7   9
ATOM      9  C   LIG    1       25.507 -29.084   4.655  0.00  0.00    +0.183 C 
BRANCH   9  10
ATOM     10  O   LIG    1       24.589 -30.091   5.067  0.00  0.00    -0.391 OA
ATOM     11  H   LIG    1       23.853 -29.643   5.517  0.00  0.00    +0.210 HD
ENDBRANCH   9  10
ENDBRANCH   7   9
ENDBRANCH   5   6
ENDBRANCH   3   4
BRANCH   2  12
ATOM     12  C   LIG    1       23.488 -21.698   7.577  0.00  0.00    +0.003 C 
ATOM     13  C   LIG    1       23.626 -20.531   6.919  0.00  0.00    +0.004 C 
BRANCH  13  14
ATOM     14  C   LIG    1       24.126 -20.171   5.585  0.00  0.00    -0.043 C 
ATOM     15  C   LIG    1       23.043 -19.719   4.562  0.00  0.00    -0.010 C 
ATOM     16  C   LIG    1       21.882 -20.730   4.459  0.00  0.00    +0.016 C 
ATOM     17  C   LIG    1       22.460 -18.347   4.984  0.00  0.00    +0.016 C 
ATOM     18  C   LIG    1       23.620 -19.580   3.125  0.00  0.00    +0.011 C 
ATOM     19  C   LIG    1       24.947 -18.846   3.108  0.00  0.00    +0.005 C 
ATOM     20  C   LIG    1       25.962 -19.617   3.937  0.00  0.00    +0.031 C 
ATOM     21  C   LIG    1       25.449 -20.080   5.290  0.00  0.00    -0.069 C 
ATOM     22  C   LIG    1       26.580 -20.365   6.248  0.00  0.00    +0.039 C 
ENDBRANCH  13  14
ENDBRANCH   2  12
TORSDOF 6
ENDMDL
MODEL 7
REMARK VINA RESULT:      -6.8      5.064      8.337
REMARK  Name = *****
REMARK                            x       y       z     vdW  Elec       q    Type
REMARK                         _______ _______ _______ _____ _____    ______ ____
ROOT
ATOM      1  C   LIG    1       26.382 -20.525   7.783  0.00  0.00    +0.044 C 
ATOM      2  C   LIG    1       27.137 -20.244   6.505  0.00  0.00    -0.050 C 
ATOM      3  C   LIG    1       28.379 -19.708   6.448  0.00  0.00    +0.003 C 
ENDROOT
BRANCH   3   4
ATOM      4  C   LIG    1       29.255 -19.537   7.588  0.00  0.00    +0.001 C 
ATOM      5  C   LIG    1       29.752 -18.373   8.057  0.00  0.00    +0.003 C 
BRANCH   5   6
ATOM      6  C   LIG    1       30.681 -18.262   9.184  0.00  0.00    -0.052 C 
ATOM      7  C   LIG    1       30.616 -17.249  10.072  0.00  0.00    +0.004 C 
ATOM      8  C   LIG    1       31.687 -19.385   9.272  0.00  0.00    +0.043 C 
BRANCH   7   9
ATOM      9  C   LIG    1       31.493 -16.977  11.247  0.00  0.00    +0.183 C 
BRANCH   9  10
ATOM     10  O   LIG    1       30.925 -15.899  11.984  0.00  0.00    -0.391 OA
ATOM     11  H   LIG    1       30.383 -16.287  12.691  0.00  0.00    +0.210 HD
ENDBRANCH   9  10
ENDBRANCH   7   9
ENDBRANCH   5   6
ENDBRANCH   3   4
BRANCH   2  12
ATOM     12  C   LIG    1       26.426 -20.482   5.253  0.00  0.00    +0.003 C 
ATOM     13  C   LIG    1       25.315 -21.192   4.975  0.00  0.00    +0.004 C 
BRANCH  13  14
ATOM     14  C   LIG    1       24.421 -22.035   5.781  0.00  0.00    -0.043 C 
ATOM     15  C   LIG    1       23.040 -21.405   6.128  0.00  0.00    -0.010 C 
ATOM     16  C   LIG    1       23.181 -20.000   6.751  0.00  0.00    +0.016 C 
ATOM     17  C   LIG    1       22.177 -21.288   4.847  0.00  0.00    +0.016 C 
ATOM     18  C   LIG    1       22.255 -22.258   7.166  0.00  0.00    +0.011 C 
ATOM     19  C   LIG    1       22.285 -23.737   6.833  0.00  0.00    +0.005 C 
ATOM     20  C   LIG    1       23.725 -24.226   6.833  0.00  0.00    +0.031 C 
ATOM     21  C   LIG    1       24.695 -23.332   6.079  0.00  0.00    -0.069 C 
ATOM     22  C   LIG    1       25.943 -24.077   5.674  0.00  0.00    +0.039 C 
ENDBRANCH  13  14
ENDBRANCH   2  12
TORSDOF 6
ENDMDL
MODEL 8
REMARK VINA RESULT:      -6.7      4.902      8.282
REMARK  Name = *****
REMARK                            x       y       z     vdW  Elec       q    Type
REMARK                         _______ _______ _______ _____ _____    ______ ____
ROOT
ATOM      1  C   LIG    1       26.114 -20.362   7.380  0.00  0.00    +0.044 C 
ATOM      2  C   LIG    1       26.990 -20.340   6.150  0.00  0.00    -0.050 C 
ATOM      3  C   LIG    1       28.298 -19.992   6.144  0.00  0.00    +0.003 C 
ENDROOT
BRANCH   3   4
ATOM      4  C   LIG    1       29.108 -19.811   7.331  0.00  0.00    +0.001 C 
ATOM      5  C   LIG    1       29.527 -18.639   7.851  0.00  0.00    +0.003 C 
BRANCH   5   6
ATOM      6  C   LIG    1       30.393 -18.515   9.025  0.00  0.00    -0.052 C 
ATOM      7  C   LIG    1       30.160 -17.611   9.999  0.00  0.00    +0.004 C 
ATOM      8  C   LIG    1       31.539 -19.498   9.058  0.00  0.00    +0.043 C 
BRANCH   7   9
ATOM      9  C   LIG    1       30.950 -17.340  11.234  0.00  0.00    +0.183 C 
BRANCH   9  10
ATOM     10  O   LIG    1       30.611 -16.039  11.701  0.00  0.00    -0.391 OA
ATOM     11  H   LIG    1       30.659 -16.058  12.671  0.00  0.00    +0.210 HD
ENDBRANCH   9  10
ENDBRANCH   7   9
ENDBRANCH   5   6
ENDBRANCH   3   4
BRANCH   2  12
ATOM     12  C   LIG    1       26.341 -20.624   4.873  0.00  0.00    +0.003 C 
ATOM     13  C   LIG    1       25.214 -21.297   4.571  0.00  0.00    +0.004 C 
BRANCH  13  14
ATOM     14  C   LIG    1       24.234 -22.045   5.370  0.00  0.00    -0.043 C 
ATOM     15  C   LIG    1       24.617 -23.518   5.695  0.00  0.00    -0.010 C 
ATOM     16  C   LIG    1       25.013 -24.309   4.430  0.00  0.00    +0.016 C 
ATOM     17  C   LIG    1       25.811 -23.546   6.682  0.00  0.00    +0.016 C 
ATOM     18  C   LIG    1       23.437 -24.301   6.338  0.00  0.00    +0.011 C 
ATOM     19  C   LIG    1       22.746 -23.502   7.426  0.00  0.00    +0.005 C 
ATOM     20  C   LIG    1       22.178 -22.223   6.833  0.00  0.00    +0.031 C 
ATOM     21  C   LIG    1       23.139 -21.467   5.930  0.00  0.00    -0.069 C 
ATOM     22  C   LIG    1       22.748 -20.016   5.789  0.00  0.00    +0.039 C 
ENDBRANCH  13  14
ENDBRANCH   2  12
TORSDOF 6
ENDMDL
MODEL 9
REMARK VINA RESULT:      -6.6      5.389      8.835
REMARK  Name = *****
REMARK                            x       y       z     vdW  Elec       q    Type
REMARK                         _______ _______ _______ _____ _____    ______ ____
ROOT
ATOM      1  C   LIG    1       23.275 -30.393   9.548  0.00  0.00    +0.044 C 
ATOM      2  C   LIG    1       24.647 -30.018  10.055  0.00  0.00    -0.050 C 
ATOM      3  C   LIG    1       25.616 -29.447   9.302  0.00  0.00    +0.003 C 
ENDROOT
BRANCH   3   4
ATOM      4  C   LIG    1       25.414 -28.906   7.973  0.00  0.00    +0.001 C 
ATOM      5  C   LIG    1       25.709 -27.657   7.557  0.00  0.00    +0.003 C 
BRANCH   5   6
ATOM      6  C   LIG    1       25.432 -27.143   6.213  0.00  0.00    -0.052 C 
ATOM      7  C   LIG    1       25.415 -25.823   5.937  0.00  0.00    +0.004 C 
ATOM      8  C   LIG    1       25.197 -28.215   5.176  0.00  0.00    +0.043 C 
BRANCH   7   9
ATOM      9  C   LIG    1       25.128 -25.141   4.643  0.00  0.00    +0.183 C 
BRANCH   9  10
ATOM     10  O   LIG    1       24.910 -23.759   4.909  0.00  0.00    -0.391 OA
ATOM     11  H   LIG    1       23.957 -23.595   4.818  0.00  0.00    +0.210 HD
ENDBRANCH   9  10
ENDBRANCH   7   9
ENDBRANCH   5   6
ENDBRANCH   3   4
BRANCH   2  12
ATOM     12  C   LIG    1       24.968 -30.390  11.430  0.00  0.00    +0.003 C 
ATOM     13  C   LIG    1       24.985 -29.674  12.572  0.00  0.00    +0.004 C 
BRANCH  13  14
ATOM     14  C   LIG    1       24.748 -28.258  12.885  0.00  0.00    -0.043 C 
ATOM     15  C   LIG    1       23.342 -27.925  13.463  0.00  0.00    -0.010 C 
ATOM     16  C   LIG    1       22.204 -28.493  12.589  0.00  0.00    +0.016 C 
ATOM     17  C   LIG    1       23.205 -28.518  14.888  0.00  0.00    +0.016 C 
ATOM     18  C   LIG    1       23.094 -26.393  13.549  0.00  0.00    +0.011 C 
ATOM     19  C   LIG    1       24.282 -25.651  14.130  0.00  0.00    +0.005 C 
ATOM     20  C   LIG    1       25.498 -25.870  13.244  0.00  0.00    +0.031 C 
ATOM     21  C   LIG    1       25.724 -27.314  12.829  0.00  0.00    -0.069 C 
ATOM     22  C   LIG    1       27.153 -27.558  12.412  0.00  0.00    +0.039 C 
ENDBRANCH  13  14
ENDBRANCH   2  12
TORSDOF 6
ENDMDL
