MODEL 1
REMARK VINA RESULT:      -5.3      0.000      0.000
REMARK  Name = *****
REMARK                            x       y       z     vdW  Elec       q    Type
REMARK                         _______ _______ _______ _____ _____    ______ ____
ROOT
ATOM      1  C   UNK A  1       26.699 -17.151   3.749  0.00  0.00    +0.216 C 
ATOM      2  N   UNK A  1       26.149 -15.886   3.698  0.00  0.00    -0.302 N 
ATOM      3  H   UNK A  1       25.197 -15.780   3.369  0.00  0.00    +0.149 HD
ATOM      4  O   UNK A  1       27.864 -17.358   4.075  0.00  0.00    -0.276 OA
ENDROOT
BRANCH   1   5
ATOM      5  C   UNK A  1       25.739 -18.270   3.313  0.00  0.00    +0.129 C 
BRANCH   5   6
ATOM      6  C   UNK A  1       25.623 -19.401   4.355  0.00  0.00    +0.190 C 
BRANCH   6   9
ATOM      7  C   UNK A  0       28.516 -20.776   6.594  0.00  0.00    +0.109 C 
ATOM      8  C   UNK A  0       27.103 -20.378   6.224  0.00  0.00    +0.211 C 
ATOM      9  N   UNK A  1       26.923 -19.883   4.953  0.00  0.00    -0.302 N 
ATOM     10  H   UNK A  1       27.696 -20.002   4.303  0.00  0.00    +0.149 HD
ATOM     11  O   UNK A  0       26.184 -20.393   7.040  0.00  0.00    -0.276 OA
ENDBRANCH   6   9
BRANCH   6  12
ATOM     12  C   UNK A  1       24.738 -20.548   3.792  0.00  0.00    +0.326 C 
ATOM     13  O   UNK A  1       24.288 -20.598   2.656  0.00  0.00    -0.249 OA
BRANCH  12  14
ATOM     14  O   UNK A  1       24.458 -21.530   4.672  0.00  0.00    -0.479 OA
ATOM     15  H   UNK A  1       23.636 -21.336   5.156  0.00  0.00    +0.295 HD
ENDBRANCH  12  14
ENDBRANCH   6  12
ENDBRANCH   5   6
ENDBRANCH   1   5
BRANCH   2  16
ATOM     16  C   UNK A  1       26.888 -14.677   4.091  0.00  0.00    +0.182 C 
BRANCH  16  17
ATOM     17  C   UNK A  1       27.283 -13.785   2.895  0.00  0.00    +0.325 C 
ATOM     18  O   UNK A  1       26.719 -13.774   1.812  0.00  0.00    -0.249 OA
BRANCH  17  19
ATOM     19  O   UNK A  1       28.325 -12.957   3.162  0.00  0.00    -0.479 OA
ATOM     20  H   UNK A  1       28.410 -12.187   2.569  0.00  0.00    +0.295 HD
ENDBRANCH  17  19
ENDBRANCH  16  17
BRANCH  16  21
ATOM     21  C   UNK A  1       26.128 -13.912   5.191  0.00  0.00    +0.045 C 
BRANCH  21  22
ATOM     22  C   UNK A  1       24.989 -12.993   4.737  0.00  0.00    +0.123 C 
BRANCH  22  23
ATOM     23  C   UNK A  1       23.927 -13.690   3.922  0.00  0.00    +0.305 C 
ATOM     24  O   UNK A  1       23.250 -14.619   4.280  0.00  0.00    -0.251 OA
BRANCH  23  25
ATOM     25  O   UNK A  1       23.790 -13.127   2.701  0.00  0.00    -0.481 OA
ATOM     26  H   UNK A  1       23.705 -12.166   2.885  0.00  0.00    +0.295 HD
ENDBRANCH  23  25
ENDBRANCH  22  23
ENDBRANCH  21  22
ENDBRANCH  16  21
ENDBRANCH   2  16
TORSDOF 12
ENDMDL
MODEL 2
REMARK VINA RESULT:      -5.2      1.686      6.765
REMARK  Name = *****
REMARK                            x       y       z     vdW  Elec       q    Type
REMARK                         _______ _______ _______ _____ _____    ______ ____
ROOT
ATOM      1  C   UNK A  1       26.008 -17.048   3.413  0.00  0.00    +0.216 C 
ATOM      2  N   UNK A  1       25.129 -18.102   3.564  0.00  0.00    -0.302 N 
ATOM      3  H   UNK A  1       24.140 -17.904   3.655  0.00  0.00    +0.149 HD
ATOM      4  O   UNK A  1       27.224 -17.198   3.361  0.00  0.00    -0.276 OA
ENDROOT
BRANCH   1   5
ATOM      5  C   UNK A  1       25.330 -15.669   3.371  0.00  0.00    +0.129 C 
BRANCH   5   6
ATOM      6  C   UNK A  1       26.155 -14.573   4.077  0.00  0.00    +0.190 C 
BRANCH   6   9
ATOM      7  C   UNK A  0       23.810 -11.592   5.017  0.00  0.00    +0.109 C 
ATOM      8  C   UNK A  0       24.464 -12.629   4.130  0.00  0.00    +0.211 C 
ATOM      9  N   UNK A  1       25.360 -13.475   4.743  0.00  0.00    -0.302 N 
ATOM     10  H   UNK A  1       25.370 -13.472   5.760  0.00  0.00    +0.149 HD
ATOM     11  O   UNK A  0       24.292 -12.653   2.914  0.00  0.00    -0.276 OA
ENDBRANCH   6   9
BRANCH   6  12
ATOM     12  C   UNK A  1       27.259 -14.044   3.120  0.00  0.00    +0.326 C 
ATOM     13  O   UNK A  1       28.363 -13.649   3.469  0.00  0.00    -0.249 OA
BRANCH  12  14
ATOM     14  O   UNK A  1       26.915 -14.021   1.817  0.00  0.00    -0.479 OA
ATOM     15  H   UNK A  1       26.955 -13.115   1.465  0.00  0.00    +0.295 HD
ENDBRANCH  12  14
ENDBRANCH   6  12
ENDBRANCH   5   6
ENDBRANCH   1   5
BRANCH   2  16
ATOM     16  C   UNK A  1       25.566 -19.505   3.610  0.00  0.00    +0.182 C 
BRANCH  16  17
ATOM     17  C   UNK A  1       26.282 -19.881   4.925  0.00  0.00    +0.325 C 
ATOM     18  O   UNK A  1       25.733 -20.336   5.916  0.00  0.00    -0.249 OA
BRANCH  17  19
ATOM     19  O   UNK A  1       27.625 -19.692   4.880  0.00  0.00    -0.479 OA
ATOM     20  H   UNK A  1       28.052 -19.519   5.740  0.00  0.00    +0.295 HD
ENDBRANCH  17  19
ENDBRANCH  16  17
BRANCH  16  21
ATOM     21  C   UNK A  1       24.396 -20.447   3.268  0.00  0.00    +0.045 C 
BRANCH  21  22
ATOM     22  C   UNK A  1       22.984 -19.951   3.603  0.00  0.00    +0.123 C 
BRANCH  22  23
ATOM     23  C   UNK A  1       22.545 -20.261   5.014  0.00  0.00    +0.305 C 
ATOM     24  O   UNK A  1       22.458 -19.473   5.921  0.00  0.00    -0.251 OA
BRANCH  23  25
ATOM     25  O   UNK A  1       22.224 -21.566   5.158  0.00  0.00    -0.481 OA
ATOM     26  H   UNK A  1       22.020 -21.661   6.114  0.00  0.00    +0.295 HD
ENDBRANCH  23  25
ENDBRANCH  22  23
ENDBRANCH  21  22
ENDBRANCH  16  21
ENDBRANCH   2  16
TORSDOF 12
ENDMDL
MODEL 3
REMARK VINA RESULT:      -5.1      1.170      2.543
REMARK  Name = *****
REMARK                            x       y       z     vdW  Elec       q    Type
REMARK                         _______ _______ _______ _____ _____    ______ ____
ROOT
ATOM      1  C   UNK A  1       26.012 -17.289   3.371  0.00  0.00    +0.216 C 
ATOM      2  N   UNK A  1       25.306 -16.104   3.317  0.00  0.00    -0.302 N 
ATOM      3  H   UNK A  1       24.297 -16.141   3.233  0.00  0.00    +0.149 HD
ATOM      4  O   UNK A  1       27.238 -17.332   3.410  0.00  0.00    -0.276 OA
ENDROOT
BRANCH   1   5
ATOM      5  C   UNK A  1       25.131 -18.548   3.326  0.00  0.00    +0.129 C 
BRANCH   5   6
ATOM      6  C   UNK A  1       25.371 -19.491   4.523  0.00  0.00    +0.190 C 
BRANCH   6   9
ATOM      7  C   UNK A  0       28.809 -20.411   6.138  0.00  0.00    +0.109 C 
ATOM      8  C   UNK A  0       27.313 -20.190   6.066  0.00  0.00    +0.211 C 
ATOM      9  N   UNK A  1       26.815 -19.794   4.845  0.00  0.00    -0.302 N 
ATOM     10  H   UNK A  1       27.443 -19.869   4.050  0.00  0.00    +0.149 HD
ATOM     11  O   UNK A  0       26.593 -20.253   7.060  0.00  0.00    -0.276 OA
ENDBRANCH   6   9
BRANCH   6  12
ATOM     12  C   UNK A  1       24.490 -20.762   4.378  0.00  0.00    +0.326 C 
ATOM     13  O   UNK A  1       24.096 -21.230   3.318  0.00  0.00    -0.249 OA
BRANCH  12  14
ATOM     14  O   UNK A  1       24.142 -21.347   5.542  0.00  0.00    -0.479 OA
ATOM     15  H   UNK A  1       23.502 -20.797   6.027  0.00  0.00    +0.295 HD
ENDBRANCH  12  14
ENDBRANCH   6  12
ENDBRANCH   5   6
ENDBRANCH   1   5
BRANCH   2  16
ATOM     16  C   UNK A  1       25.953 -14.786   3.366  0.00  0.00    +0.182 C 
BRANCH  16  17
ATOM     17  C   UNK A  1       24.973 -13.613   3.148  0.00  0.00    +0.325 C 
ATOM     18  O   UNK A  1       23.943 -13.434   3.780  0.00  0.00    -0.249 OA
BRANCH  17  19
ATOM     19  O   UNK A  1       25.376 -12.746   2.186  0.00  0.00    -0.479 OA
ATOM     20  H   UNK A  1       24.660 -12.267   1.727  0.00  0.00    +0.295 HD
ENDBRANCH  17  19
ENDBRANCH  16  17
BRANCH  16  21
ATOM     21  C   UNK A  1       26.791 -14.642   4.651  0.00  0.00    +0.045 C 
BRANCH  21  22
ATOM     22  C   UNK A  1       27.125 -13.217   5.106  0.00  0.00    +0.123 C 
BRANCH  22  23
ATOM     23  C   UNK A  1       28.482 -12.733   4.656  0.00  0.00    +0.305 C 
ATOM     24  O   UNK A  1       29.047 -13.044   3.639  0.00  0.00    -0.251 OA
BRANCH  23  25
ATOM     25  O   UNK A  1       29.014 -11.857   5.537  0.00  0.00    -0.481 OA
ATOM     26  H   UNK A  1       29.042 -11.007   5.048  0.00  0.00    +0.295 HD
ENDBRANCH  23  25
ENDBRANCH  22  23
ENDBRANCH  21  22
ENDBRANCH  16  21
ENDBRANCH   2  16
TORSDOF 12
ENDMDL
MODEL 4
REMARK VINA RESULT:      -5.0      1.981      6.497
REMARK  Name = *****
REMARK                            x       y       z     vdW  Elec       q    Type
REMARK                         _______ _______ _______ _____ _____    ______ ____
ROOT
ATOM      1  C   UNK A  1       25.922 -16.650   3.455  0.00  0.00    +0.216 C 
ATOM      2  N   UNK A  1       25.073 -17.710   3.703  0.00  0.00    -0.302 N 
ATOM      3  H   UNK A  1       24.115 -17.517   3.967  0.00  0.00    +0.149 HD
ATOM      4  O   UNK A  1       27.112 -16.797   3.193  0.00  0.00    -0.276 OA
ENDROOT
BRANCH   1   5
ATOM      5  C   UNK A  1       25.258 -15.270   3.589  0.00  0.00    +0.129 C 
BRANCH   5   6
ATOM      6  C   UNK A  1       25.768 -14.255   2.546  0.00  0.00    +0.190 C 
BRANCH   6   9
ATOM      7  C   UNK A  0       29.215 -12.914   3.808  0.00  0.00    +0.109 C 
ATOM      8  C   UNK A  0       27.770 -13.356   3.897  0.00  0.00    +0.211 C 
ATOM      9  N   UNK A  1       27.193 -13.786   2.724  0.00  0.00    -0.302 N 
ATOM     10  H   UNK A  1       27.820 -13.958   1.943  0.00  0.00    +0.149 HD
ATOM     11  O   UNK A  0       27.112 -13.241   4.928  0.00  0.00    -0.276 OA
ENDBRANCH   6   9
BRANCH   6  12
ATOM     12  C   UNK A  1       24.748 -13.093   2.398  0.00  0.00    +0.326 C 
ATOM     13  O   UNK A  1       25.001 -11.988   1.937  0.00  0.00    -0.249 OA
BRANCH  12  14
ATOM     14  O   UNK A  1       23.506 -13.369   2.845  0.00  0.00    -0.479 OA
ATOM     15  H   UNK A  1       23.495 -13.430   3.816  0.00  0.00    +0.295 HD
ENDBRANCH  12  14
ENDBRANCH   6  12
ENDBRANCH   5   6
ENDBRANCH   1   5
BRANCH   2  16
ATOM     16  C   UNK A  1       25.500 -19.114   3.612  0.00  0.00    +0.182 C 
BRANCH  16  17
ATOM     17  C   UNK A  1       26.365 -19.570   4.806  0.00  0.00    +0.325 C 
ATOM     18  O   UNK A  1       25.983 -20.299   5.709  0.00  0.00    -0.249 OA
BRANCH  17  19
ATOM     19  O   UNK A  1       27.640 -19.109   4.755  0.00  0.00    -0.479 OA
ATOM     20  H   UNK A  1       28.178 -19.449   4.015  0.00  0.00    +0.295 HD
ENDBRANCH  17  19
ENDBRANCH  16  17
BRANCH  16  21
ATOM     21  C   UNK A  1       24.290 -20.032   3.356  0.00  0.00    +0.045 C 
BRANCH  21  22
ATOM     22  C   UNK A  1       22.952 -19.605   3.970  0.00  0.00    +0.123 C 
BRANCH  22  23
ATOM     23  C   UNK A  1       22.564 -20.390   5.200  0.00  0.00    +0.305 C 
ATOM     24  O   UNK A  1       22.878 -20.137   6.334  0.00  0.00    -0.251 OA
BRANCH  23  25
ATOM     25  O   UNK A  1       21.776 -21.443   4.888  0.00  0.00    -0.481 OA
ATOM     26  H   UNK A  1       21.424 -21.227   3.998  0.00  0.00    +0.295 HD
ENDBRANCH  23  25
ENDBRANCH  22  23
ENDBRANCH  21  22
ENDBRANCH  16  21
ENDBRANCH   2  16
TORSDOF 12
ENDMDL
MODEL 5
REMARK VINA RESULT:      -4.6      1.780      2.950
REMARK  Name = *****
REMARK                            x       y       z     vdW  Elec       q    Type
REMARK                         _______ _______ _______ _____ _____    ______ ____
ROOT
ATOM      1  C   UNK A  1       25.970 -16.667   3.461  0.00  0.00    +0.216 C 
ATOM      2  N   UNK A  1       26.950 -15.695   3.487  0.00  0.00    -0.302 N 
ATOM      3  H   UNK A  1       27.920 -15.978   3.420  0.00  0.00    +0.149 HD
ATOM      4  O   UNK A  1       24.778 -16.414   3.601  0.00  0.00    -0.276 OA
ENDROOT
BRANCH   1   5
ATOM      5  C   UNK A  1       26.510 -18.097   3.295  0.00  0.00    +0.129 C 
BRANCH   5   6
ATOM      6  C   UNK A  1       25.480 -19.176   3.684  0.00  0.00    +0.190 C 
BRANCH   6   9
ATOM      7  C   UNK A  0       21.677 -18.720   4.463  0.00  0.00    +0.109 C 
ATOM      8  C   UNK A  0       22.976 -19.460   4.223  0.00  0.00    +0.211 C 
ATOM      9  N   UNK A  1       24.082 -18.681   3.973  0.00  0.00    -0.302 N 
ATOM     10  H   UNK A  1       23.991 -17.685   4.158  0.00  0.00    +0.149 HD
ATOM     11  O   UNK A  0       23.027 -20.685   4.149  0.00  0.00    -0.276 OA
ENDBRANCH   6   9
BRANCH   6  12
ATOM     12  C   UNK A  1       26.060 -20.079   4.808  0.00  0.00    +0.326 C 
ATOM     13  O   UNK A  1       26.920 -19.741   5.610  0.00  0.00    -0.249 OA
BRANCH  12  14
ATOM     14  O   UNK A  1       25.557 -21.330   4.846  0.00  0.00    -0.479 OA
ATOM     15  H   UNK A  1       25.014 -21.459   5.642  0.00  0.00    +0.295 HD
ENDBRANCH  12  14
ENDBRANCH   6  12
ENDBRANCH   5   6
ENDBRANCH   1   5
BRANCH   2  16
ATOM     16  C   UNK A  1       26.650 -14.262   3.619  0.00  0.00    +0.182 C 
BRANCH  16  17
ATOM     17  C   UNK A  1       27.780 -13.459   4.299  0.00  0.00    +0.325 C 
ATOM     18  O   UNK A  1       28.858 -13.197   3.789  0.00  0.00    -0.249 OA
BRANCH  17  19
ATOM     19  O   UNK A  1       27.456 -13.022   5.542  0.00  0.00    -0.479 OA
ATOM     20  H   UNK A  1       26.618 -12.526   5.606  0.00  0.00    +0.295 HD
ENDBRANCH  17  19
ENDBRANCH  16  17
BRANCH  16  21
ATOM     21  C   UNK A  1       26.222 -13.672   2.262  0.00  0.00    +0.045 C 
BRANCH  21  22
ATOM     22  C   UNK A  1       24.926 -12.854   2.237  0.00  0.00    +0.123 C 
BRANCH  22  23
ATOM     23  C   UNK A  1       24.121 -12.943   3.512  0.00  0.00    +0.305 C 
ATOM     24  O   UNK A  1       24.080 -12.117   4.386  0.00  0.00    -0.251 OA
BRANCH  23  25
ATOM     25  O   UNK A  1       23.401 -14.086   3.564  0.00  0.00    -0.481 OA
ATOM     26  H   UNK A  1       23.057 -14.198   2.652  0.00  0.00    +0.295 HD
ENDBRANCH  23  25
ENDBRANCH  22  23
ENDBRANCH  21  22
ENDBRANCH  16  21
ENDBRANCH   2  16
TORSDOF 12
ENDMDL
MODEL 6
REMARK VINA RESULT:      -4.6      2.037      6.960
REMARK  Name = *****
REMARK                            x       y       z     vdW  Elec       q    Type
REMARK                         _______ _______ _______ _____ _____    ______ ____
ROOT
ATOM      1  C   UNK A  1       25.677 -16.380   3.480  0.00  0.00    +0.216 C 
ATOM      2  N   UNK A  1       25.972 -17.719   3.313  0.00  0.00    -0.302 N 
ATOM      3  H   UNK A  1       26.917 -17.982   3.061  0.00  0.00    +0.149 HD
ATOM      4  O   UNK A  1       24.544 -15.974   3.722  0.00  0.00    -0.276 OA
ENDROOT
BRANCH   1   5
ATOM      5  C   UNK A  1       26.879 -15.443   3.283  0.00  0.00    +0.129 C 
BRANCH   5   6
ATOM      6  C   UNK A  1       26.593 -13.997   3.736  0.00  0.00    +0.190 C 
BRANCH   6   9
ATOM      7  C   UNK A  0       24.124 -11.657   1.812  0.00  0.00    +0.109 C 
ATOM      8  C   UNK A  0       24.684 -12.439   2.980  0.00  0.00    +0.211 C 
ATOM      9  N   UNK A  1       25.850 -13.130   2.746  0.00  0.00    -0.302 N 
ATOM     10  H   UNK A  1       26.345 -12.912   1.885  0.00  0.00    +0.149 HD
ATOM     11  O   UNK A  0       24.083 -12.543   4.047  0.00  0.00    -0.276 OA
ENDBRANCH   6   9
BRANCH   6  12
ATOM     12  C   UNK A  1       27.896 -13.344   4.273  0.00  0.00    +0.326 C 
ATOM     13  O   UNK A  1       28.965 -13.312   3.679  0.00  0.00    -0.249 OA
BRANCH  12  14
ATOM     14  O   UNK A  1       27.792 -12.802   5.503  0.00  0.00    -0.479 OA
ATOM     15  H   UNK A  1       27.468 -13.459   6.144  0.00  0.00    +0.295 HD
ENDBRANCH  12  14
ENDBRANCH   6  12
ENDBRANCH   5   6
ENDBRANCH   1   5
BRANCH   2  16
ATOM     16  C   UNK A  1       24.972 -18.784   3.475  0.00  0.00    +0.182 C 
BRANCH  16  17
ATOM     17  C   UNK A  1       25.555 -20.088   4.060  0.00  0.00    +0.325 C 
ATOM     18  O   UNK A  1       24.975 -21.163   4.090  0.00  0.00    -0.249 OA
BRANCH  17  19
ATOM     19  O   UNK A  1       26.822 -19.951   4.525  0.00  0.00    -0.479 OA
ATOM     20  H   UNK A  1       27.504 -20.447   4.034  0.00  0.00    +0.295 HD
ENDBRANCH  17  19
ENDBRANCH  16  17
BRANCH  16  21
ATOM     21  C   UNK A  1       23.751 -18.264   4.256  0.00  0.00    +0.045 C 
BRANCH  21  22
ATOM     22  C   UNK A  1       22.432 -19.022   4.069  0.00  0.00    +0.123 C 
BRANCH  22  23
ATOM     23  C   UNK A  1       22.253 -20.184   5.016  0.00  0.00    +0.305 C 
ATOM     24  O   UNK A  1       21.603 -21.176   4.810  0.00  0.00    -0.251 OA
BRANCH  23  25
ATOM     25  O   UNK A  1       22.945 -20.000   6.162  0.00  0.00    -0.481 OA
ATOM     26  H   UNK A  1       23.884 -20.109   5.899  0.00  0.00    +0.295 HD
ENDBRANCH  23  25
ENDBRANCH  22  23
ENDBRANCH  21  22
ENDBRANCH  16  21
ENDBRANCH   2  16
TORSDOF 12
ENDMDL
MODEL 7
REMARK VINA RESULT:      -4.4      1.629      3.485
REMARK  Name = *****
REMARK                            x       y       z     vdW  Elec       q    Type
REMARK                         _______ _______ _______ _____ _____    ______ ____
ROOT
ATOM      1  C   UNK A  1       26.593 -17.238   3.572  0.00  0.00    +0.216 C 
ATOM      2  N   UNK A  1       26.840 -15.901   3.813  0.00  0.00    -0.302 N 
ATOM      3  H   UNK A  1       27.535 -15.651   4.505  0.00  0.00    +0.149 HD
ATOM      4  O   UNK A  1       25.723 -17.625   2.797  0.00  0.00    -0.276 OA
ENDROOT
BRANCH   1   5
ATOM      5  C   UNK A  1       27.466 -18.196   4.398  0.00  0.00    +0.129 C 
BRANCH   5   6
ATOM      6  C   UNK A  1       26.753 -19.522   4.730  0.00  0.00    +0.190 C 
BRANCH   6   9
ATOM      7  C   UNK A  0       22.894 -20.128   4.865  0.00  0.00    +0.109 C 
ATOM      8  C   UNK A  0       24.356 -20.467   4.666  0.00  0.00    +0.211 C 
ATOM      9  N   UNK A  1       25.252 -19.445   4.882  0.00  0.00    -0.302 N 
ATOM     10  H   UNK A  1       24.893 -18.612   5.340  0.00  0.00    +0.149 HD
ATOM     11  O   UNK A  0       24.723 -21.557   4.233  0.00  0.00    -0.276 OA
ENDBRANCH   6   9
BRANCH   6  12
ATOM     12  C   UNK A  1       27.460 -20.217   5.927  0.00  0.00    +0.326 C 
ATOM     13  O   UNK A  1       28.498 -19.835   6.450  0.00  0.00    -0.249 OA
BRANCH  12  14
ATOM     14  O   UNK A  1       26.852 -21.334   6.373  0.00  0.00    -0.479 OA
ATOM     15  H   UNK A  1       26.079 -21.549   5.823  0.00  0.00    +0.295 HD
ENDBRANCH  12  14
ENDBRANCH   6  12
ENDBRANCH   5   6
ENDBRANCH   1   5
BRANCH   2  16
ATOM     16  C   UNK A  1       26.129 -14.820   3.116  0.00  0.00    +0.182 C 
BRANCH  16  17
ATOM     17  C   UNK A  1       24.820 -14.395   3.817  0.00  0.00    +0.325 C 
ATOM     18  O   UNK A  1       23.881 -15.139   4.057  0.00  0.00    -0.249 OA
BRANCH  17  19
ATOM     19  O   UNK A  1       24.808 -13.091   4.189  0.00  0.00    -0.479 OA
ATOM     20  H   UNK A  1       25.171 -12.905   5.075  0.00  0.00    +0.295 HD
ENDBRANCH  17  19
ENDBRANCH  16  17
BRANCH  16  21
ATOM     21  C   UNK A  1       27.078 -13.638   2.842  0.00  0.00    +0.045 C 
BRANCH  21  22
ATOM     22  C   UNK A  1       28.325 -13.529   3.726  0.00  0.00    +0.123 C 
BRANCH  22  23
ATOM     23  C   UNK A  1       28.053 -12.973   5.103  0.00  0.00    +0.305 C 
ATOM     24  O   UNK A  1       27.199 -13.346   5.865  0.00  0.00    -0.251 OA
BRANCH  23  25
ATOM     25  O   UNK A  1       28.919 -11.983   5.418  0.00  0.00    -0.481 OA
ATOM     26  H   UNK A  1       29.803 -12.367   5.237  0.00  0.00    +0.295 HD
ENDBRANCH  23  25
ENDBRANCH  22  23
ENDBRANCH  21  22
ENDBRANCH  16  21
ENDBRANCH   2  16
TORSDOF 12
ENDMDL
MODEL 8
REMARK VINA RESULT:      -4.0      2.274      7.053
REMARK  Name = *****
REMARK                            x       y       z     vdW  Elec       q    Type
REMARK                         _______ _______ _______ _____ _____    ______ ____
ROOT
ATOM      1  C   UNK A  1       24.123 -15.908   4.047  0.00  0.00    +0.216 C 
ATOM      2  N   UNK A  1       23.144 -16.783   4.474  0.00  0.00    -0.302 N 
ATOM      3  H   UNK A  1       22.280 -16.407   4.844  0.00  0.00    +0.149 HD
ATOM      4  O   UNK A  1       25.221 -16.281   3.646  0.00  0.00    -0.276 OA
ENDROOT
BRANCH   1   5
ATOM      5  C   UNK A  1       23.733 -14.426   4.167  0.00  0.00    +0.129 C 
BRANCH   5   6
ATOM      6  C   UNK A  1       24.630 -13.499   3.320  0.00  0.00    +0.190 C 
BRANCH   6   9
ATOM      7  C   UNK A  0       28.517 -13.486   3.721  0.00  0.00    +0.109 C 
ATOM      8  C   UNK A  0       27.184 -13.674   3.029  0.00  0.00    +0.211 C 
ATOM      9  N   UNK A  1       26.065 -13.376   3.773  0.00  0.00    -0.302 N 
ATOM     10  H   UNK A  1       26.216 -12.876   4.645  0.00  0.00    +0.149 HD
ATOM     11  O   UNK A  0       27.093 -14.164   1.906  0.00  0.00    -0.276 OA
ENDBRANCH   6   9
BRANCH   6  12
ATOM     12  C   UNK A  1       23.927 -12.129   3.113  0.00  0.00    +0.326 C 
ATOM     13  O   UNK A  1       23.436 -11.447   4.003  0.00  0.00    -0.249 OA
BRANCH  12  14
ATOM     14  O   UNK A  1       23.861 -11.714   1.832  0.00  0.00    -0.479 OA
ATOM     15  H   UNK A  1       22.940 -11.542   1.571  0.00  0.00    +0.295 HD
ENDBRANCH  12  14
ENDBRANCH   6  12
ENDBRANCH   5   6
ENDBRANCH   1   5
BRANCH   2  16
ATOM     16  C   UNK A  1       23.304 -18.244   4.428  0.00  0.00    +0.182 C 
BRANCH  16  17
ATOM     17  C   UNK A  1       21.964 -19.005   4.337  0.00  0.00    +0.325 C 
ATOM     18  O   UNK A  1       20.973 -18.609   3.743  0.00  0.00    -0.249 OA
BRANCH  17  19
ATOM     19  O   UNK A  1       21.985 -20.208   4.963  0.00  0.00    -0.479 OA
ATOM     20  H   UNK A  1       21.425 -20.275   5.759  0.00  0.00    +0.295 HD
ENDBRANCH  17  19
ENDBRANCH  16  17
BRANCH  16  21
ATOM     21  C   UNK A  1       24.302 -18.643   3.324  0.00  0.00    +0.045 C 
BRANCH  21  22
ATOM     22  C   UNK A  1       24.960 -20.022   3.448  0.00  0.00    +0.123 C 
BRANCH  22  23
ATOM     23  C   UNK A  1       25.532 -20.308   4.815  0.00  0.00    +0.305 C 
ATOM     24  O   UNK A  1       24.931 -20.747   5.761  0.00  0.00    -0.251 OA
BRANCH  23  25
ATOM     25  O   UNK A  1       26.854 -20.028   4.868  0.00  0.00    -0.481 OA
ATOM     26  H   UNK A  1       26.893 -19.097   5.176  0.00  0.00    +0.295 HD
ENDBRANCH  23  25
ENDBRANCH  22  23
ENDBRANCH  21  22
ENDBRANCH  16  21
ENDBRANCH   2  16
TORSDOF 12
ENDMDL
MODEL 9
REMARK VINA RESULT:      -4.0      2.126      3.576
REMARK  Name = *****
REMARK                            x       y       z     vdW  Elec       q    Type
REMARK                         _______ _______ _______ _____ _____    ______ ____
ROOT
ATOM      1  C   UNK A  1       25.378 -17.236   3.452  0.00  0.00    +0.216 C 
ATOM      2  N   UNK A  1       25.114 -15.883   3.536  0.00  0.00    -0.302 N 
ATOM      3  H   UNK A  1       24.244 -15.581   3.957  0.00  0.00    +0.149 HD
ATOM      4  O   UNK A  1       26.377 -17.686   2.900  0.00  0.00    -0.276 OA
ENDROOT
BRANCH   1   5
ATOM      5  C   UNK A  1       24.285 -18.127   4.064  0.00  0.00    +0.129 C 
BRANCH   5   6
ATOM      6  C   UNK A  1       24.608 -19.631   3.957  0.00  0.00    +0.190 C 
BRANCH   6   9
ATOM      7  C   UNK A  0       21.319 -21.572   4.791  0.00  0.00    +0.109 C 
ATOM      8  C   UNK A  0       22.377 -20.496   4.915  0.00  0.00    +0.211 C 
ATOM      9  N   UNK A  1       23.424 -20.567   4.025  0.00  0.00    -0.302 N 
ATOM     10  H   UNK A  1       23.313 -21.203   3.240  0.00  0.00    +0.149 HD
ATOM     11  O   UNK A  0       22.365 -19.668   5.823  0.00  0.00    -0.276 OA
ENDBRANCH   6   9
BRANCH   6  12
ATOM     12  C   UNK A  1       25.744 -19.999   4.951  0.00  0.00    +0.326 C 
ATOM     13  O   UNK A  1       25.583 -20.300   6.126  0.00  0.00    -0.249 OA
BRANCH  12  14
ATOM     14  O   UNK A  1       26.988 -19.948   4.433  0.00  0.00    -0.479 OA
ATOM     15  H   UNK A  1       27.434 -20.808   4.521  0.00  0.00    +0.295 HD
ENDBRANCH  12  14
ENDBRANCH   6  12
ENDBRANCH   5   6
ENDBRANCH   1   5
BRANCH   2  16
ATOM     16  C   UNK A  1       26.036 -14.857   3.029  0.00  0.00    +0.182 C 
BRANCH  16  17
ATOM     17  C   UNK A  1       25.417 -13.443   2.987  0.00  0.00    +0.325 C 
ATOM     18  O   UNK A  1       25.444 -12.695   2.022  0.00  0.00    -0.249 OA
BRANCH  17  19
ATOM     19  O   UNK A  1       24.788 -13.097   4.139  0.00  0.00    -0.479 OA
ATOM     20  H   UNK A  1       24.121 -12.390   4.054  0.00  0.00    +0.295 HD
ENDBRANCH  17  19
ENDBRANCH  16  17
BRANCH  16  21
ATOM     21  C   UNK A  1       27.374 -14.909   3.792  0.00  0.00    +0.045 C 
BRANCH  21  22
ATOM     22  C   UNK A  1       28.276 -13.674   3.696  0.00  0.00    +0.123 C 
BRANCH  22  23
ATOM     23  C   UNK A  1       28.270 -12.813   4.936  0.00  0.00    +0.305 C 
ATOM     24  O   UNK A  1       28.998 -11.880   5.159  0.00  0.00    -0.251 OA
BRANCH  23  25
ATOM     25  O   UNK A  1       27.305 -13.197   5.802  0.00  0.00    -0.481 OA
ATOM     26  H   UNK A  1       27.269 -14.173   5.707  0.00  0.00    +0.295 HD
ENDBRANCH  23  25
ENDBRANCH  22  23
ENDBRANCH  21  22
ENDBRANCH  16  21
ENDBRANCH   2  16
TORSDOF 12
ENDMDL
