MODEL 1
REMARK VINA RESULT:      44.8      0.000      0.000
REMARK  Name = *****
REMARK                            x       y       z     vdW  Elec       q    Type
REMARK                         _______ _______ _______ _____ _____    ______ ____
ROOT
ATOM      1  C   LIG    1       26.688 -12.421   2.769  0.00  0.00    +0.200 C 
ATOM      2  C   LIG    1       26.290 -13.946   2.864  0.00  0.00    +0.010 C 
ATOM      3  C   LIG    1       24.766 -14.072   2.655  0.00  0.00    +0.015 C 
ATOM      4  C   LIG    1       26.857 -14.345   4.266  0.00  0.00    +0.003 C 
ATOM      5  C   LIG    1       27.697 -15.649   4.323  0.00  0.00    -0.004 C 
ATOM      6  C   LIG    1       27.046 -16.842   3.594  0.00  0.00    -0.001 C 
ATOM      7  C   LIG    1       26.720 -16.405   2.129  0.00  0.00    +0.005 C 
ATOM      8  C   LIG    1       25.919 -17.607   4.435  0.00  0.00    -0.025 C 
ATOM      9  C   LIG    1       24.577 -16.835   4.410  0.00  0.00    +0.012 C 
ATOM     10  C   LIG    1       26.308 -17.750   5.934  0.00  0.00    -0.001 C 
ATOM     11  C   LIG    1       27.244 -18.930   6.148  0.00  0.00    +0.050 C 
ATOM     12  C   LIG    1       26.454 -20.220   5.997  0.00  0.00    +0.194 C 
ATOM     13  C   LIG    1       25.894 -20.364   4.552  0.00  0.00    +0.098 C 
ATOM     14  C   LIG    1       26.921 -16.493   6.552  0.00  0.00    +0.004 C 
ATOM     15  C   LIG    1       25.607 -19.015   3.809  0.00  0.00    +0.029 C 
ATOM     16  C   LIG    1       28.112 -16.021   5.747  0.00  0.00    +0.004 C 
ATOM     17  C   LIG    1       27.764 -13.165   4.683  0.00  0.00    +0.027 C 
ATOM     18  C   LIG    1       26.948 -14.886   1.813  0.00  0.00    +0.011 C 
ATOM     19  C   LIG    1       27.000 -11.916   4.244  0.00  0.00    +0.099 C 
ENDROOT
BRANCH  13  20
ATOM     20  N   LIG    1       24.826 -21.415   4.421  0.00  0.00    -0.286 NA
ATOM     21  C   LIG    1       23.830 -21.542   5.491  0.00  0.00    +0.136 C 
ATOM     22  C   LIG    1       22.782 -20.426   5.484  0.00  0.00    +0.148 C 
ATOM     23  N   LIG    1       22.016 -20.334   4.136  0.00  0.00    +0.241 N 
ATOM     24  C   LIG    1       21.395 -18.940   4.041  0.00  0.00    +0.192 C 
ATOM     25  C   LIG    1       20.882 -21.354   4.133  0.00  0.00    +0.192 C 
ATOM     26  C   LIG    1       22.917 -20.575   2.882  0.00  0.00    +0.148 C 
ATOM     27  C   LIG    1       24.136 -21.509   3.124  0.00  0.00    +0.136 C 
ENDBRANCH  13  20
BRANCH  19  28
ATOM     28  N   LIG    1       25.927 -11.612   5.254  0.00  0.00    -0.286 NA
ATOM     29  C   LIG    1       24.555 -11.542   4.665  0.00  0.00    +0.136 C 
ATOM     30  C   LIG    1       23.965 -12.876   4.140  0.00  0.00    +0.148 C 
ATOM     31  N   LIG    1       24.042 -14.032   5.167  0.00  0.00    +0.241 N 
ATOM     32  C   LIG    1       24.018 -15.358   4.393  0.00  0.00    +0.192 C 
ATOM     33  C   LIG    1       22.826 -14.021   6.089  0.00  0.00    +0.192 C 
ATOM     34  C   LIG    1       25.355 -13.990   5.982  0.00  0.00    +0.148 C 
ATOM     35  C   LIG    1       25.812 -12.566   6.372  0.00  0.00    +0.136 C 
ENDBRANCH  19  28
BRANCH   1  36
ATOM     36  O   LIG    1       25.728 -11.605   2.086  0.00  0.00    -0.459 OA
BRANCH  36  38
ATOM     37  C   LIG    1       24.404 -11.504   4.021  0.00  0.00    +0.136 C 
ATOM     38  C   LIG    1       24.453 -11.681   2.539  0.00  0.00    +0.304 C 
ATOM     39  O   LIG    1       23.454 -11.757   1.819  0.00  0.00    -0.251 OA
ENDBRANCH  36  38
ENDBRANCH   1  36
BRANCH  12  40
ATOM     40  O   LIG    1       27.356 -21.306   6.284  0.00  0.00    -0.460 OA
BRANCH  40  41
ATOM     41  C   LIG    1       28.682 -21.012   6.139  0.00  0.00    +0.304 C 
ATOM     42  O   LIG    1       29.469 -20.852   7.062  0.00  0.00    -0.251 OA
ATOM     43  C   LIG    1       28.997 -20.731   4.702  0.00  0.00    +0.136 C 
ENDBRANCH  40  41
ENDBRANCH  12  40
TORSDOF 6
ENDMDL
