MODEL 1
REMARK VINA RESULT:      -6.1      0.000      0.000
REMARK  Name = *****
REMARK                            x       y       z     vdW  Elec       q    Type
REMARK                         _______ _______ _______ _____ _____    ______ ____
ROOT
ATOM      1  C   LIG    1       25.762 -16.995   3.451  0.00  0.00    +0.341 C 
ATOM      2  O   LIG    1       26.943 -17.299   3.291  0.00  0.00    -0.247 OA
ENDROOT
BRANCH   1   3
ATOM      3  O   LIG    1       24.753 -17.861   3.740  0.00  0.00    -0.459 OA
BRANCH   3  11
ATOM      4  C   LIG    1       26.371 -20.745   6.761  0.00  0.00    +0.007 C 
ATOM      5  C   LIG    1       25.368 -20.048   5.840  0.00  0.00    -0.010 C 
ATOM      6  C   LIG    1       24.065 -20.858   5.763  0.00  0.00    +0.010 C 
ATOM      7  C   LIG    1       23.013 -20.233   4.821  0.00  0.00    -0.031 C 
ATOM      8  C   LIG    1       21.841 -21.223   4.657  0.00  0.00    +0.011 C 
ATOM      9  C   LIG    1       22.437 -18.941   5.433  0.00  0.00    +0.011 C 
ATOM     10  C   LIG    1       23.642 -19.980   3.428  0.00  0.00    +0.051 C 
ATOM     11  C   LIG    1       24.991 -19.246   3.440  0.00  0.00    +0.177 C 
ATOM     12  C   LIG    1       25.972 -19.858   4.441  0.00  0.00    +0.048 C 
ENDBRANCH   3  11
ENDBRANCH   1   3
BRANCH   1  13
ATOM     13  C   LIG    1       25.244 -15.554   3.319  0.00  0.00    +0.253 C 
BRANCH  13  14
ATOM     14  C   LIG    1       26.290 -14.545   3.746  0.00  0.00    -0.008 A 
ATOM     15  C   LIG    1       26.339 -14.054   5.061  0.00  0.00    +0.007 A 
ATOM     16  C   LIG    1       27.341 -13.165   5.453  0.00  0.00    +0.000 A 
ATOM     17  C   LIG    1       28.313 -12.765   4.539  0.00  0.00    +0.000 A 
ATOM     18  C   LIG    1       28.283 -13.249   3.233  0.00  0.00    +0.000 A 
ATOM     19  C   LIG    1       27.277 -14.131   2.837  0.00  0.00    +0.007 A 
ENDBRANCH  13  14
BRANCH  13  20
ATOM     20  O   LIG    1       24.049 -15.347   4.081  0.00  0.00    -0.376 OA
ATOM     21  H   LIG    1       23.750 -16.236   4.355  0.00  0.00    +0.211 HD
ENDBRANCH  13  20
ENDBRANCH   1  13
TORSDOF 5
ENDMDL
MODEL 2
REMARK VINA RESULT:      -5.2      1.612      6.565
REMARK  Name = *****
REMARK                            x       y       z     vdW  Elec       q    Type
REMARK                         _______ _______ _______ _____ _____    ______ ____
ROOT
ATOM      1  C   LIG    1       26.117 -17.315   3.448  0.00  0.00    +0.341 C 
ATOM      2  O   LIG    1       27.212 -17.555   3.954  0.00  0.00    -0.247 OA
ENDROOT
BRANCH   1   3
ATOM      3  O   LIG    1       25.561 -16.081   3.310  0.00  0.00    -0.459 OA
BRANCH   3  11
ATOM      4  C   LIG    1       28.768 -12.972   3.651  0.00  0.00    +0.007 C 
ATOM      5  C   LIG    1       27.381 -13.583   3.438  0.00  0.00    -0.010 C 
ATOM      6  C   LIG    1       26.312 -12.479   3.418  0.00  0.00    +0.010 C 
ATOM      7  C   LIG    1       24.878 -13.022   3.242  0.00  0.00    -0.031 C 
ATOM      8  C   LIG    1       23.879 -11.865   3.444  0.00  0.00    +0.011 C 
ATOM      9  C   LIG    1       24.673 -13.558   1.812  0.00  0.00    +0.011 C 
ATOM     10  C   LIG    1       24.595 -14.108   4.310  0.00  0.00    +0.051 C 
ATOM     11  C   LIG    1       25.669 -15.198   4.440  0.00  0.00    +0.177 C 
ATOM     12  C   LIG    1       27.078 -14.611   4.537  0.00  0.00    +0.048 C 
ENDBRANCH   3  11
ENDBRANCH   1   3
BRANCH   1  13
ATOM     13  C   LIG    1       25.187 -18.412   2.907  0.00  0.00    +0.253 C 
BRANCH  13  14
ATOM     14  C   LIG    1       24.429 -19.101   4.024  0.00  0.00    -0.008 A 
ATOM     15  C   LIG    1       23.056 -18.880   4.221  0.00  0.00    +0.007 A 
ATOM     16  C   LIG    1       22.361 -19.562   5.220  0.00  0.00    +0.000 A 
ATOM     17  C   LIG    1       23.027 -20.483   6.026  0.00  0.00    +0.000 A 
ATOM     18  C   LIG    1       24.386 -20.720   5.838  0.00  0.00    +0.000 A 
ATOM     19  C   LIG    1       25.085 -20.032   4.845  0.00  0.00    +0.007 A 
ENDBRANCH  13  14
BRANCH  13  20
ATOM     20  O   LIG    1       25.905 -19.391   2.148  0.00  0.00    -0.376 OA
ATOM     21  H   LIG    1       25.229 -19.897   1.656  0.00  0.00    +0.211 HD
ENDBRANCH  13  20
ENDBRANCH   1  13
TORSDOF 5
ENDMDL
MODEL 3
REMARK VINA RESULT:      -5.1      1.487      1.912
REMARK  Name = *****
REMARK                            x       y       z     vdW  Elec       q    Type
REMARK                         _______ _______ _______ _____ _____    ______ ____
ROOT
ATOM      1  C   LIG    1       26.044 -17.434   3.268  0.00  0.00    +0.341 C 
ATOM      2  O   LIG    1       26.601 -17.727   2.212  0.00  0.00    -0.247 OA
ENDROOT
BRANCH   1   3
ATOM      3  O   LIG    1       25.056 -18.153   3.868  0.00  0.00    -0.459 OA
BRANCH   3  11
ATOM      4  C   LIG    1       25.745 -21.218   7.061  0.00  0.00    +0.007 C 
ATOM      5  C   LIG    1       25.001 -20.360   6.035  0.00  0.00    -0.010 C 
ATOM      6  C   LIG    1       23.577 -20.896   5.827  0.00  0.00    +0.010 C 
ATOM      7  C   LIG    1       22.774 -20.100   4.776  0.00  0.00    -0.031 C 
ATOM      8  C   LIG    1       21.449 -20.840   4.496  0.00  0.00    +0.011 C 
ATOM      9  C   LIG    1       22.410 -18.702   5.315  0.00  0.00    +0.011 C 
ATOM     10  C   LIG    1       23.579 -20.016   3.455  0.00  0.00    +0.051 C 
ATOM     11  C   LIG    1       25.039 -19.566   3.604  0.00  0.00    +0.177 C 
ATOM     12  C   LIG    1       25.771 -20.333   4.707  0.00  0.00    +0.048 C 
ENDBRANCH   3  11
ENDBRANCH   1   3
BRANCH   1  13
ATOM     13  C   LIG    1       26.380 -16.167   4.069  0.00  0.00    +0.253 C 
BRANCH  13  14
ATOM     14  C   LIG    1       25.623 -14.961   3.547  0.00  0.00    -0.008 A 
ATOM     15  C   LIG    1       24.348 -14.630   4.036  0.00  0.00    +0.007 A 
ATOM     16  C   LIG    1       23.687 -13.488   3.584  0.00  0.00    +0.000 A 
ATOM     17  C   LIG    1       24.296 -12.656   2.647  0.00  0.00    +0.000 A 
ATOM     18  C   LIG    1       25.563 -12.966   2.158  0.00  0.00    +0.000 A 
ATOM     19  C   LIG    1       26.222 -14.113   2.603  0.00  0.00    +0.007 A 
ENDBRANCH  13  14
BRANCH  13  20
ATOM     20  O   LIG    1       27.784 -15.885   4.056  0.00  0.00    -0.376 OA
ATOM     21  H   LIG    1       27.869 -14.941   4.292  0.00  0.00    +0.211 HD
ENDBRANCH  13  20
ENDBRANCH   1  13
TORSDOF 5
ENDMDL
MODEL 4
REMARK VINA RESULT:      -5.0      1.528      6.845
REMARK  Name = *****
REMARK                            x       y       z     vdW  Elec       q    Type
REMARK                         _______ _______ _______ _____ _____    ______ ____
ROOT
ATOM      1  C   LIG    1       26.273 -17.199   3.573  0.00  0.00    +0.341 C 
ATOM      2  O   LIG    1       27.376 -17.520   4.012  0.00  0.00    -0.247 OA
ENDROOT
BRANCH   1   3
ATOM      3  O   LIG    1       25.748 -15.943   3.592  0.00  0.00    -0.459 OA
BRANCH   3  11
ATOM      4  C   LIG    1       23.914 -11.917   2.890  0.00  0.00    +0.007 C 
ATOM      5  C   LIG    1       24.918 -12.972   3.360  0.00  0.00    -0.010 C 
ATOM      6  C   LIG    1       26.224 -12.300   3.809  0.00  0.00    +0.010 C 
ATOM      7  C   LIG    1       27.302 -13.306   4.266  0.00  0.00    -0.031 C 
ATOM      8  C   LIG    1       28.626 -12.548   4.494  0.00  0.00    +0.011 C 
ATOM      9  C   LIG    1       26.908 -13.950   5.610  0.00  0.00    +0.011 C 
ATOM     10  C   LIG    1       27.527 -14.370   3.163  0.00  0.00    +0.051 C 
ATOM     11  C   LIG    1       26.252 -15.022   2.610  0.00  0.00    +0.177 C 
ATOM     12  C   LIG    1       25.187 -13.987   2.240  0.00  0.00    +0.048 C 
ENDBRANCH   3  11
ENDBRANCH   1   3
BRANCH   1  13
ATOM     13  C   LIG    1       25.297 -18.204   2.943  0.00  0.00    +0.253 C 
BRANCH  13  14
ATOM     14  C   LIG    1       24.495 -18.938   3.999  0.00  0.00    -0.008 A 
ATOM     15  C   LIG    1       23.145 -18.632   4.235  0.00  0.00    +0.007 A 
ATOM     16  C   LIG    1       22.405 -19.353   5.174  0.00  0.00    +0.000 A 
ATOM     17  C   LIG    1       23.002 -20.395   5.879  0.00  0.00    +0.000 A 
ATOM     18  C   LIG    1       24.338 -20.717   5.651  0.00  0.00    +0.000 A 
ATOM     19  C   LIG    1       25.082 -19.991   4.718  0.00  0.00    +0.007 A 
ENDBRANCH  13  14
BRANCH  13  20
ATOM     20  O   LIG    1       25.975 -19.158   2.117  0.00  0.00    -0.376 OA
ATOM     21  H   LIG    1       26.612 -18.644   1.583  0.00  0.00    +0.211 HD
ENDBRANCH  13  20
ENDBRANCH   1  13
TORSDOF 5
ENDMDL
MODEL 5
REMARK VINA RESULT:      -4.8      1.651      6.795
REMARK  Name = *****
REMARK                            x       y       z     vdW  Elec       q    Type
REMARK                         _______ _______ _______ _____ _____    ______ ____
ROOT
ATOM      1  C   LIG    1       24.352 -16.864   3.686  0.00  0.00    +0.341 C 
ATOM      2  O   LIG    1       23.203 -16.782   4.115  0.00  0.00    -0.247 OA
ENDROOT
BRANCH   1   3
ATOM      3  O   LIG    1       25.188 -15.814   3.456  0.00  0.00    -0.459 OA
BRANCH   3  11
ATOM      4  C   LIG    1       28.639 -12.966   3.664  0.00  0.00    +0.007 C 
ATOM      5  C   LIG    1       27.208 -13.471   3.469  0.00  0.00    -0.010 C 
ATOM      6  C   LIG    1       26.235 -12.286   3.376  0.00  0.00    +0.010 C 
ATOM      7  C   LIG    1       24.761 -12.719   3.213  0.00  0.00    -0.031 C 
ATOM      8  C   LIG    1       23.860 -11.473   3.339  0.00  0.00    +0.011 C 
ATOM      9  C   LIG    1       24.523 -13.315   1.812  0.00  0.00    +0.011 C 
ATOM     10  C   LIG    1       24.382 -13.717   4.335  0.00  0.00    +0.051 C 
ATOM     11  C   LIG    1       25.361 -14.883   4.537  0.00  0.00    +0.177 C 
ATOM     12  C   LIG    1       26.813 -14.409   4.619  0.00  0.00    +0.048 C 
ENDBRANCH   3  11
ENDBRANCH   1   3
BRANCH   1  13
ATOM     13  C   LIG    1       25.016 -18.199   3.318  0.00  0.00    +0.253 C 
BRANCH  13  14
ATOM     14  C   LIG    1       24.542 -19.323   4.219  0.00  0.00    -0.008 A 
ATOM     15  C   LIG    1       25.448 -20.080   4.980  0.00  0.00    +0.007 A 
ATOM     16  C   LIG    1       24.993 -21.076   5.845  0.00  0.00    +0.000 A 
ATOM     17  C   LIG    1       23.627 -21.320   5.968  0.00  0.00    +0.000 A 
ATOM     18  C   LIG    1       22.715 -20.572   5.226  0.00  0.00    +0.000 A 
ATOM     19  C   LIG    1       23.170 -19.581   4.354  0.00  0.00    +0.007 A 
ENDBRANCH  13  14
BRANCH  13  20
ATOM     20  O   LIG    1       26.444 -18.118   3.375  0.00  0.00    -0.376 OA
ATOM     21  H   LIG    1       26.731 -18.850   3.955  0.00  0.00    +0.211 HD
ENDBRANCH  13  20
ENDBRANCH   1  13
TORSDOF 5
ENDMDL
MODEL 6
REMARK VINA RESULT:      -4.4      1.427      6.919
REMARK  Name = *****
REMARK                            x       y       z     vdW  Elec       q    Type
REMARK                         _______ _______ _______ _____ _____    ______ ____
ROOT
ATOM      1  C   LIG    1       24.242 -16.890   3.849  0.00  0.00    +0.341 C 
ATOM      2  O   LIG    1       23.072 -16.643   4.136  0.00  0.00    -0.247 OA
ENDROOT
BRANCH   1   3
ATOM      3  O   LIG    1       25.279 -16.013   3.929  0.00  0.00    -0.459 OA
BRANCH   3  11
ATOM      4  C   LIG    1       23.831 -11.859   4.771  0.00  0.00    +0.007 C 
ATOM      5  C   LIG    1       24.802 -13.014   4.517  0.00  0.00    -0.010 C 
ATOM      6  C   LIG    1       26.222 -12.473   4.289  0.00  0.00    +0.010 C 
ATOM      7  C   LIG    1       27.255 -13.581   3.990  0.00  0.00    -0.031 C 
ATOM      8  C   LIG    1       28.587 -12.921   3.576  0.00  0.00    +0.011 C 
ATOM      9  C   LIG    1       27.535 -14.417   5.255  0.00  0.00    +0.011 C 
ATOM     10  C   LIG    1       26.756 -14.461   2.817  0.00  0.00    +0.051 C 
ATOM     11  C   LIG    1       25.311 -14.966   2.944  0.00  0.00    +0.177 C 
ATOM     12  C   LIG    1       24.338 -13.845   3.312  0.00  0.00    +0.048 C 
ENDBRANCH   3  11
ENDBRANCH   1   3
BRANCH   1  13
ATOM     13  C   LIG    1       24.704 -18.258   3.323  0.00  0.00    +0.253 C 
BRANCH  13  14
ATOM     14  C   LIG    1       24.390 -19.368   4.306  0.00  0.00    -0.008 A 
ATOM     15  C   LIG    1       25.411 -20.122   4.908  0.00  0.00    +0.007 A 
ATOM     16  C   LIG    1       25.109 -21.104   5.851  0.00  0.00    +0.000 A 
ATOM     17  C   LIG    1       23.785 -21.338   6.214  0.00  0.00    +0.000 A 
ATOM     18  C   LIG    1       22.761 -20.593   5.633  0.00  0.00    +0.000 A 
ATOM     19  C   LIG    1       23.061 -19.615   4.682  0.00  0.00    +0.007 A 
ENDBRANCH  13  14
BRANCH  13  20
ATOM     20  O   LIG    1       26.105 -18.269   3.029  0.00  0.00    -0.376 OA
ATOM     21  H   LIG    1       26.452 -19.098   3.413  0.00  0.00    +0.211 HD
ENDBRANCH  13  20
ENDBRANCH   1  13
TORSDOF 5
ENDMDL
MODEL 7
REMARK VINA RESULT:      -3.4      1.791      6.293
REMARK  Name = *****
REMARK                            x       y       z     vdW  Elec       q    Type
REMARK                         _______ _______ _______ _____ _____    ______ ____
ROOT
ATOM      1  C   LIG    1       26.251 -17.298   3.342  0.00  0.00    +0.341 C 
ATOM      2  O   LIG    1       27.218 -17.558   4.054  0.00  0.00    -0.247 OA
ENDROOT
BRANCH   1   3
ATOM      3  O   LIG    1       25.899 -16.058   2.904  0.00  0.00    -0.459 OA
BRANCH   3  11
ATOM      4  C   LIG    1       25.038 -11.800   1.813  0.00  0.00    +0.007 C 
ATOM      5  C   LIG    1       24.930 -13.143   2.538  0.00  0.00    -0.010 C 
ATOM      6  C   LIG    1       24.039 -13.005   3.782  0.00  0.00    +0.010 C 
ATOM      7  C   LIG    1       23.911 -14.315   4.588  0.00  0.00    -0.031 C 
ATOM      8  C   LIG    1       23.176 -14.016   5.912  0.00  0.00    +0.011 C 
ATOM      9  C   LIG    1       23.062 -15.345   3.818  0.00  0.00    +0.011 C 
ATOM     10  C   LIG    1       25.320 -14.866   4.921  0.00  0.00    +0.051 C 
ATOM     11  C   LIG    1       26.290 -14.950   3.734  0.00  0.00    +0.177 C 
ATOM     12  C   LIG    1       26.326 -13.652   2.924  0.00  0.00    +0.048 C 
ENDBRANCH   3  11
ENDBRANCH   1   3
BRANCH   1  13
ATOM     13  C   LIG    1       25.261 -18.366   2.851  0.00  0.00    +0.253 C 
BRANCH  13  14
ATOM     14  C   LIG    1       24.567 -19.056   4.009  0.00  0.00    -0.008 A 
ATOM     15  C   LIG    1       23.210 -18.825   4.290  0.00  0.00    +0.007 A 
ATOM     16  C   LIG    1       22.572 -19.508   5.326  0.00  0.00    +0.000 A 
ATOM     17  C   LIG    1       23.278 -20.438   6.085  0.00  0.00    +0.000 A 
ATOM     18  C   LIG    1       24.622 -20.685   5.813  0.00  0.00    +0.000 A 
ATOM     19  C   LIG    1       25.264 -19.996   4.783  0.00  0.00    +0.007 A 
ENDBRANCH  13  14
BRANCH  13  20
ATOM     20  O   LIG    1       25.902 -19.349   2.031  0.00  0.00    -0.376 OA
ATOM     21  H   LIG    1       26.430 -18.849   1.377  0.00  0.00    +0.211 HD
ENDBRANCH  13  20
ENDBRANCH   1  13
TORSDOF 5
ENDMDL
