MODEL 1
REMARK VINA RESULT:      -8.1      0.000      0.000
REMARK  Name = *****
REMARK                            x       y       z     vdW  Elec       q    Type
REMARK                         _______ _______ _______ _____ _____    ______ ____
ROOT
ATOM      1  N   LIG    1       30.671 -19.156   7.996  0.00  0.00    -0.225 N 
ATOM      2  C   LIG    1       29.835 -19.109   6.910  0.00  0.00    +0.248 C 
ATOM      3  O   LIG    1       29.599 -18.124   6.223  0.00  0.00    -0.273 OA
ATOM      4  C   LIG    1       29.234 -20.504   6.707  0.00  0.00    +0.191 C 
ATOM      5  N   LIG    1       29.914 -21.231   7.747  0.00  0.00    -0.284 N 
ATOM      6  H   LIG    1       29.749 -22.198   7.991  0.00  0.00    +0.151 HD
ATOM      7  C   LIG    1       30.693 -20.410   8.526  0.00  0.00    +0.309 C 
ATOM      8  O   LIG    1       31.276 -20.783   9.530  0.00  0.00    -0.252 OA
ENDROOT
BRANCH   4   9
ATOM      9  C   LIG    1       27.731 -20.534   6.850  0.00  0.00    -0.018 A 
ATOM     10  C   LIG    1       27.160 -20.711   8.120  0.00  0.00    +0.006 A 
ATOM     11  C   LIG    1       25.773 -20.758   8.278  0.00  0.00    +0.000 A 
ATOM     12  C   LIG    1       24.938 -20.637   7.169  0.00  0.00    +0.000 A 
ATOM     13  C   LIG    1       25.488 -20.477   5.901  0.00  0.00    +0.000 A 
ATOM     14  C   LIG    1       26.875 -20.431   5.741  0.00  0.00    +0.006 A 
ENDBRANCH   4   9
BRANCH   1  16
ATOM     15  C   LIG    1       30.497 -17.248   9.537  0.00  0.00    +0.025 C 
ATOM     16  C   LIG    1       31.365 -18.013   8.550  0.00  0.00    +0.114 C 
ENDBRANCH   1  16
TORSDOF 2
ENDMDL
MODEL 2
REMARK VINA RESULT:      -7.6      2.953      4.208
REMARK  Name = *****
REMARK                            x       y       z     vdW  Elec       q    Type
REMARK                         _______ _______ _______ _____ _____    ______ ____
ROOT
ATOM      1  N   LIG    1       27.471 -20.172   7.410  0.00  0.00    -0.225 N 
ATOM      2  C   LIG    1       26.305 -20.590   7.998  0.00  0.00    +0.248 C 
ATOM      3  O   LIG    1       26.133 -20.793   9.193  0.00  0.00    -0.273 OA
ATOM      4  C   LIG    1       25.252 -20.772   6.900  0.00  0.00    +0.191 C 
ATOM      5  N   LIG    1       26.001 -20.335   5.751  0.00  0.00    -0.284 N 
ATOM      6  H   LIG    1       25.674 -20.357   4.795  0.00  0.00    +0.151 HD
ATOM      7  C   LIG    1       27.310 -20.056   6.063  0.00  0.00    +0.309 C 
ATOM      8  O   LIG    1       28.158 -19.772   5.234  0.00  0.00    -0.252 OA
ENDROOT
BRANCH   4   9
ATOM      9  C   LIG    1       24.757 -22.193   6.777  0.00  0.00    -0.018 A 
ATOM     10  C   LIG    1       23.377 -22.450   6.800  0.00  0.00    +0.006 A 
ATOM     11  C   LIG    1       22.893 -23.757   6.703  0.00  0.00    +0.000 A 
ATOM     12  C   LIG    1       23.781 -24.825   6.591  0.00  0.00    +0.000 A 
ATOM     13  C   LIG    1       25.153 -24.589   6.584  0.00  0.00    +0.000 A 
ATOM     14  C   LIG    1       25.638 -23.284   6.681  0.00  0.00    +0.006 A 
ENDBRANCH   4   9
BRANCH   1  16
ATOM     15  C   LIG    1       29.587 -21.216   8.102  0.00  0.00    +0.025 C 
ATOM     16  C   LIG    1       28.720 -19.966   8.113  0.00  0.00    +0.114 C 
ENDBRANCH   1  16
TORSDOF 2
ENDMDL
MODEL 3
REMARK VINA RESULT:      -7.4      3.087      5.440
REMARK  Name = *****
REMARK                            x       y       z     vdW  Elec       q    Type
REMARK                         _______ _______ _______ _____ _____    ______ ____
ROOT
ATOM      1  N   LIG    1       24.766 -21.810   7.263  0.00  0.00    -0.225 N 
ATOM      2  C   LIG    1       25.735 -21.296   8.086  0.00  0.00    +0.248 C 
ATOM      3  O   LIG    1       25.567 -20.458   8.963  0.00  0.00    -0.273 OA
ATOM      4  C   LIG    1       27.073 -21.944   7.714  0.00  0.00    +0.191 C 
ATOM      5  N   LIG    1       26.639 -22.861   6.693  0.00  0.00    -0.284 N 
ATOM      6  H   LIG    1       27.244 -23.451   6.138  0.00  0.00    +0.151 HD
ATOM      7  C   LIG    1       25.304 -22.716   6.401  0.00  0.00    +0.309 C 
ATOM      8  O   LIG    1       24.740 -23.309   5.497  0.00  0.00    -0.252 OA
ENDROOT
BRANCH   4   9
ATOM      9  C   LIG    1       28.100 -20.954   7.221  0.00  0.00    -0.018 A 
ATOM     10  C   LIG    1       29.350 -20.879   7.855  0.00  0.00    +0.006 A 
ATOM     11  C   LIG    1       30.312 -19.960   7.429  0.00  0.00    +0.000 A 
ATOM     12  C   LIG    1       30.036 -19.099   6.370  0.00  0.00    +0.000 A 
ATOM     13  C   LIG    1       28.795 -19.149   5.740  0.00  0.00    +0.000 A 
ATOM     14  C   LIG    1       27.832 -20.066   6.166  0.00  0.00    +0.006 A 
ENDBRANCH   4   9
BRANCH   1  16
ATOM     15  C   LIG    1       23.109 -20.365   6.162  0.00  0.00    +0.025 C 
ATOM     16  C   LIG    1       23.382 -21.385   7.257  0.00  0.00    +0.114 C 
ENDBRANCH   1  16
TORSDOF 2
ENDMDL
MODEL 4
REMARK VINA RESULT:      -7.3      5.105      6.654
REMARK  Name = *****
REMARK                            x       y       z     vdW  Elec       q    Type
REMARK                         _______ _______ _______ _____ _____    ______ ____
ROOT
ATOM      1  N   LIG    1       24.311 -23.774   6.740  0.00  0.00    -0.225 N 
ATOM      2  C   LIG    1       23.270 -22.887   6.647  0.00  0.00    +0.248 C 
ATOM      3  O   LIG    1       22.112 -23.162   6.361  0.00  0.00    -0.273 OA
ATOM      4  C   LIG    1       23.806 -21.484   6.952  0.00  0.00    +0.191 C 
ATOM      5  N   LIG    1       25.175 -21.795   7.268  0.00  0.00    -0.284 N 
ATOM      6  H   LIG    1       25.898 -21.119   7.473  0.00  0.00    +0.151 HD
ATOM      7  C   LIG    1       25.461 -23.125   7.072  0.00  0.00    +0.309 C 
ATOM      8  O   LIG    1       26.581 -23.598   7.171  0.00  0.00    -0.252 OA
ENDROOT
BRANCH   4   9
ATOM      9  C   LIG    1       23.670 -20.526   5.793  0.00  0.00    -0.018 A 
ATOM     10  C   LIG    1       24.728 -20.387   4.881  0.00  0.00    +0.006 A 
ATOM     11  C   LIG    1       24.634 -19.497   3.810  0.00  0.00    +0.000 A 
ATOM     12  C   LIG    1       23.485 -18.728   3.638  0.00  0.00    +0.000 A 
ATOM     13  C   LIG    1       22.432 -18.842   4.542  0.00  0.00    +0.000 A 
ATOM     14  C   LIG    1       22.526 -19.730   5.614  0.00  0.00    +0.006 A 
ENDBRANCH   4   9
BRANCH   1  16
ATOM     15  C   LIG    1       24.813 -25.521   5.085  0.00  0.00    +0.025 C 
ATOM     16  C   LIG    1       24.217 -25.188   6.444  0.00  0.00    +0.114 C 
ENDBRANCH   1  16
TORSDOF 2
ENDMDL
MODEL 5
REMARK VINA RESULT:      -7.3      5.574      6.966
REMARK  Name = *****
REMARK                            x       y       z     vdW  Elec       q    Type
REMARK                         _______ _______ _______ _____ _____    ______ ____
ROOT
ATOM      1  N   LIG    1       24.474 -25.039   6.282  0.00  0.00    -0.225 N 
ATOM      2  C   LIG    1       23.642 -24.019   6.668  0.00  0.00    +0.248 C 
ATOM      3  O   LIG    1       22.426 -24.086   6.787  0.00  0.00    -0.273 OA
ATOM      4  C   LIG    1       24.496 -22.771   6.914  0.00  0.00    +0.191 C 
ATOM      5  N   LIG    1       25.811 -23.309   6.681  0.00  0.00    -0.284 N 
ATOM      6  H   LIG    1       26.671 -22.778   6.686  0.00  0.00    +0.151 HD
ATOM      7  C   LIG    1       25.766 -24.613   6.249  0.00  0.00    +0.309 C 
ATOM      8  O   LIG    1       26.748 -25.240   5.888  0.00  0.00    -0.252 OA
ENDROOT
BRANCH   4   9
ATOM      9  C   LIG    1       24.156 -21.623   5.993  0.00  0.00    -0.018 A 
ATOM     10  C   LIG    1       23.081 -20.778   6.308  0.00  0.00    +0.006 A 
ATOM     11  C   LIG    1       22.735 -19.719   5.466  0.00  0.00    +0.000 A 
ATOM     12  C   LIG    1       23.454 -19.494   4.294  0.00  0.00    +0.000 A 
ATOM     13  C   LIG    1       24.513 -20.333   3.958  0.00  0.00    +0.000 A 
ATOM     14  C   LIG    1       24.859 -21.393   4.798  0.00  0.00    +0.006 A 
ENDBRANCH   4   9
BRANCH   1  16
ATOM     15  C   LIG    1       24.704 -27.450   6.702  0.00  0.00    +0.025 C 
ATOM     16  C   LIG    1       24.029 -26.358   5.886  0.00  0.00    +0.114 C 
ENDBRANCH   1  16
TORSDOF 2
ENDMDL
MODEL 6
REMARK VINA RESULT:      -7.2      1.502      5.154
REMARK  Name = *****
REMARK                            x       y       z     vdW  Elec       q    Type
REMARK                         _______ _______ _______ _____ _____    ______ ____
ROOT
ATOM      1  N   LIG    1       28.839 -20.695   7.171  0.00  0.00    -0.225 N 
ATOM      2  C   LIG    1       29.944 -20.681   7.983  0.00  0.00    +0.248 C 
ATOM      3  O   LIG    1       30.157 -21.435   8.924  0.00  0.00    -0.273 OA
ATOM      4  C   LIG    1       30.866 -19.549   7.519  0.00  0.00    +0.191 C 
ATOM      5  N   LIG    1       30.136 -19.076   6.373  0.00  0.00    -0.284 N 
ATOM      6  H   LIG    1       30.386 -18.277   5.806  0.00  0.00    +0.151 HD
ATOM      7  C   LIG    1       28.926 -19.714   6.231  0.00  0.00    +0.309 C 
ATOM      8  O   LIG    1       28.092 -19.405   5.397  0.00  0.00    -0.252 OA
ENDROOT
BRANCH   4   9
ATOM      9  C   LIG    1       31.077 -18.482   8.567  0.00  0.00    -0.018 A 
ATOM     10  C   LIG    1       30.035 -18.165   9.452  0.00  0.00    +0.006 A 
ATOM     11  C   LIG    1       30.199 -17.171  10.420  0.00  0.00    +0.000 A 
ATOM     12  C   LIG    1       31.402 -16.475  10.511  0.00  0.00    +0.000 A 
ATOM     13  C   LIG    1       32.440 -16.766   9.630  0.00  0.00    +0.000 A 
ATOM     14  C   LIG    1       32.278 -17.758   8.661  0.00  0.00    +0.006 A 
ENDBRANCH   4   9
BRANCH   1  16
ATOM     15  C   LIG    1       26.622 -20.940   8.206  0.00  0.00    +0.025 C 
ATOM     16  C   LIG    1       27.702 -21.574   7.343  0.00  0.00    +0.114 C 
ENDBRANCH   1  16
TORSDOF 2
ENDMDL
MODEL 7
REMARK VINA RESULT:      -7.1      2.635      3.754
REMARK  Name = *****
REMARK                            x       y       z     vdW  Elec       q    Type
REMARK                         _______ _______ _______ _____ _____    ______ ____
ROOT
ATOM      1  N   LIG    1       27.479 -20.547   7.330  0.00  0.00    -0.225 N 
ATOM      2  C   LIG    1       27.188 -20.382   6.000  0.00  0.00    +0.248 C 
ATOM      3  O   LIG    1       27.803 -19.679   5.209  0.00  0.00    -0.273 OA
ATOM      4  C   LIG    1       25.950 -21.224   5.672  0.00  0.00    +0.191 C 
ATOM      5  N   LIG    1       25.724 -21.856   6.945  0.00  0.00    -0.284 N 
ATOM      6  H   LIG    1       24.946 -22.460   7.170  0.00  0.00    +0.151 HD
ATOM      7  C   LIG    1       26.586 -21.394   7.911  0.00  0.00    +0.309 C 
ATOM      8  O   LIG    1       26.513 -21.706   9.088  0.00  0.00    -0.252 OA
ENDROOT
BRANCH   4   9
ATOM      9  C   LIG    1       24.774 -20.399   5.205  0.00  0.00    -0.018 A 
ATOM     10  C   LIG    1       23.584 -20.405   5.949  0.00  0.00    +0.006 A 
ATOM     11  C   LIG    1       22.477 -19.664   5.530  0.00  0.00    +0.000 A 
ATOM     12  C   LIG    1       22.540 -18.914   4.358  0.00  0.00    +0.000 A 
ATOM     13  C   LIG    1       23.707 -18.910   3.599  0.00  0.00    +0.000 A 
ATOM     14  C   LIG    1       24.814 -19.651   4.016  0.00  0.00    +0.006 A 
ENDBRANCH   4   9
BRANCH   1  16
ATOM     15  C   LIG    1       29.863 -20.585   7.926  0.00  0.00    +0.025 C 
ATOM     16  C   LIG    1       28.536 -19.851   8.034  0.00  0.00    +0.114 C 
ENDBRANCH   1  16
TORSDOF 2
ENDMDL
MODEL 8
REMARK VINA RESULT:      -7.0      3.707      6.217
REMARK  Name = *****
REMARK                            x       y       z     vdW  Elec       q    Type
REMARK                         _______ _______ _______ _____ _____    ______ ____
ROOT
ATOM      1  N   LIG    1       23.547 -20.722   5.471  0.00  0.00    -0.225 N 
ATOM      2  C   LIG    1       24.259 -20.837   6.637  0.00  0.00    +0.248 C 
ATOM      3  O   LIG    1       23.928 -20.398   7.731  0.00  0.00    -0.273 OA
ATOM      4  C   LIG    1       25.551 -21.603   6.337  0.00  0.00    +0.191 C 
ATOM      5  N   LIG    1       25.354 -21.903   4.943  0.00  0.00    -0.284 N 
ATOM      6  H   LIG    1       26.025 -22.359   4.340  0.00  0.00    +0.151 HD
ATOM      7  C   LIG    1       24.213 -21.321   4.446  0.00  0.00    +0.309 C 
ATOM      8  O   LIG    1       23.898 -21.347   3.268  0.00  0.00    -0.252 OA
ENDROOT
BRANCH   4   9
ATOM      9  C   LIG    1       26.800 -20.795   6.597  0.00  0.00    -0.018 A 
ATOM     10  C   LIG    1       27.389 -20.074   5.547  0.00  0.00    +0.006 A 
ATOM     11  C   LIG    1       28.553 -19.331   5.758  0.00  0.00    +0.000 A 
ATOM     12  C   LIG    1       29.148 -19.305   7.017  0.00  0.00    +0.000 A 
ATOM     13  C   LIG    1       28.586 -20.028   8.065  0.00  0.00    +0.000 A 
ATOM     14  C   LIG    1       27.423 -20.772   7.856  0.00  0.00    +0.006 A 
ENDBRANCH   4   9
BRANCH   1  16
ATOM     15  C   LIG    1       22.510 -18.648   4.655  0.00  0.00    +0.025 C 
ATOM     16  C   LIG    1       22.304 -19.993   5.334  0.00  0.00    +0.114 C 
ENDBRANCH   1  16
TORSDOF 2
ENDMDL
MODEL 9
REMARK VINA RESULT:      -6.9      3.928      5.259
REMARK  Name = *****
REMARK                            x       y       z     vdW  Elec       q    Type
REMARK                         _______ _______ _______ _____ _____    ______ ____
ROOT
ATOM      1  N   LIG    1       26.386 -20.754   7.135  0.00  0.00    -0.225 N 
ATOM      2  C   LIG    1       25.723 -21.703   7.870  0.00  0.00    +0.248 C 
ATOM      3  O   LIG    1       25.983 -22.036   9.019  0.00  0.00    -0.273 OA
ATOM      4  C   LIG    1       24.603 -22.287   7.003  0.00  0.00    +0.191 C 
ATOM      5  N   LIG    1       24.748 -21.481   5.819  0.00  0.00    -0.284 N 
ATOM      6  H   LIG    1       24.221 -21.594   4.964  0.00  0.00    +0.151 HD
ATOM      7  C   LIG    1       25.835 -20.643   5.894  0.00  0.00    +0.309 C 
ATOM      8  O   LIG    1       26.218 -19.946   4.969  0.00  0.00    -0.252 OA
ENDROOT
BRANCH   4   9
ATOM      9  C   LIG    1       24.762 -23.764   6.735  0.00  0.00    -0.018 A 
ATOM     10  C   LIG    1       26.046 -24.332   6.725  0.00  0.00    +0.006 A 
ATOM     11  C   LIG    1       26.222 -25.692   6.465  0.00  0.00    +0.000 A 
ATOM     12  C   LIG    1       25.120 -26.503   6.202  0.00  0.00    +0.000 A 
ATOM     13  C   LIG    1       23.841 -25.953   6.192  0.00  0.00    +0.000 A 
ATOM     14  C   LIG    1       23.664 -24.592   6.451  0.00  0.00    +0.006 A 
ENDBRANCH   4   9
BRANCH   1  16
ATOM     15  C   LIG    1       28.841 -20.782   7.258  0.00  0.00    +0.025 C 
ATOM     16  C   LIG    1       27.558 -20.034   7.585  0.00  0.00    +0.114 C 
ENDBRANCH   1  16
TORSDOF 2
ENDMDL
