MODEL 1
REMARK VINA RESULT:      29.3      0.000      0.000
REMARK  Name = *****
REMARK                            x       y       z     vdW  Elec       q    Type
REMARK                         _______ _______ _______ _____ _____    ______ ____
ROOT
ATOM      1  C   LIG    1       22.274 -20.562   3.309  0.00  0.00    +0.180 C 
ATOM      2  C   LIG    1       22.097 -20.147   4.781  0.00  0.00    +0.075 C 
ATOM      3  C   LIG    1       22.754 -18.818   5.093  0.00  0.00    -0.064 C 
ATOM      4  C   LIG    1       22.089 -17.867   5.767  0.00  0.00    -0.027 C 
ATOM      5  C   LIG    1       22.591 -16.485   6.031  0.00  0.00    +0.031 C 
ATOM      6  C   LIG    1       23.902 -16.085   5.319  0.00  0.00    +0.001 C 
ATOM      7  C   LIG    1       24.820 -17.303   5.096  0.00  0.00    +0.003 C 
ATOM      8  C   LIG    1       26.129 -16.835   4.441  0.00  0.00    +0.005 C 
ATOM      9  C   LIG    1       25.948 -16.042   3.158  0.00  0.00    +0.012 C 
ATOM     10  C   LIG    1       24.978 -14.848   3.252  0.00  0.00    -0.003 C 
ATOM     11  C   LIG    1       24.586 -14.424   1.812  0.00  0.00    +0.016 C 
ATOM     12  C   LIG    1       25.472 -13.618   4.018  0.00  0.00    -0.036 C 
ATOM     13  C   LIG    1       24.444 -13.035   4.662  0.00  0.00    -0.022 C 
ATOM     14  C   LIG    1       23.166 -13.794   4.495  0.00  0.00    +0.032 C 
ATOM     15  C   LIG    1       23.673 -15.191   4.060  0.00  0.00    +0.007 C 
ATOM     16  C   LIG    1       24.138 -18.598   4.493  0.00  0.00    -0.008 C 
ATOM     17  C   LIG    1       25.069 -19.791   4.866  0.00  0.00    +0.016 C 
ATOM     18  C   LIG    1       23.934 -18.589   2.957  0.00  0.00    +0.015 C 
ATOM     19  C   LIG    1       22.740 -19.404   2.422  0.00  0.00    +0.046 C 
ENDROOT
BRANCH  12  20
ATOM     20  C   LIG    1       26.843 -13.074   4.022  0.00  0.00    -0.004 A 
ATOM     21  C   LIG    1       27.431 -12.585   5.192  0.00  0.00    +0.119 A 
ATOM     22  N   LIG    1       28.694 -12.095   5.293  0.00  0.00    -0.263 NA
ATOM     23  C   LIG    1       29.431 -12.095   4.166  0.00  0.00    +0.111 A 
ATOM     24  C   LIG    1       28.960 -12.553   2.950  0.00  0.00    +0.020 A 
ATOM     25  C   LIG    1       27.652 -13.034   2.882  0.00  0.00    +0.011 A 
ENDBRANCH  12  20
BRANCH   1  26
ATOM     26  O   LIG    1       20.992 -21.024   2.821  0.00  0.00    -0.461 OA
BRANCH  26  28
ATOM     27  C   LIG    1       19.428 -19.275   2.964  0.00  0.00    +0.136 C 
ATOM     28  C   LIG    1       19.894 -20.594   3.495  0.00  0.00    +0.304 C 
ATOM     29  O   LIG    1       19.360 -21.179   4.431  0.00  0.00    -0.251 OA
ENDBRANCH  26  28
ENDBRANCH   1  26
TORSDOF 3
ENDMDL
