MODEL 1
REMARK VINA RESULT:      -2.2      0.000      0.000
REMARK  Name = *****
REMARK                            x       y       z     vdW  Elec       q    Type
REMARK                         _______ _______ _______ _____ _____    ______ ____
ROOT
ATOM      1  C   LIG    1       28.408 -19.112   5.195  0.00  0.00    +0.050 C 
ATOM      2  C   LIG    1       27.040 -19.451   5.753  0.00  0.00    +0.173 C 
ATOM      3  S   LIG    1       27.040 -20.698   7.061  0.00  0.00    -0.127 S 
ATOM      4  C   LIG    1       25.626 -21.572   6.328  0.00  0.00    +0.108 C 
ATOM      5  C   LIG    1       25.045 -20.591   5.297  0.00  0.00    +0.095 C 
ATOM      6  C   LIG    1       24.239 -21.304   4.169  0.00  0.00    +0.026 C 
ATOM      7  C   LIG    1       24.122 -20.307   2.998  0.00  0.00    +0.022 C 
ATOM      8  C   LIG    1       23.653 -18.958   3.573  0.00  0.00    +0.085 C 
ATOM      9  N   LIG    1       23.029 -19.120   4.915  0.00  0.00    -0.299 NA
ATOM     10  C   LIG    1       22.058 -20.227   4.842  0.00  0.00    +0.085 C 
ATOM     11  C   LIG    1       22.785 -21.572   4.640  0.00  0.00    +0.022 C 
ATOM     12  C   LIG    1       24.077 -19.521   5.905  0.00  0.00    +0.120 C 
ATOM     13  O   LIG    1       26.200 -19.939   4.703  0.00  0.00    -0.358 OA
ENDROOT
TORSDOF 0
ENDMDL
MODEL 2
REMARK VINA RESULT:      -1.7      6.099      7.884
REMARK  Name = *****
REMARK                            x       y       z     vdW  Elec       q    Type
REMARK                         _______ _______ _______ _____ _____    ______ ____
ROOT
ATOM      1  C   LIG    1       22.965 -15.486   4.358  0.00  0.00    +0.050 C 
ATOM      2  C   LIG    1       23.897 -14.299   4.229  0.00  0.00    +0.173 C 
ATOM      3  S   LIG    1       23.505 -13.167   2.877  0.00  0.00    -0.127 S 
ATOM      4  C   LIG    1       25.246 -13.054   2.370  0.00  0.00    +0.108 C 
ATOM      5  C   LIG    1       26.040 -13.646   3.545  0.00  0.00    +0.095 C 
ATOM      6  C   LIG    1       27.439 -14.189   3.119  0.00  0.00    +0.026 C 
ATOM      7  C   LIG    1       27.913 -15.140   4.235  0.00  0.00    +0.022 C 
ATOM      8  C   LIG    1       27.722 -14.420   5.582  0.00  0.00    +0.085 C 
ATOM      9  N   LIG    1       27.598 -12.946   5.404  0.00  0.00    -0.299 NA
ATOM     10  C   LIG    1       28.685 -12.496   4.516  0.00  0.00    +0.085 C 
ATOM     11  C   LIG    1       28.472 -13.032   3.086  0.00  0.00    +0.022 C 
ATOM     12  C   LIG    1       26.308 -12.637   4.711  0.00  0.00    +0.120 C 
ATOM     13  O   LIG    1       25.236 -14.759   4.022  0.00  0.00    -0.358 OA
ENDROOT
TORSDOF 0
ENDMDL
MODEL 3
REMARK VINA RESULT:      -1.2      1.809      2.747
REMARK  Name = *****
REMARK                            x       y       z     vdW  Elec       q    Type
REMARK                         _______ _______ _______ _____ _____    ______ ____
ROOT
ATOM      1  C   LIG    1       27.620 -20.032   5.702  0.00  0.00    +0.050 C 
ATOM      2  C   LIG    1       26.424 -20.089   4.773  0.00  0.00    +0.173 C 
ATOM      3  S   LIG    1       26.441 -18.871   3.438  0.00  0.00    -0.127 S 
ATOM      4  C   LIG    1       24.693 -18.453   3.700  0.00  0.00    +0.108 C 
ATOM      5  C   LIG    1       24.146 -19.578   4.593  0.00  0.00    +0.095 C 
ATOM      6  C   LIG    1       22.890 -19.146   5.412  0.00  0.00    +0.026 C 
ATOM      7  C   LIG    1       22.735 -20.155   6.567  0.00  0.00    +0.022 C 
ATOM      8  C   LIG    1       22.842 -21.572   5.973  0.00  0.00    +0.085 C 
ATOM      9  N   LIG    1       22.599 -21.571   4.504  0.00  0.00    -0.299 NA
ATOM     10  C   LIG    1       21.377 -20.790   4.239  0.00  0.00    +0.085 C 
ATOM     11  C   LIG    1       21.612 -19.298   4.546  0.00  0.00    +0.022 C 
ATOM     12  C   LIG    1       23.726 -20.869   3.814  0.00  0.00    +0.120 C 
ATOM     13  O   LIG    1       25.223 -19.881   5.521  0.00  0.00    -0.358 OA
ENDROOT
TORSDOF 0
ENDMDL
MODEL 4
REMARK VINA RESULT:      -0.8      5.260      6.594
REMARK  Name = *****
REMARK                            x       y       z     vdW  Elec       q    Type
REMARK                         _______ _______ _______ _____ _____    ______ ____
ROOT
ATOM      1  C   LIG    1       24.644 -18.332   3.616  0.00  0.00    +0.050 C 
ATOM      2  C   LIG    1       25.569 -17.198   3.224  0.00  0.00    +0.173 C 
ATOM      3  S   LIG    1       27.288 -17.405   3.741  0.00  0.00    -0.127 S 
ATOM      4  C   LIG    1       27.396 -15.686   4.321  0.00  0.00    +0.108 C 
ATOM      5  C   LIG    1       26.164 -14.988   3.723  0.00  0.00    +0.095 C 
ATOM      6  C   LIG    1       25.732 -13.725   4.530  0.00  0.00    +0.026 C 
ATOM      7  C   LIG    1       24.277 -13.410   4.129  0.00  0.00    +0.022 C 
ATOM      8  C   LIG    1       24.196 -13.431   2.592  0.00  0.00    +0.085 C 
ATOM      9  N   LIG    1       25.540 -13.283   1.969  0.00  0.00    -0.299 NA
ATOM     10  C   LIG    1       26.228 -12.152   2.620  0.00  0.00    +0.085 C 
ATOM     11  C   LIG    1       26.566 -12.496   4.084  0.00  0.00    +0.022 C 
ATOM     12  C   LIG    1       26.354 -14.508   2.245  0.00  0.00    +0.120 C 
ATOM     13  O   LIG    1       25.099 -15.974   3.796  0.00  0.00    -0.358 OA
ENDROOT
TORSDOF 0
ENDMDL
MODEL 5
REMARK VINA RESULT:      -0.2      6.548      8.132
REMARK  Name = *****
REMARK                            x       y       z     vdW  Elec       q    Type
REMARK                         _______ _______ _______ _____ _____    ______ ____
ROOT
ATOM      1  C   LIG    1       23.147 -11.448   5.284  0.00  0.00    +0.050 C 
ATOM      2  C   LIG    1       24.073 -12.173   4.330  0.00  0.00    +0.173 C 
ATOM      3  S   LIG    1       23.313 -13.538   3.422  0.00  0.00    -0.127 S 
ATOM      4  C   LIG    1       24.737 -14.626   3.722  0.00  0.00    +0.108 C 
ATOM      5  C   LIG    1       25.853 -13.691   4.213  0.00  0.00    +0.095 C 
ATOM      6  C   LIG    1       26.929 -14.428   5.069  0.00  0.00    +0.026 C 
ATOM      7  C   LIG    1       27.693 -13.349   5.861  0.00  0.00    +0.022 C 
ATOM      8  C   LIG    1       28.094 -12.235   4.876  0.00  0.00    +0.085 C 
ATOM      9  N   LIG    1       28.056 -12.711   3.465  0.00  0.00    -0.299 NA
ATOM     10  C   LIG    1       28.768 -14.000   3.393  0.00  0.00    +0.085 C 
ATOM     11  C   LIG    1       27.981 -15.094   4.143  0.00  0.00    +0.022 C 
ATOM     12  C   LIG    1       26.638 -12.970   3.066  0.00  0.00    +0.120 C 
ATOM     13  O   LIG    1       25.184 -12.711   5.053  0.00  0.00    -0.358 OA
ENDROOT
TORSDOF 0
ENDMDL
MODEL 6
REMARK VINA RESULT:      -0.0      6.537      7.432
REMARK  Name = *****
REMARK                            x       y       z     vdW  Elec       q    Type
REMARK                         _______ _______ _______ _____ _____    ______ ____
ROOT
ATOM      1  C   LIG    1       28.895 -11.973   5.186  0.00  0.00    +0.050 C 
ATOM      2  C   LIG    1       27.887 -13.001   4.716  0.00  0.00    +0.173 C 
ATOM      3  S   LIG    1       28.516 -14.184   3.504  0.00  0.00    -0.127 S 
ATOM      4  C   LIG    1       27.030 -14.027   2.471  0.00  0.00    +0.108 C 
ATOM      5  C   LIG    1       26.001 -13.316   3.364  0.00  0.00    +0.095 C 
ATOM      6  C   LIG    1       24.906 -12.564   2.546  0.00  0.00    +0.026 C 
ATOM      7  C   LIG    1       24.248 -11.547   3.501  0.00  0.00    +0.022 C 
ATOM      8  C   LIG    1       23.893 -12.285   4.805  0.00  0.00    +0.085 C 
ATOM      9  N   LIG    1       23.848 -13.761   4.606  0.00  0.00    -0.299 NA
ATOM     10  C   LIG    1       23.045 -14.040   3.401  0.00  0.00    +0.085 C 
ATOM     11  C   LIG    1       23.778 -13.547   2.137  0.00  0.00    +0.022 C 
ATOM     12  C   LIG    1       25.230 -14.269   4.338  0.00  0.00    +0.120 C 
ATOM     13  O   LIG    1       26.767 -12.340   4.121  0.00  0.00    -0.358 OA
ENDROOT
TORSDOF 0
ENDMDL
MODEL 7
REMARK VINA RESULT:       0.3      5.054      6.284
REMARK  Name = *****
REMARK                            x       y       z     vdW  Elec       q    Type
REMARK                         _______ _______ _______ _____ _____    ______ ____
ROOT
ATOM      1  C   LIG    1       28.991 -17.849   4.826  0.00  0.00    +0.050 C 
ATOM      2  C   LIG    1       27.676 -17.111   4.675  0.00  0.00    +0.173 C 
ATOM      3  S   LIG    1       26.404 -18.004   3.754  0.00  0.00    -0.127 S 
ATOM      4  C   LIG    1       25.958 -16.526   2.797  0.00  0.00    +0.108 C 
ATOM      5  C   LIG    1       26.615 -15.355   3.545  0.00  0.00    +0.095 C 
ATOM      6  C   LIG    1       26.871 -14.118   2.630  0.00  0.00    +0.026 C 
ATOM      7  C   LIG    1       27.916 -13.238   3.343  0.00  0.00    +0.022 C 
ATOM      8  C   LIG    1       27.465 -13.060   4.805  0.00  0.00    +0.085 C 
ATOM      9  N   LIG    1       26.016 -13.361   4.973  0.00  0.00    -0.299 NA
ATOM     10  C   LIG    1       25.272 -12.650   3.918  0.00  0.00    +0.085 C 
ATOM     11  C   LIG    1       25.587 -13.252   2.534  0.00  0.00    +0.022 C 
ATOM     12  C   LIG    1       25.786 -14.825   4.762  0.00  0.00    +0.120 C 
ATOM     13  O   LIG    1       27.897 -15.870   3.999  0.00  0.00    -0.358 OA
ENDROOT
TORSDOF 0
ENDMDL
MODEL 8
REMARK VINA RESULT:       0.3      5.797      7.237
REMARK  Name = *****
REMARK                            x       y       z     vdW  Elec       q    Type
REMARK                         _______ _______ _______ _____ _____    ______ ____
ROOT
ATOM      1  C   LIG    1       21.861 -15.820   6.165  0.00  0.00    +0.050 C 
ATOM      2  C   LIG    1       22.578 -15.514   4.866  0.00  0.00    +0.173 C 
ATOM      3  S   LIG    1       23.332 -16.943   4.057  0.00  0.00    -0.127 S 
ATOM      4  C   LIG    1       24.866 -16.032   3.716  0.00  0.00    +0.108 C 
ATOM      5  C   LIG    1       24.512 -14.555   3.956  0.00  0.00    +0.095 C 
ATOM      6  C   LIG    1       25.757 -13.681   4.299  0.00  0.00    +0.026 C 
ATOM      7  C   LIG    1       25.234 -12.388   4.955  0.00  0.00    +0.022 C 
ATOM      8  C   LIG    1       24.100 -11.836   4.072  0.00  0.00    +0.085 C 
ATOM      9  N   LIG    1       24.154 -12.398   2.694  0.00  0.00    -0.299 NA
ATOM     10  C   LIG    1       25.540 -12.289   2.205  0.00  0.00    +0.085 C 
ATOM     11  C   LIG    1       26.469 -13.233   2.995  0.00  0.00    +0.022 C 
ATOM     12  C   LIG    1       23.819 -13.856   2.739  0.00  0.00    +0.120 C 
ATOM     13  O   LIG    1       23.620 -14.563   5.104  0.00  0.00    -0.358 OA
ENDROOT
TORSDOF 0
ENDMDL
MODEL 9
REMARK VINA RESULT:       0.5      6.200      6.971
REMARK  Name = *****
REMARK                            x       y       z     vdW  Elec       q    Type
REMARK                         _______ _______ _______ _____ _____    ______ ____
ROOT
ATOM      1  C   LIG    1       29.475 -12.422   3.584  0.00  0.00    +0.050 C 
ATOM      2  C   LIG    1       28.108 -12.456   4.236  0.00  0.00    +0.173 C 
ATOM      3  S   LIG    1       28.103 -12.971   5.967  0.00  0.00    -0.127 S 
ATOM      4  C   LIG    1       26.676 -14.066   5.713  0.00  0.00    +0.108 C 
ATOM      5  C   LIG    1       26.099 -13.655   4.349  0.00  0.00    +0.095 C 
ATOM      6  C   LIG    1       25.280 -14.795   3.669  0.00  0.00    +0.026 C 
ATOM      7  C   LIG    1       25.166 -14.438   2.174  0.00  0.00    +0.022 C 
ATOM      8  C   LIG    1       24.713 -12.970   2.071  0.00  0.00    +0.085 C 
ATOM      9  N   LIG    1       24.095 -12.497   3.341  0.00  0.00    -0.299 NA
ATOM     10  C   LIG    1       23.113 -13.505   3.781  0.00  0.00    +0.085 C 
ATOM     11  C   LIG    1       23.826 -14.803   4.211  0.00  0.00    +0.022 C 
ATOM     12  C   LIG    1       25.145 -12.415   4.405  0.00  0.00    +0.120 C 
ATOM     13  O   LIG    1       27.257 -13.358   3.523  0.00  0.00    -0.358 OA
ENDROOT
TORSDOF 0
ENDMDL
