MODEL 1
REMARK VINA RESULT:      -7.6      0.000      0.000
REMARK  Name = *****
REMARK                            x       y       z     vdW  Elec       q    Type
REMARK                         _______ _______ _______ _____ _____    ______ ____
ROOT
ATOM      1  C   UNK A  0       29.034 -19.964   6.692  0.00  0.00    +0.071 A 
ATOM      2  N   UNK A  1       29.429 -21.022   7.458  0.00  0.00    -0.248 NA
ATOM      3  C   UNK A  1       30.470 -20.818   8.326  0.00  0.00    +0.108 A 
ATOM      4  C   UNK A  1       31.113 -19.591   8.458  0.00  0.00    +0.140 A 
ATOM      5  C   UNK A  1       30.690 -18.520   7.681  0.00  0.00    +0.049 A 
ATOM      6  C   UNK A  1       29.638 -18.711   6.786  0.00  0.00    +0.029 A 
ENDROOT
BRANCH   4   7
ATOM      7  O   UNK A  1       32.143 -19.442   9.347  0.00  0.00    -0.505 OA
ATOM      8  H   UNK A  1       31.973 -18.663   9.903  0.00  0.00    +0.292 HD
ENDBRANCH   4   7
BRANCH   1   9
ATOM      9  C   UNK A  0       27.897 -20.193   5.699  0.00  0.00    +0.176 C 
BRANCH   9  10
ATOM     10  O   UNK A  0       27.746 -19.062   4.827  0.00  0.00    -0.384 OA
ATOM     11  H   UNK A  0       27.850 -18.283   5.407  0.00  0.00    +0.210 HD
ENDBRANCH   9  10
BRANCH   9  12
ATOM     12  C   UNK A  0       26.558 -20.437   6.439  0.00  0.00    +0.119 C 
BRANCH  12  13
ATOM     13  N   UNK A  0       25.948 -21.724   6.046  0.00  0.00    -0.308 NA
ATOM     14  H   UNK A  0       25.234 -21.518   5.342  0.00  0.00    +0.122 HD
BRANCH  13  16
ATOM     15  C   UNK A  0       25.959 -21.988   8.459  0.00  0.00    +0.027 C 
ATOM     16  C   UNK A  0       25.377 -22.533   7.138  0.00  0.00    +0.011 C 
ATOM     17  C   UNK A  0       23.849 -22.380   7.192  0.00  0.00    +0.027 C 
ATOM     18  C   UNK A  0       25.753 -24.021   7.029  0.00  0.00    +0.027 C 
ENDBRANCH  13  16
ENDBRANCH  12  13
ENDBRANCH   9  12
ENDBRANCH   1   9
BRANCH   3  19
ATOM     19  C   UNK A  1       30.907 -22.000   9.171  0.00  0.00    +0.215 C 
BRANCH  19  20
ATOM     20  O   UNK A  1       32.181 -22.494   8.750  0.00  0.00    -0.389 OA
ATOM     21  H   UNK A  1       32.823 -21.831   9.072  0.00  0.00    +0.210 HD
ENDBRANCH  19  20
ENDBRANCH   3  19
TORSDOF 8
ENDMDL
MODEL 2
REMARK VINA RESULT:      -7.6      1.893      2.413
REMARK  Name = *****
REMARK                            x       y       z     vdW  Elec       q    Type
REMARK                         _______ _______ _______ _____ _____    ______ ____
ROOT
ATOM      1  C   UNK A  0       27.781 -20.830   7.642  0.00  0.00    +0.071 A 
ATOM      2  N   UNK A  1       28.771 -21.411   8.379  0.00  0.00    -0.248 NA
ATOM      3  C   UNK A  1       30.060 -21.023   8.120  0.00  0.00    +0.108 A 
ATOM      4  C   UNK A  1       30.382 -20.068   7.161  0.00  0.00    +0.140 A 
ATOM      5  C   UNK A  1       29.360 -19.476   6.428  0.00  0.00    +0.049 A 
ATOM      6  C   UNK A  1       28.044 -19.865   6.672  0.00  0.00    +0.029 A 
ENDROOT
BRANCH   4   7
ATOM      7  O   UNK A  1       31.686 -19.712   6.949  0.00  0.00    -0.505 OA
ATOM      8  H   UNK A  1       32.255 -20.200   7.569  0.00  0.00    +0.292 HD
ENDBRANCH   4   7
BRANCH   1   9
ATOM      9  C   UNK A  0       26.345 -21.283   7.902  0.00  0.00    +0.176 C 
BRANCH   9  10
ATOM     10  O   UNK A  0       25.957 -20.993   9.254  0.00  0.00    -0.384 OA
ATOM     11  H   UNK A  0       25.483 -20.141   9.201  0.00  0.00    +0.210 HD
ENDBRANCH   9  10
BRANCH   9  12
ATOM     12  C   UNK A  0       26.192 -22.804   7.652  0.00  0.00    +0.119 C 
BRANCH  12  13
ATOM     13  N   UNK A  0       25.665 -23.081   6.300  0.00  0.00    -0.308 NA
ATOM     14  H   UNK A  0       25.043 -22.305   6.053  0.00  0.00    +0.122 HD
BRANCH  13  16
ATOM     15  C   UNK A  0       25.728 -25.410   6.979  0.00  0.00    +0.027 C 
ATOM     16  C   UNK A  0       24.974 -24.371   6.123  0.00  0.00    +0.011 C 
ATOM     17  C   UNK A  0       23.527 -24.293   6.633  0.00  0.00    +0.027 C 
ATOM     18  C   UNK A  0       24.992 -24.854   4.662  0.00  0.00    +0.027 C 
ENDBRANCH  13  16
ENDBRANCH  12  13
ENDBRANCH   9  12
ENDBRANCH   1   9
BRANCH   3  19
ATOM     19  C   UNK A  1       31.156 -21.677   8.940  0.00  0.00    +0.215 C 
BRANCH  19  20
ATOM     20  O   UNK A  1       32.117 -20.714   9.380  0.00  0.00    -0.389 OA
ATOM     21  H   UNK A  1       32.984 -21.107   9.155  0.00  0.00    +0.210 HD
ENDBRANCH  19  20
ENDBRANCH   3  19
TORSDOF 8
ENDMDL
MODEL 3
REMARK VINA RESULT:      -7.4      1.871      2.411
REMARK  Name = *****
REMARK                            x       y       z     vdW  Elec       q    Type
REMARK                         _______ _______ _______ _____ _____    ______ ____
ROOT
ATOM      1  C   UNK A  0       27.861 -20.366   7.685  0.00  0.00    +0.071 A 
ATOM      2  N   UNK A  1       28.779 -21.057   8.419  0.00  0.00    -0.248 NA
ATOM      3  C   UNK A  1       30.103 -20.839   8.142  0.00  0.00    +0.108 A 
ATOM      4  C   UNK A  1       30.532 -19.944   7.166  0.00  0.00    +0.140 A 
ATOM      5  C   UNK A  1       29.584 -19.237   6.436  0.00  0.00    +0.049 A 
ATOM      6  C   UNK A  1       28.232 -19.453   6.698  0.00  0.00    +0.029 A 
ENDROOT
BRANCH   4   7
ATOM      7  O   UNK A  1       31.868 -19.759   6.935  0.00  0.00    -0.505 OA
ATOM      8  H   UNK A  1       32.332 -19.692   7.786  0.00  0.00    +0.292 HD
ENDBRANCH   4   7
BRANCH   1   9
ATOM      9  C   UNK A  0       26.383 -20.630   7.966  0.00  0.00    +0.176 C 
BRANCH   9  10
ATOM     10  O   UNK A  0       26.093 -20.466   9.364  0.00  0.00    -0.384 OA
ATOM     11  H   UNK A  0       26.217 -21.354   9.751  0.00  0.00    +0.210 HD
ENDBRANCH   9  10
BRANCH   9  12
ATOM     12  C   UNK A  0       25.987 -22.064   7.538  0.00  0.00    +0.119 C 
BRANCH  12  13
ATOM     13  N   UNK A  0       24.550 -22.320   7.761  0.00  0.00    -0.308 NA
ATOM     14  H   UNK A  0       24.477 -23.189   8.299  0.00  0.00    +0.122 HD
BRANCH  13  16
ATOM     15  C   UNK A  0       24.630 -22.753   5.374  0.00  0.00    +0.027 C 
ATOM     16  C   UNK A  0       23.706 -22.389   6.554  0.00  0.00    +0.011 C 
ATOM     17  C   UNK A  0       22.647 -23.494   6.688  0.00  0.00    +0.027 C 
ATOM     18  C   UNK A  0       23.027 -21.046   6.232  0.00  0.00    +0.027 C 
ENDBRANCH  13  16
ENDBRANCH  12  13
ENDBRANCH   9  12
ENDBRANCH   1   9
BRANCH   3  19
ATOM     19  C   UNK A  1       31.118 -21.615   8.959  0.00  0.00    +0.215 C 
BRANCH  19  20
ATOM     20  O   UNK A  1       32.199 -20.776   9.375  0.00  0.00    -0.389 OA
ATOM     21  H   UNK A  1       32.814 -21.377   9.840  0.00  0.00    +0.210 HD
ENDBRANCH  19  20
ENDBRANCH   3  19
TORSDOF 8
ENDMDL
MODEL 4
REMARK VINA RESULT:      -7.2      2.839      6.400
REMARK  Name = *****
REMARK                            x       y       z     vdW  Elec       q    Type
REMARK                         _______ _______ _______ _____ _____    ______ ____
ROOT
ATOM      1  C   UNK A  0       25.483 -21.325   6.467  0.00  0.00    +0.071 A 
ATOM      2  N   UNK A  1       25.677 -22.667   6.327  0.00  0.00    -0.248 NA
ATOM      3  C   UNK A  1       24.579 -23.479   6.439  0.00  0.00    +0.108 A 
ATOM      4  C   UNK A  1       23.298 -22.987   6.672  0.00  0.00    +0.140 A 
ATOM      5  C   UNK A  1       23.115 -21.616   6.799  0.00  0.00    +0.049 A 
ATOM      6  C   UNK A  1       24.222 -20.775   6.697  0.00  0.00    +0.029 A 
ENDROOT
BRANCH   4   7
ATOM      7  O   UNK A  1       22.235 -23.843   6.768  0.00  0.00    -0.505 OA
ATOM      8  H   UNK A  1       22.345 -24.402   7.556  0.00  0.00    +0.292 HD
ENDBRANCH   4   7
BRANCH   1   9
ATOM      9  C   UNK A  0       26.708 -20.417   6.376  0.00  0.00    +0.176 C 
BRANCH   9  10
ATOM     10  O   UNK A  0       27.149 -20.290   5.015  0.00  0.00    -0.384 OA
ATOM     11  H   UNK A  0       26.427 -19.815   4.561  0.00  0.00    +0.210 HD
ENDBRANCH   9  10
BRANCH   9  12
ATOM     12  C   UNK A  0       27.873 -20.976   7.231  0.00  0.00    +0.119 C 
BRANCH  12  13
ATOM     13  N   UNK A  0       28.411 -19.953   8.151  0.00  0.00    -0.308 NA
ATOM     14  H   UNK A  0       27.822 -19.120   8.055  0.00  0.00    +0.122 HD
BRANCH  13  16
ATOM     15  C   UNK A  0       30.116 -18.392   8.888  0.00  0.00    +0.027 C 
ATOM     16  C   UNK A  0       29.832 -19.603   7.976  0.00  0.00    +0.011 C 
ATOM     17  C   UNK A  0       30.740 -20.759   8.424  0.00  0.00    +0.027 C 
ATOM     18  C   UNK A  0       30.167 -19.201   6.530  0.00  0.00    +0.027 C 
ENDBRANCH  13  16
ENDBRANCH  12  13
ENDBRANCH   9  12
ENDBRANCH   1   9
BRANCH   3  19
ATOM     19  C   UNK A  1       24.804 -24.972   6.286  0.00  0.00    +0.215 C 
BRANCH  19  20
ATOM     20  O   UNK A  1       23.991 -25.514   5.243  0.00  0.00    -0.389 OA
ATOM     21  H   UNK A  1       23.504 -26.250   5.664  0.00  0.00    +0.210 HD
ENDBRANCH  19  20
ENDBRANCH   3  19
TORSDOF 8
ENDMDL
MODEL 5
REMARK VINA RESULT:      -7.2      1.698      2.334
REMARK  Name = *****
REMARK                            x       y       z     vdW  Elec       q    Type
REMARK                         _______ _______ _______ _____ _____    ______ ____
ROOT
ATOM      1  C   UNK A  0       28.044 -20.908   7.190  0.00  0.00    +0.071 A 
ATOM      2  N   UNK A  1       28.900 -21.437   8.110  0.00  0.00    -0.248 NA
ATOM      3  C   UNK A  1       30.177 -20.943   8.142  0.00  0.00    +0.108 A 
ATOM      4  C   UNK A  1       30.616 -19.931   7.293  0.00  0.00    +0.140 A 
ATOM      5  C   UNK A  1       29.727 -19.392   6.370  0.00  0.00    +0.049 A 
ATOM      6  C   UNK A  1       28.426 -19.890   6.318  0.00  0.00    +0.029 A 
ENDROOT
BRANCH   4   7
ATOM      7  O   UNK A  1       31.901 -19.469   7.372  0.00  0.00    -0.505 OA
ATOM      8  H   UNK A  1       31.892 -18.497   7.370  0.00  0.00    +0.292 HD
ENDBRANCH   4   7
BRANCH   1   9
ATOM      9  C   UNK A  0       26.628 -21.478   7.128  0.00  0.00    +0.176 C 
BRANCH   9  10
ATOM     10  O   UNK A  0       26.655 -22.872   6.783  0.00  0.00    -0.384 OA
ATOM     11  H   UNK A  0       27.209 -23.289   7.471  0.00  0.00    +0.210 HD
ENDBRANCH   9  10
BRANCH   9  12
ATOM     12  C   UNK A  0       25.773 -20.719   6.082  0.00  0.00    +0.119 C 
BRANCH  12  13
ATOM     13  N   UNK A  0       24.708 -21.579   5.526  0.00  0.00    -0.308 NA
ATOM     14  H   UNK A  0       24.605 -21.332   4.537  0.00  0.00    +0.122 HD
BRANCH  13  16
ATOM     15  C   UNK A  0       22.371 -21.026   5.178  0.00  0.00    +0.027 C 
ATOM     16  C   UNK A  0       23.403 -21.523   6.210  0.00  0.00    +0.011 C 
ATOM     17  C   UNK A  0       22.971 -22.920   6.681  0.00  0.00    +0.027 C 
ATOM     18  C   UNK A  0       23.401 -20.544   7.397  0.00  0.00    +0.027 C 
ENDBRANCH  13  16
ENDBRANCH  12  13
ENDBRANCH   9  12
ENDBRANCH   1   9
BRANCH   3  19
ATOM     19  C   UNK A  1       31.125 -21.540   9.165  0.00  0.00    +0.215 C 
BRANCH  19  20
ATOM     20  O   UNK A  1       32.188 -22.255   8.530  0.00  0.00    -0.389 OA
ATOM     21  H   UNK A  1       32.160 -21.965   7.597  0.00  0.00    +0.210 HD
ENDBRANCH  19  20
ENDBRANCH   3  19
TORSDOF 8
ENDMDL
MODEL 6
REMARK VINA RESULT:      -7.2      2.484      6.110
REMARK  Name = *****
REMARK                            x       y       z     vdW  Elec       q    Type
REMARK                         _______ _______ _______ _____ _____    ______ ____
ROOT
ATOM      1  C   UNK A  0       29.626 -20.587   7.734  0.00  0.00    +0.071 A 
ATOM      2  N   UNK A  1       28.576 -21.223   8.329  0.00  0.00    -0.248 NA
ATOM      3  C   UNK A  1       27.360 -21.158   7.701  0.00  0.00    +0.108 A 
ATOM      4  C   UNK A  1       27.169 -20.488   6.496  0.00  0.00    +0.140 A 
ATOM      5  C   UNK A  1       28.251 -19.857   5.896  0.00  0.00    +0.049 A 
ATOM      6  C   UNK A  1       29.494 -19.905   6.525  0.00  0.00    +0.029 A 
ENDROOT
BRANCH   4   7
ATOM      7  O   UNK A  1       25.933 -20.461   5.909  0.00  0.00    -0.505 OA
ATOM      8  H   UNK A  1       25.578 -19.557   5.956  0.00  0.00    +0.292 HD
ENDBRANCH   4   7
BRANCH   1   9
ATOM      9  C   UNK A  0       30.976 -20.628   8.446  0.00  0.00    +0.176 C 
BRANCH   9  10
ATOM     10  O   UNK A  0       30.814 -20.995   9.826  0.00  0.00    -0.384 OA
ATOM     11  H   UNK A  0       31.663 -21.407  10.076  0.00  0.00    +0.210 HD
ENDBRANCH   9  10
BRANCH   9  12
ATOM     12  C   UNK A  0       31.681 -19.251   8.372  0.00  0.00    +0.119 C 
BRANCH  12  13
ATOM     13  N   UNK A  0       32.020 -18.742   9.717  0.00  0.00    -0.308 NA
ATOM     14  H   UNK A  0       31.682 -19.431  10.396  0.00  0.00    +0.122 HD
BRANCH  13  16
ATOM     15  C   UNK A  0       31.264 -17.374  11.573  0.00  0.00    +0.027 C 
ATOM     16  C   UNK A  0       31.515 -17.398  10.051  0.00  0.00    +0.011 C 
ATOM     17  C   UNK A  0       32.562 -16.322   9.724  0.00  0.00    +0.027 C 
ATOM     18  C   UNK A  0       30.188 -17.075   9.343  0.00  0.00    +0.027 C 
ENDBRANCH  13  16
ENDBRANCH  12  13
ENDBRANCH   9  12
ENDBRANCH   1   9
BRANCH   3  19
ATOM     19  C   UNK A  1       26.197 -21.864   8.371  0.00  0.00    +0.215 C 
BRANCH  19  20
ATOM     20  O   UNK A  1       25.720 -21.122   9.496  0.00  0.00    -0.389 OA
ATOM     21  H   UNK A  1       24.749 -21.087   9.377  0.00  0.00    +0.210 HD
ENDBRANCH  19  20
ENDBRANCH   3  19
TORSDOF 8
ENDMDL
MODEL 7
REMARK VINA RESULT:      -7.1      4.311      6.445
REMARK  Name = *****
REMARK                            x       y       z     vdW  Elec       q    Type
REMARK                         _______ _______ _______ _____ _____    ______ ____
ROOT
ATOM      1  C   UNK A  0       25.233 -23.103   7.144  0.00  0.00    +0.071 A 
ATOM      2  N   UNK A  1       26.112 -24.099   6.833  0.00  0.00    -0.248 NA
ATOM      3  C   UNK A  1       25.590 -25.284   6.384  0.00  0.00    +0.108 A 
ATOM      4  C   UNK A  1       24.223 -25.494   6.226  0.00  0.00    +0.140 A 
ATOM      5  C   UNK A  1       23.342 -24.464   6.534  0.00  0.00    +0.049 A 
ATOM      6  C   UNK A  1       23.855 -23.255   7.001  0.00  0.00    +0.029 A 
ENDROOT
BRANCH   4   7
ATOM      7  O   UNK A  1       23.756 -26.695   5.767  0.00  0.00    -0.505 OA
ATOM      8  H   UNK A  1       23.850 -27.363   6.467  0.00  0.00    +0.292 HD
ENDBRANCH   4   7
BRANCH   1   9
ATOM      9  C   UNK A  0       25.807 -21.791   7.676  0.00  0.00    +0.176 C 
BRANCH   9  10
ATOM     10  O   UNK A  0       25.655 -21.710   9.102  0.00  0.00    -0.384 OA
ATOM     11  H   UNK A  0       25.389 -22.608   9.377  0.00  0.00    +0.210 HD
ENDBRANCH   9  10
BRANCH   9  12
ATOM     12  C   UNK A  0       25.101 -20.575   7.026  0.00  0.00    +0.119 C 
BRANCH  12  13
ATOM     13  N   UNK A  0       25.401 -20.480   5.583  0.00  0.00    -0.308 NA
ATOM     14  H   UNK A  0       26.118 -19.757   5.470  0.00  0.00    +0.122 HD
BRANCH  13  16
ATOM     15  C   UNK A  0       24.065 -21.464   3.812  0.00  0.00    +0.027 C 
ATOM     16  C   UNK A  0       24.255 -20.213   4.696  0.00  0.00    +0.011 C 
ATOM     17  C   UNK A  0       22.968 -20.005   5.510  0.00  0.00    +0.027 C 
ATOM     18  C   UNK A  0       24.493 -19.007   3.771  0.00  0.00    +0.027 C 
ENDBRANCH  13  16
ENDBRANCH  12  13
ENDBRANCH   9  12
ENDBRANCH   1   9
BRANCH   3  19
ATOM     19  C   UNK A  1       26.572 -26.388   6.045  0.00  0.00    +0.215 C 
BRANCH  19  20
ATOM     20  O   UNK A  1       26.443 -26.795   4.681  0.00  0.00    -0.389 OA
ATOM     21  H   UNK A  1       26.313 -27.764   4.722  0.00  0.00    +0.210 HD
ENDBRANCH  19  20
ENDBRANCH   3  19
TORSDOF 8
ENDMDL
MODEL 8
REMARK VINA RESULT:      -7.0      2.581      3.943
REMARK  Name = *****
REMARK                            x       y       z     vdW  Elec       q    Type
REMARK                         _______ _______ _______ _____ _____    ______ ____
ROOT
ATOM      1  C   UNK A  0       25.224 -20.560   6.333  0.00  0.00    +0.071 A 
ATOM      2  N   UNK A  1       26.387 -20.307   5.666  0.00  0.00    -0.248 NA
ATOM      3  C   UNK A  1       27.526 -20.169   6.415  0.00  0.00    +0.108 A 
ATOM      4  C   UNK A  1       27.537 -20.289   7.801  0.00  0.00    +0.140 A 
ATOM      5  C   UNK A  1       26.346 -20.561   8.464  0.00  0.00    +0.049 A 
ATOM      6  C   UNK A  1       25.176 -20.696   7.719  0.00  0.00    +0.029 A 
ENDROOT
BRANCH   4   7
ATOM      7  O   UNK A  1       28.706 -20.150   8.499  0.00  0.00    -0.505 OA
ATOM      8  H   UNK A  1       28.772 -19.238   8.832  0.00  0.00    +0.292 HD
ENDBRANCH   4   7
BRANCH   1   9
ATOM      9  C   UNK A  0       23.945 -20.682   5.507  0.00  0.00    +0.176 C 
BRANCH   9  10
ATOM     10  O   UNK A  0       22.850 -20.026   6.164  0.00  0.00    -0.384 OA
ATOM     11  H   UNK A  0       22.078 -20.601   5.999  0.00  0.00    +0.210 HD
ENDBRANCH   9  10
BRANCH   9  12
ATOM     12  C   UNK A  0       23.575 -22.168   5.279  0.00  0.00    +0.119 C 
BRANCH  12  13
ATOM     13  N   UNK A  0       24.775 -22.997   5.044  0.00  0.00    -0.308 NA
ATOM     14  H   UNK A  0       24.807 -23.208   4.042  0.00  0.00    +0.122 HD
BRANCH  13  16
ATOM     15  C   UNK A  0       23.523 -24.426   6.554  0.00  0.00    +0.027 C 
ATOM     16  C   UNK A  0       24.875 -24.237   5.836  0.00  0.00    +0.011 C 
ATOM     17  C   UNK A  0       25.103 -25.452   4.923  0.00  0.00    +0.027 C 
ATOM     18  C   UNK A  0       25.978 -24.168   6.905  0.00  0.00    +0.027 C 
ENDBRANCH  13  16
ENDBRANCH  12  13
ENDBRANCH   9  12
ENDBRANCH   1   9
BRANCH   3  19
ATOM     19  C   UNK A  1       28.815 -19.883   5.667  0.00  0.00    +0.215 C 
BRANCH  19  20
ATOM     20  O   UNK A  1       29.334 -18.594   6.005  0.00  0.00    -0.389 OA
ATOM     21  H   UNK A  1       30.295 -18.735   6.116  0.00  0.00    +0.210 HD
ENDBRANCH  19  20
ENDBRANCH   3  19
TORSDOF 8
ENDMDL
MODEL 9
REMARK VINA RESULT:      -6.8      5.788      7.838
REMARK  Name = *****
REMARK                            x       y       z     vdW  Elec       q    Type
REMARK                         _______ _______ _______ _____ _____    ______ ____
ROOT
ATOM      1  C   UNK A  0       24.717 -25.653   6.176  0.00  0.00    +0.071 A 
ATOM      2  N   UNK A  1       24.073 -26.774   6.611  0.00  0.00    -0.248 NA
ATOM      3  C   UNK A  1       24.568 -27.985   6.201  0.00  0.00    +0.108 A 
ATOM      4  C   UNK A  1       25.688 -28.104   5.384  0.00  0.00    +0.140 A 
ATOM      5  C   UNK A  1       26.341 -26.953   4.961  0.00  0.00    +0.049 A 
ATOM      6  C   UNK A  1       25.846 -25.712   5.361  0.00  0.00    +0.029 A 
ENDROOT
BRANCH   4   7
ATOM      7  O   UNK A  1       26.144 -29.339   5.010  0.00  0.00    -0.505 OA
ATOM      8  H   UNK A  1       25.678 -29.621   4.205  0.00  0.00    +0.292 HD
ENDBRANCH   4   7
BRANCH   1   9
ATOM      9  C   UNK A  0       24.151 -24.300   6.603  0.00  0.00    +0.176 C 
BRANCH   9  10
ATOM     10  O   UNK A  0       22.717 -24.296   6.512  0.00  0.00    -0.384 OA
ATOM     11  H   UNK A  0       22.426 -23.654   7.188  0.00  0.00    +0.210 HD
ENDBRANCH   9  10
BRANCH   9  12
ATOM     12  C   UNK A  0       24.713 -23.162   5.715  0.00  0.00    +0.119 C 
BRANCH  12  13
ATOM     13  N   UNK A  0       23.656 -22.206   5.325  0.00  0.00    -0.308 NA
ATOM     14  H   UNK A  0       23.511 -22.309   4.316  0.00  0.00    +0.122 HD
BRANCH  13  16
ATOM     15  C   UNK A  0       24.131 -20.732   7.193  0.00  0.00    +0.027 C 
ATOM     16  C   UNK A  0       23.898 -20.793   5.670  0.00  0.00    +0.011 C 
ATOM     17  C   UNK A  0       25.163 -20.268   4.972  0.00  0.00    +0.027 C 
ATOM     18  C   UNK A  0       22.698 -19.890   5.333  0.00  0.00    +0.027 C 
ENDBRANCH  13  16
ENDBRANCH  12  13
ENDBRANCH   9  12
ENDBRANCH   1   9
BRANCH   3  19
ATOM     19  C   UNK A  1       23.844 -29.227   6.685  0.00  0.00    +0.215 C 
BRANCH  19  20
ATOM     20  O   UNK A  1       23.169 -29.884   5.610  0.00  0.00    -0.389 OA
ATOM     21  H   UNK A  1       22.290 -29.457   5.571  0.00  0.00    +0.210 HD
ENDBRANCH  19  20
ENDBRANCH   3  19
TORSDOF 8
ENDMDL
