MODEL 1
REMARK VINA RESULT:      -2.0      0.000      0.000
REMARK  Name = *****
REMARK                            x       y       z     vdW  Elec       q    Type
REMARK                         _______ _______ _______ _____ _____    ______ ____
ROOT
ATOM      1  C   LIG    1       26.972 -21.567   6.634  0.00  0.00    +0.042 C 
ATOM      2  C   LIG    1       26.469 -20.539   5.639  0.00  0.00    -0.034 C 
ATOM      3  C   LIG    1       27.643 -19.730   5.107  0.00  0.00    +0.103 C 
ATOM      4  S   LIG    1       27.193 -18.037   4.642  0.00  0.00    -0.131 S 
ATOM      5  C   LIG    1       25.869 -18.621   3.561  0.00  0.00    +0.169 C 
ATOM      6  N   LIG    1       24.885 -19.325   4.369  0.00  0.00    -0.249 N 
ATOM      7  C   LIG    1       23.882 -18.447   4.169  0.00  0.00    +0.244 C 
ATOM      8  O   LIG    1       22.789 -18.382   4.708  0.00  0.00    -0.273 OA
ATOM      9  CA  LIG    1       24.750 -17.604   3.194  0.00  0.00    +0.191 C 
ATOM     10  CA  LIG    1       25.169 -20.309   5.288  0.00  0.00    +0.122 C 
ENDROOT
BRANCH   9  11
ATOM     11  N   LIG    1       24.951 -16.176   3.547  0.00  0.00    -0.300 N 
ATOM     12  H   LIG    1       25.881 -15.797   3.731  0.00  0.00    +0.150 HD
ATOM     13  C   LIG    1       23.892 -15.375   3.954  0.00  0.00    +0.235 C 
ATOM     14  O   LIG    1       22.745 -15.803   4.005  0.00  0.00    -0.274 OA
BRANCH  13  15
ATOM     15  CA  LIG    1       24.322 -13.890   4.231  0.00  0.00    +0.164 C 
BRANCH  15  16
ATOM     16  C   LIG    1       25.821 -13.605   4.206  0.00  0.00    -0.044 C 
ATOM     17  C   LIG    1       26.450 -13.575   2.817  0.00  0.00    +0.059 C 
ATOM     18  C   LIG    1       27.943 -13.385   2.807  0.00  0.00    -0.026 C 
ATOM     19  C   LIG    1       28.679 -13.246   3.919  0.00  0.00    -0.027 C 
ATOM     20  C   LIG    1       28.088 -13.275   5.293  0.00  0.00    +0.054 C 
ATOM     21  C   LIG    1       26.595 -13.467   5.308  0.00  0.00    -0.021 C 
ENDBRANCH  15  16
BRANCH  15  22
ATOM     22  N   LIG    1       23.536 -13.034   3.311  0.00  0.00    -0.317 NA
ATOM     23  H1  LIG    1       24.002 -12.129   3.249  0.00  0.00    +0.119 HD
ATOM     24  H2  LIG    1       23.607 -13.449   2.380  0.00  0.00    +0.119 HD
ENDBRANCH  15  22
ENDBRANCH  13  15
ENDBRANCH   9  11
BRANCH  10  25
ATOM     25  C   LIG    1       24.046 -21.148   5.871  0.00  0.00    +0.351 C 
ATOM     26  O   LIG    1       24.003 -21.498   7.042  0.00  0.00    -0.244 OA
BRANCH  25  27
ATOM     27  OXT LIG    1       23.086 -21.570   5.027  0.00  0.00    -0.476 OA
ATOM     28  HXT LIG    1       23.015 -21.132   4.149  0.00  0.00    +0.295 HD
ENDBRANCH  25  27
ENDBRANCH  10  25
TORSDOF 6
ENDMDL
MODEL 2
REMARK VINA RESULT:      -1.5      1.763      2.429
REMARK  Name = *****
REMARK                            x       y       z     vdW  Elec       q    Type
REMARK                         _______ _______ _______ _____ _____    ______ ____
ROOT
ATOM      1  C   LIG    1       26.165 -21.572   7.052  0.00  0.00    +0.042 C 
ATOM      2  C   LIG    1       26.002 -20.554   5.939  0.00  0.00    -0.034 C 
ATOM      3  C   LIG    1       27.361 -19.966   5.587  0.00  0.00    +0.103 C 
ATOM      4  S   LIG    1       27.267 -18.262   4.975  0.00  0.00    -0.131 S 
ATOM      5  C   LIG    1       26.067 -18.720   3.705  0.00  0.00    +0.169 C 
ATOM      6  N   LIG    1       24.864 -19.213   4.358  0.00  0.00    -0.249 N 
ATOM      7  C   LIG    1       24.059 -18.213   3.946  0.00  0.00    +0.244 C 
ATOM      8  O   LIG    1       22.915 -17.950   4.282  0.00  0.00    -0.273 OA
ATOM      9  CA  LIG    1       25.199 -17.578   3.103  0.00  0.00    +0.191 C 
ATOM     10  CA  LIG    1       24.832 -20.160   5.356  0.00  0.00    +0.122 C 
ENDROOT
BRANCH   9  11
ATOM     11  N   LIG    1       25.560 -16.174   3.422  0.00  0.00    -0.300 N 
ATOM     12  H   LIG    1       24.848 -15.448   3.517  0.00  0.00    +0.150 HD
ATOM     13  C   LIG    1       26.863 -15.713   3.289  0.00  0.00    +0.235 C 
ATOM     14  O   LIG    1       27.774 -16.454   2.939  0.00  0.00    -0.274 OA
BRANCH  13  15
ATOM     15  CA  LIG    1       27.027 -14.213   3.724  0.00  0.00    +0.164 C 
BRANCH  15  16
ATOM     16  C   LIG    1       25.785 -13.336   3.606  0.00  0.00    -0.044 C 
ATOM     17  C   LIG    1       25.504 -12.798   2.206  0.00  0.00    +0.059 C 
ATOM     18  C   LIG    1       24.330 -11.860   2.117  0.00  0.00    -0.026 C 
ATOM     19  C   LIG    1       23.576 -11.516   3.170  0.00  0.00    -0.027 C 
ATOM     20  C   LIG    1       23.832 -12.026   4.553  0.00  0.00    +0.054 C 
ATOM     21  C   LIG    1       25.005 -12.962   4.648  0.00  0.00    -0.021 C 
ENDBRANCH  15  16
BRANCH  15  22
ATOM     22  N   LIG    1       27.628 -14.218   5.079  0.00  0.00    -0.317 NA
ATOM     23  H1  LIG    1       27.217 -14.992   5.601  0.00  0.00    +0.119 HD
ATOM     24  H2  LIG    1       28.618 -14.450   4.967  0.00  0.00    +0.119 HD
ENDBRANCH  15  22
ENDBRANCH  13  15
ENDBRANCH   9  11
BRANCH  10  25
ATOM     25  C   LIG    1       23.509 -20.782   5.769  0.00  0.00    +0.351 C 
ATOM     26  O   LIG    1       23.017 -20.642   6.879  0.00  0.00    -0.244 OA
BRANCH  25  27
ATOM     27  OXT LIG    1       22.891 -21.572   4.873  0.00  0.00    -0.476 OA
ATOM     28  HXT LIG    1       21.908 -21.540   4.825  0.00  0.00    +0.295 HD
ENDBRANCH  25  27
ENDBRANCH  10  25
TORSDOF 6
ENDMDL
MODEL 3
REMARK VINA RESULT:      -0.8      3.044      7.434
REMARK  Name = *****
REMARK                            x       y       z     vdW  Elec       q    Type
REMARK                         _______ _______ _______ _____ _____    ______ ____
ROOT
ATOM      1  C   LIG    1       25.472 -11.590   4.387  0.00  0.00    +0.042 C 
ATOM      2  C   LIG    1       25.552 -13.053   3.995  0.00  0.00    -0.034 C 
ATOM      3  C   LIG    1       24.154 -13.573   3.691  0.00  0.00    +0.103 C 
ATOM      4  S   LIG    1       23.955 -15.340   4.045  0.00  0.00    -0.131 S 
ATOM      5  C   LIG    1       25.378 -15.768   3.016  0.00  0.00    +0.169 C 
ATOM      6  N   LIG    1       26.566 -15.151   3.586  0.00  0.00    -0.249 N 
ATOM      7  C   LIG    1       27.181 -16.304   3.915  0.00  0.00    +0.244 C 
ATOM      8  O   LIG    1       28.189 -16.482   4.580  0.00  0.00    -0.273 OA
ATOM      9  CA  LIG    1       26.048 -17.148   3.271  0.00  0.00    +0.191 C 
ATOM     10  CA  LIG    1       26.673 -13.830   3.960  0.00  0.00    +0.122 C 
ENDROOT
BRANCH   9  11
ATOM     11  N   LIG    1       25.354 -18.118   4.156  0.00  0.00    -0.300 N 
ATOM     12  H   LIG    1       24.556 -17.841   4.729  0.00  0.00    +0.150 HD
ATOM     13  C   LIG    1       25.934 -19.334   4.494  0.00  0.00    +0.235 C 
ATOM     14  O   LIG    1       27.025 -19.671   4.047  0.00  0.00    -0.274 OA
BRANCH  13  15
ATOM     15  CA  LIG    1       25.008 -20.221   5.400  0.00  0.00    +0.164 C 
BRANCH  15  16
ATOM     16  C   LIG    1       23.524 -20.226   5.048  0.00  0.00    -0.044 C 
ATOM     17  C   LIG    1       22.804 -21.547   5.303  0.00  0.00    +0.059 C 
ATOM     18  C   LIG    1       21.363 -21.572   4.868  0.00  0.00    -0.026 C 
ATOM     19  C   LIG    1       20.742 -20.526   4.303  0.00  0.00    -0.027 C 
ATOM     20  C   LIG    1       21.425 -19.222   4.038  0.00  0.00    +0.054 C 
ATOM     21  C   LIG    1       22.866 -19.193   4.470  0.00  0.00    -0.021 C 
ENDBRANCH  15  16
BRANCH  15  22
ATOM     22  N   LIG    1       25.615 -21.572   5.448  0.00  0.00    -0.317 NA
ATOM     23  H1  LIG    1       26.579 -21.472   5.766  0.00  0.00    +0.119 HD
ATOM     24  H2  LIG    1       25.130 -22.093   6.182  0.00  0.00    +0.119 HD
ENDBRANCH  15  22
ENDBRANCH  13  15
ENDBRANCH   9  11
BRANCH  10  25
ATOM     25  C   LIG    1       28.036 -13.246   4.291  0.00  0.00    +0.351 C 
ATOM     26  O   LIG    1       28.999 -13.319   3.542  0.00  0.00    -0.244 OA
BRANCH  25  27
ATOM     27  OXT LIG    1       28.187 -12.675   5.499  0.00  0.00    -0.476 OA
ATOM     28  HXT LIG    1       29.097 -12.595   5.865  0.00  0.00    +0.295 HD
ENDBRANCH  25  27
ENDBRANCH  10  25
TORSDOF 6
ENDMDL
