MODEL 1
REMARK VINA RESULT:       1.7      0.000      0.000
REMARK  Name = *****
REMARK                            x       y       z     vdW  Elec       q    Type
REMARK                         _______ _______ _______ _____ _____    ______ ____
ROOT
ATOM      1  N   UNK A  0       24.085 -12.830   4.666  0.00  0.00    -0.342 N 
ATOM      2  H   UNK A  0       23.435 -12.109   4.965  0.00  0.00    +0.146 HD
ENDROOT
BRANCH   1   3
ATOM      3  C   UNK A  0       23.454 -14.076   4.732  0.00  0.00    +0.027 A 
ATOM      4  C   UNK A  0       22.816 -14.591   5.863  0.00  0.00    +0.024 A 
ATOM      5  C   UNK A  0       22.348 -15.916   5.891  0.00  0.00    +0.015 A 
ATOM      6  C   UNK A  0       22.529 -16.760   4.787  0.00  0.00    +0.037 A 
ATOM      7  C   UNK A  0       23.103 -16.233   3.627  0.00  0.00    +0.015 A 
ATOM      8  C   UNK A  0       23.580 -14.917   3.617  0.00  0.00    +0.024 A 
BRANCH   6   9
ATOM      9  C   UNK A  0       22.142 -18.202   4.887  0.00  0.00    +0.245 C 
ATOM     10  N   GLU A  1       22.953 -19.012   5.663  0.00  0.00    -0.298 N 
ATOM     11  H   GLU A  1       23.748 -18.602   6.147  0.00  0.00    +0.150 HD
ATOM     12  O   UNK A  0       21.141 -18.627   4.306  0.00  0.00    -0.270 OA
BRANCH  10  13
ATOM     13  CA  GLU A  1       22.631 -20.433   5.964  0.00  0.00    +0.182 C 
BRANCH  13  14
ATOM     14  C   GLU A  1       22.414 -21.198   4.641  0.00  0.00    +0.325 C 
ATOM     15  O   GLU A  1       23.282 -21.401   3.803  0.00  0.00    -0.249 OA
BRANCH  14  16
ATOM     16  OXT GLU A  1       21.129 -21.571   4.430  0.00  0.00    -0.479 OA
ATOM     17  HXT GLU A  1       20.691 -20.903   3.866  0.00  0.00    +0.295 HD
ENDBRANCH  14  16
ENDBRANCH  13  14
BRANCH  13  18
ATOM     18  CB  GLU A  1       23.767 -21.081   6.786  0.00  0.00    +0.045 C 
BRANCH  18  19
ATOM     19  CG  GLU A  1       24.946 -21.564   5.934  0.00  0.00    +0.123 C 
BRANCH  19  20
ATOM     20  CD  GLU A  1       25.935 -20.455   5.680  0.00  0.00    +0.305 C 
ATOM     21  OE1 GLU A  1       26.754 -20.077   6.495  0.00  0.00    -0.251 OA
BRANCH  20  22
ATOM     22  OE2 GLU A  1       25.803 -19.890   4.458  0.00  0.00    -0.481 OA
ATOM     23  HE2 GLU A  1       25.349 -20.449   3.800  0.00  0.00    +0.295 HD
ENDBRANCH  20  22
ENDBRANCH  19  20
ENDBRANCH  18  19
ENDBRANCH  13  18
ENDBRANCH  10  13
ENDBRANCH   6   9
ENDBRANCH   1   3
BRANCH   1  24
ATOM     24  C   UNK A  0       25.442 -12.650   5.186  0.00  0.00    +0.126 C 
BRANCH  24  32
ATOM     25  C   UNK A  0       28.411 -17.249   4.710  0.00  0.00    +0.195 C 
ATOM     26  N   UNK A  0       27.471 -17.451   3.759  0.00  0.00    -0.294 N 
ATOM     27  H   UNK A  0       27.276 -18.376   3.415  0.00  0.00    +0.172 HD
ATOM     28  C   UNK A  0       26.733 -16.438   3.227  0.00  0.00    +0.276 C 
ATOM     29  O   UNK A  0       25.840 -16.697   2.426  0.00  0.00    -0.266 OA
ATOM     30  C   UNK A  0       27.047 -15.060   3.724  0.00  0.00    +0.142 C 
ATOM     31  N   UNK A  0       26.383 -13.903   3.259  0.00  0.00    -0.261 N 
ATOM     32  C   UNK A  0       26.523 -12.657   4.067  0.00  0.00    +0.115 C 
ATOM     33  C   UNK A  0       27.957 -12.528   4.613  0.00  0.00    +0.127 C 
ATOM     34  N   UNK A  0       28.339 -13.768   5.259  0.00  0.00    -0.326 N 
ATOM     35  H   UNK A  0       29.270 -13.810   5.664  0.00  0.00    +0.148 HD
ATOM     36  C   UNK A  0       25.520 -13.845   2.176  0.00  0.00    +0.333 C 
ATOM     37  O   UNK A  0       24.926 -12.833   1.812  0.00  0.00    -0.279 OA
ATOM     38  C   UNK A  0       28.002 -14.993   4.694  0.00  0.00    +0.149 C 
ATOM     39  N   UNK A  0       28.690 -16.079   5.171  0.00  0.00    -0.199 NA
BRANCH  25  40
ATOM     40  N   UNK A  0       29.053 -18.346   5.177  0.00  0.00    -0.329 N 
ATOM     41  H   UNK A  0       28.775 -19.234   4.781  0.00  0.00    +0.145 HD
ATOM     42  H   UNK A  0       29.072 -18.366   6.192  0.00  0.00    +0.145 HD
ENDBRANCH  25  40
ENDBRANCH  24  32
ENDBRANCH   1  24
TORSDOF 12
ENDMDL
MODEL 2
REMARK VINA RESULT:       3.7      2.346      7.075
REMARK  Name = *****
REMARK                            x       y       z     vdW  Elec       q    Type
REMARK                         _______ _______ _______ _____ _____    ______ ____
ROOT
ATOM      1  N   UNK A  0       22.000 -18.259   4.457  0.00  0.00    -0.342 N 
ATOM      2  H   UNK A  0       21.261 -18.203   5.153  0.00  0.00    +0.146 HD
ENDROOT
BRANCH   1   3
ATOM      3  C   UNK A  0       22.652 -17.025   4.376  0.00  0.00    +0.027 A 
ATOM      4  C   UNK A  0       23.783 -16.767   3.597  0.00  0.00    +0.024 A 
ATOM      5  C   UNK A  0       24.469 -15.544   3.698  0.00  0.00    +0.015 A 
ATOM      6  C   UNK A  0       24.043 -14.560   4.599  0.00  0.00    +0.037 A 
ATOM      7  C   UNK A  0       22.874 -14.781   5.331  0.00  0.00    +0.015 A 
ATOM      8  C   UNK A  0       22.209 -16.009   5.235  0.00  0.00    +0.024 A 
BRANCH   6   9
ATOM      9  C   UNK A  0       24.863 -13.322   4.784  0.00  0.00    +0.245 C 
ATOM     10  N   GLU A  1       26.236 -13.490   4.862  0.00  0.00    -0.298 N 
ATOM     11  H   GLU A  1       26.628 -14.424   4.768  0.00  0.00    +0.150 HD
ATOM     12  O   UNK A  0       24.326 -12.215   4.852  0.00  0.00    -0.270 OA
BRANCH  10  13
ATOM     13  CA  GLU A  1       27.191 -12.351   4.917  0.00  0.00    +0.182 C 
BRANCH  13  14
ATOM     14  C   GLU A  1       28.266 -12.636   5.987  0.00  0.00    +0.325 C 
ATOM     15  O   GLU A  1       28.240 -13.581   6.765  0.00  0.00    -0.249 OA
BRANCH  14  16
ATOM     16  OXT GLU A  1       29.228 -11.687   6.061  0.00  0.00    -0.479 OA
ATOM     17  HXT GLU A  1       29.728 -11.802   6.894  0.00  0.00    +0.295 HD
ENDBRANCH  14  16
ENDBRANCH  13  14
BRANCH  13  18
ATOM     18  CB  GLU A  1       27.845 -12.131   3.534  0.00  0.00    +0.045 C 
BRANCH  18  19
ATOM     19  CG  GLU A  1       28.585 -13.362   3.001  0.00  0.00    +0.123 C 
BRANCH  19  20
ATOM     20  CD  GLU A  1       27.659 -14.541   2.848  0.00  0.00    +0.305 C 
ATOM     21  OE1 GLU A  1       26.778 -14.609   2.013  0.00  0.00    -0.251 OA
BRANCH  20  22
ATOM     22  OE2 GLU A  1       27.878 -15.515   3.763  0.00  0.00    -0.481 OA
ATOM     23  HE2 GLU A  1       28.623 -15.341   4.367  0.00  0.00    +0.295 HD
ENDBRANCH  20  22
ENDBRANCH  19  20
ENDBRANCH  18  19
ENDBRANCH  13  18
ENDBRANCH  10  13
ENDBRANCH   6   9
ENDBRANCH   1   3
BRANCH   1  24
ATOM     24  C   UNK A  0       21.609 -18.980   3.244  0.00  0.00    +0.126 C 
BRANCH  24  32
ATOM     25  C   UNK A  0       26.831 -19.605   4.838  0.00  0.00    +0.195 C 
ATOM     26  N   UNK A  0       26.175 -19.932   5.974  0.00  0.00    -0.294 N 
ATOM     27  H   UNK A  0       26.642 -19.904   6.864  0.00  0.00    +0.172 HD
ATOM     28  C   UNK A  0       24.864 -20.298   5.988  0.00  0.00    +0.276 C 
ATOM     29  O   UNK A  0       24.305 -20.504   7.061  0.00  0.00    -0.266 OA
ATOM     30  C   UNK A  0       24.182 -20.363   4.655  0.00  0.00    +0.142 C 
ATOM     31  N   UNK A  0       22.831 -20.742   4.499  0.00  0.00    -0.261 N 
ATOM     32  C   UNK A  0       22.173 -20.429   3.196  0.00  0.00    +0.115 C 
ATOM     33  C   UNK A  0       23.154 -20.657   2.031  0.00  0.00    +0.127 C 
ATOM     34  N   UNK A  0       24.400 -19.973   2.311  0.00  0.00    -0.326 N 
ATOM     35  H   UNK A  0       25.134 -20.046   1.612  0.00  0.00    +0.148 HD
ATOM     36  C   UNK A  0       22.021 -21.282   5.487  0.00  0.00    +0.333 C 
ATOM     37  O   UNK A  0       20.836 -21.570   5.336  0.00  0.00    -0.279 OA
ATOM     38  C   UNK A  0       24.947 -19.993   3.589  0.00  0.00    +0.149 C 
ATOM     39  N   UNK A  0       26.267 -19.634   3.679  0.00  0.00    -0.199 NA
BRANCH  25  40
ATOM     40  N   UNK A  0       28.126 -19.230   4.966  0.00  0.00    -0.329 N 
ATOM     41  H   UNK A  0       28.326 -18.248   4.828  0.00  0.00    +0.145 HD
ATOM     42  H   UNK A  0       28.744 -19.828   4.425  0.00  0.00    +0.145 HD
ENDBRANCH  25  40
ENDBRANCH  24  32
ENDBRANCH   1  24
TORSDOF 12
ENDMDL
