MODEL 1
REMARK VINA RESULT:      -6.2      0.000      0.000
REMARK  Name = *****
REMARK                            x       y       z     vdW  Elec       q    Type
REMARK                         _______ _______ _______ _____ _____    ______ ____
ROOT
ATOM      1  C   LIG    1       25.645 -19.454   3.653  0.00  0.00    +0.116 C 
ENDROOT
BRANCH   1   2
ATOM      2  C   LIG    1       26.563 -19.696   4.862  0.00  0.00    -0.012 A 
ATOM      3  C   LIG    1       27.867 -19.163   4.881  0.00  0.00    +0.007 A 
ATOM      4  C   LIG    1       28.715 -19.374   5.970  0.00  0.00    +0.000 A 
ATOM      5  C   LIG    1       28.279 -20.123   7.060  0.00  0.00    +0.000 A 
ATOM      6  C   LIG    1       26.997 -20.665   7.060  0.00  0.00    +0.000 A 
ATOM      7  C   LIG    1       26.147 -20.454   5.971  0.00  0.00    +0.007 A 
ENDBRANCH   1   2
BRANCH   1   8
ATOM      8  C   LIG    1       24.155 -19.508   4.060  0.00  0.00    -0.012 A 
ATOM      9  C   LIG    1       23.323 -18.373   4.062  0.00  0.00    +0.007 A 
ATOM     10  C   LIG    1       21.980 -18.462   4.437  0.00  0.00    +0.000 A 
ATOM     11  C   LIG    1       21.439 -19.683   4.817  0.00  0.00    +0.000 A 
ATOM     12  C   LIG    1       22.241 -20.824   4.824  0.00  0.00    +0.000 A 
ATOM     13  C   LIG    1       23.583 -20.735   4.449  0.00  0.00    +0.007 A 
ENDBRANCH   1   8
BRANCH   1  14
ATOM     14  O   LIG    1       25.842 -20.498   2.678  0.00  0.00    -0.379 OA
ATOM     15  H   LIG    1       26.796 -20.564   2.510  0.00  0.00    +0.211 HD
ENDBRANCH   1  14
BRANCH   1  16
ATOM     16  C   LIG    1       26.034 -18.126   2.941  0.00  0.00    +0.046 C 
BRANCH  16  17
ATOM     17  C   LIG    1       25.581 -16.842   3.652  0.00  0.00    +0.019 C 
BRANCH  17  18
ATOM     18  C   LIG    1       26.598 -15.707   3.427  0.00  0.00    +0.084 C 
BRANCH  18  19
ATOM     19  N   LIG    1       26.014 -14.359   3.529  0.00  0.00    -0.302 NA
ATOM     20  C   LIG    1       24.650 -14.436   4.084  0.00  0.00    +0.084 C 
ATOM     21  C   LIG    1       24.044 -13.043   4.277  0.00  0.00    +0.015 C 
ATOM     22  C   LIG    1       24.053 -12.247   2.977  0.00  0.00    +0.002 C 
ATOM     23  C   LIG    1       25.448 -12.243   2.370  0.00  0.00    +0.015 C 
ATOM     24  C   LIG    1       26.001 -13.661   2.233  0.00  0.00    +0.084 C 
ENDBRANCH  18  19
ENDBRANCH  17  18
ENDBRANCH  16  17
ENDBRANCH   1  16
TORSDOF 7
ENDMDL
MODEL 2
REMARK VINA RESULT:      -6.2      0.549      1.521
REMARK  Name = *****
REMARK                            x       y       z     vdW  Elec       q    Type
REMARK                         _______ _______ _______ _____ _____    ______ ____
ROOT
ATOM      1  C   LIG    1       25.728 -19.092   3.751  0.00  0.00    +0.116 C 
ENDROOT
BRANCH   1   2
ATOM      2  C   LIG    1       26.680 -19.448   4.906  0.00  0.00    -0.012 A 
ATOM      3  C   LIG    1       26.214 -20.197   6.004  0.00  0.00    +0.007 A 
ATOM      4  C   LIG    1       27.063 -20.528   7.062  0.00  0.00    +0.000 A 
ATOM      5  C   LIG    1       28.393 -20.115   7.045  0.00  0.00    +0.000 A 
ATOM      6  C   LIG    1       28.873 -19.368   5.973  0.00  0.00    +0.000 A 
ATOM      7  C   LIG    1       28.024 -19.037   4.913  0.00  0.00    +0.007 A 
ENDBRANCH   1   2
BRANCH   1   8
ATOM      8  C   LIG    1       24.262 -19.421   4.111  0.00  0.00    -0.012 A 
ATOM      9  C   LIG    1       23.239 -18.454   4.102  0.00  0.00    +0.007 A 
ATOM     10  C   LIG    1       21.924 -18.790   4.434  0.00  0.00    +0.000 A 
ATOM     11  C   LIG    1       21.602 -20.096   4.780  0.00  0.00    +0.000 A 
ATOM     12  C   LIG    1       22.595 -21.074   4.796  0.00  0.00    +0.000 A 
ATOM     13  C   LIG    1       23.910 -20.738   4.464  0.00  0.00    +0.007 A 
ENDBRANCH   1   8
BRANCH   1  14
ATOM     14  O   LIG    1       26.055 -19.887   2.593  0.00  0.00    -0.379 OA
ATOM     15  H   LIG    1       26.038 -20.819   2.863  0.00  0.00    +0.211 HD
ENDBRANCH   1  14
BRANCH   1  16
ATOM     16  C   LIG    1       25.934 -17.609   3.324  0.00  0.00    +0.046 C 
BRANCH  16  17
ATOM     17  C   LIG    1       27.070 -16.870   4.045  0.00  0.00    +0.019 C 
BRANCH  17  18
ATOM     18  C   LIG    1       27.218 -15.436   3.502  0.00  0.00    +0.084 C 
BRANCH  18  19
ATOM     19  N   LIG    1       25.935 -14.740   3.305  0.00  0.00    -0.302 NA
ATOM     20  C   LIG    1       26.081 -13.681   2.289  0.00  0.00    +0.084 C 
ATOM     21  C   LIG    1       24.744 -12.991   2.003  0.00  0.00    +0.015 C 
ATOM     22  C   LIG    1       24.122 -12.434   3.278  0.00  0.00    +0.002 C 
ATOM     23  C   LIG    1       24.051 -13.514   4.347  0.00  0.00    +0.015 C 
ATOM     24  C   LIG    1       25.410 -14.178   4.560  0.00  0.00    +0.084 C 
ENDBRANCH  18  19
ENDBRANCH  17  18
ENDBRANCH  16  17
ENDBRANCH   1  16
TORSDOF 7
ENDMDL
MODEL 3
REMARK VINA RESULT:      -4.2      1.600      2.304
REMARK  Name = *****
REMARK                            x       y       z     vdW  Elec       q    Type
REMARK                         _______ _______ _______ _____ _____    ______ ____
ROOT
ATOM      1  C   LIG    1       25.681 -18.663   3.838  0.00  0.00    +0.116 C 
ENDROOT
BRANCH   1   2
ATOM      2  C   LIG    1       26.923 -18.984   4.686  0.00  0.00    -0.012 A 
ATOM      3  C   LIG    1       28.051 -18.141   4.639  0.00  0.00    +0.007 A 
ATOM      4  C   LIG    1       29.188 -18.418   5.400  0.00  0.00    +0.000 A 
ATOM      5  C   LIG    1       29.223 -19.541   6.222  0.00  0.00    +0.000 A 
ATOM      6  C   LIG    1       28.122 -20.391   6.280  0.00  0.00    +0.000 A 
ATOM      7  C   LIG    1       26.982 -20.115   5.518  0.00  0.00    +0.007 A 
ENDBRANCH   1   2
BRANCH   1   8
ATOM      8  C   LIG    1       24.461 -19.495   4.294  0.00  0.00    -0.012 A 
ATOM      9  C   LIG    1       24.556 -20.851   4.658  0.00  0.00    +0.007 A 
ATOM     10  C   LIG    1       23.428 -21.571   5.064  0.00  0.00    +0.000 A 
ATOM     11  C   LIG    1       22.186 -20.952   5.117  0.00  0.00    +0.000 A 
ATOM     12  C   LIG    1       22.064 -19.610   4.764  0.00  0.00    +0.000 A 
ATOM     13  C   LIG    1       23.191 -18.890   4.357  0.00  0.00    +0.007 A 
ENDBRANCH   1   8
BRANCH   1  14
ATOM     14  O   LIG    1       25.929 -19.016   2.463  0.00  0.00    -0.379 OA
ATOM     15  H   LIG    1       26.831 -19.371   2.410  0.00  0.00    +0.211 HD
ENDBRANCH   1  14
BRANCH   1  16
ATOM     16  C   LIG    1       25.410 -17.130   3.843  0.00  0.00    +0.046 C 
BRANCH  16  17
ATOM     17  C   LIG    1       26.356 -16.293   2.970  0.00  0.00    +0.019 C 
BRANCH  17  18
ATOM     18  C   LIG    1       25.774 -14.888   2.727  0.00  0.00    +0.084 C 
BRANCH  18  19
ATOM     19  N   LIG    1       26.484 -13.819   3.451  0.00  0.00    -0.302 NA
ATOM     20  C   LIG    1       27.942 -13.987   3.305  0.00  0.00    +0.084 C 
ATOM     21  C   LIG    1       28.708 -12.846   3.979  0.00  0.00    +0.015 C 
ATOM     22  C   LIG    1       28.325 -12.709   5.448  0.00  0.00    +0.002 C 
ATOM     23  C   LIG    1       26.813 -12.619   5.592  0.00  0.00    +0.015 C 
ATOM     24  C   LIG    1       26.113 -13.770   4.874  0.00  0.00    +0.084 C 
ENDBRANCH  18  19
ENDBRANCH  17  18
ENDBRANCH  16  17
ENDBRANCH   1  16
TORSDOF 7
ENDMDL
