MODEL 1
REMARK VINA RESULT:      -3.5      0.000      0.000
REMARK  Name = *****
REMARK                            x       y       z     vdW  Elec       q    Type
REMARK                         _______ _______ _______ _____ _____    ______ ____
ROOT
ATOM      1  C   LIG    1       26.511 -13.774   4.387  0.00  0.00    +0.111 C 
ATOM      2  C   LIG    1       27.304 -13.735   3.106  0.00  0.00    +0.232 C 
ATOM      3  N   LIG    1       28.568 -13.229   3.190  0.00  0.00    -0.198 N 
ATOM      4  H   LIG    1       29.104 -13.114   2.334  0.00  0.00    +0.182 HD
ATOM      5  O   LIG    1       26.868 -14.186   2.056  0.00  0.00    -0.274 OA
ENDROOT
BRANCH   3   6
ATOM      6  O   LIG    1       28.999 -12.521   4.324  0.00  0.00    -0.295 OA
ATOM      7  H   LIG    1       28.576 -11.648   4.218  0.00  0.00    +0.241 HD
ENDBRANCH   3   6
TORSDOF 1
ENDMDL
MODEL 2
REMARK VINA RESULT:      -3.4      0.815      2.365
REMARK  Name = *****
REMARK                            x       y       z     vdW  Elec       q    Type
REMARK                         _______ _______ _______ _____ _____    ______ ____
ROOT
ATOM      1  C   LIG    1       26.862 -13.731   4.771  0.00  0.00    +0.111 C 
ATOM      2  C   LIG    1       27.899 -13.387   3.733  0.00  0.00    +0.232 C 
ATOM      3  N   LIG    1       27.571 -13.653   2.435  0.00  0.00    -0.198 N 
ATOM      4  H   LIG    1       28.274 -13.509   1.717  0.00  0.00    +0.182 HD
ATOM      5  O   LIG    1       28.955 -12.844   4.023  0.00  0.00    -0.274 OA
ENDROOT
BRANCH   3   6
ATOM      6  O   LIG    1       26.469 -14.462   2.111  0.00  0.00    -0.295 OA
ATOM      7  H   LIG    1       25.750 -14.093   2.658  0.00  0.00    +0.241 HD
ENDBRANCH   3   6
TORSDOF 1
ENDMDL
MODEL 3
REMARK VINA RESULT:      -3.3      2.567      3.138
REMARK  Name = *****
REMARK                            x       y       z     vdW  Elec       q    Type
REMARK                         _______ _______ _______ _____ _____    ______ ____
ROOT
ATOM      1  C   LIG    1       25.576 -14.030   4.027  0.00  0.00    +0.111 C 
ATOM      2  C   LIG    1       25.767 -13.750   2.558  0.00  0.00    +0.232 C 
ATOM      3  N   LIG    1       24.905 -12.855   1.994  0.00  0.00    -0.198 N 
ATOM      4  H   LIG    1       24.953 -12.701   0.991  0.00  0.00    +0.182 HD
ATOM      5  O   LIG    1       26.679 -14.247   1.914  0.00  0.00    -0.274 OA
ENDROOT
BRANCH   3   6
ATOM      6  O   LIG    1       23.737 -12.447   2.658  0.00  0.00    -0.295 OA
ATOM      7  H   LIG    1       23.033 -12.944   2.202  0.00  0.00    +0.241 HD
ENDBRANCH   3   6
TORSDOF 1
ENDMDL
MODEL 4
REMARK VINA RESULT:      -3.3      1.485      1.574
REMARK  Name = *****
REMARK                            x       y       z     vdW  Elec       q    Type
REMARK                         _______ _______ _______ _____ _____    ______ ____
ROOT
ATOM      1  C   LIG    1       26.196 -13.590   2.425  0.00  0.00    +0.111 C 
ATOM      2  C   LIG    1       26.909 -14.715   3.130  0.00  0.00    +0.232 C 
ATOM      3  N   LIG    1       28.077 -14.395   3.759  0.00  0.00    -0.198 N 
ATOM      4  H   LIG    1       28.624 -15.141   4.177  0.00  0.00    +0.182 HD
ATOM      5  O   LIG    1       26.443 -15.844   3.191  0.00  0.00    -0.274 OA
ENDROOT
BRANCH   3   6
ATOM      6  O   LIG    1       28.724 -13.171   3.520  0.00  0.00    -0.295 OA
ATOM      7  H   LIG    1       28.105 -12.513   3.889  0.00  0.00    +0.241 HD
ENDBRANCH   3   6
TORSDOF 1
ENDMDL
MODEL 5
REMARK VINA RESULT:      -3.2      7.201      7.464
REMARK  Name = *****
REMARK                            x       y       z     vdW  Elec       q    Type
REMARK                         _______ _______ _______ _____ _____    ______ ____
ROOT
ATOM      1  C   LIG    1       25.800 -20.664   6.882  0.00  0.00    +0.111 C 
ATOM      2  C   LIG    1       25.427 -20.463   5.436  0.00  0.00    +0.232 C 
ATOM      3  N   LIG    1       26.461 -20.290   4.561  0.00  0.00    -0.198 N 
ATOM      4  H   LIG    1       26.246 -20.073   3.592  0.00  0.00    +0.182 HD
ATOM      5  O   LIG    1       24.269 -20.510   5.049  0.00  0.00    -0.274 OA
ENDROOT
BRANCH   3   6
ATOM      6  O   LIG    1       27.763 -20.022   5.012  0.00  0.00    -0.295 OA
ATOM      7  H   LIG    1       27.730 -19.076   5.249  0.00  0.00    +0.241 HD
ENDBRANCH   3   6
TORSDOF 1
ENDMDL
MODEL 6
REMARK VINA RESULT:      -3.2      1.241      2.402
REMARK  Name = *****
REMARK                            x       y       z     vdW  Elec       q    Type
REMARK                         _______ _______ _______ _____ _____    ______ ____
ROOT
ATOM      1  C   LIG    1       25.327 -14.139   4.138  0.00  0.00    +0.111 C 
ATOM      2  C   LIG    1       26.757 -13.667   4.203  0.00  0.00    +0.232 C 
ATOM      3  N   LIG    1       27.411 -13.545   3.012  0.00  0.00    -0.198 N 
ATOM      4  H   LIG    1       28.399 -13.306   3.022  0.00  0.00    +0.182 HD
ATOM      5  O   LIG    1       27.291 -13.352   5.257  0.00  0.00    -0.274 OA
ENDROOT
BRANCH   3   6
ATOM      6  O   LIG    1       26.890 -14.099   1.831  0.00  0.00    -0.295 OA
ATOM      7  H   LIG    1       27.203 -13.488   1.138  0.00  0.00    +0.241 HD
ENDBRANCH   3   6
TORSDOF 1
ENDMDL
MODEL 7
REMARK VINA RESULT:      -3.2      2.819      3.305
REMARK  Name = *****
REMARK                            x       y       z     vdW  Elec       q    Type
REMARK                         _______ _______ _______ _____ _____    ______ ____
ROOT
ATOM      1  C   LIG    1       24.433 -14.399   3.992  0.00  0.00    +0.111 C 
ATOM      2  C   LIG    1       24.517 -13.148   3.156  0.00  0.00    +0.232 C 
ATOM      3  N   LIG    1       25.389 -13.177   2.106  0.00  0.00    -0.198 N 
ATOM      4  H   LIG    1       25.531 -12.326   1.569  0.00  0.00    +0.182 HD
ATOM      5  O   LIG    1       23.804 -12.177   3.362  0.00  0.00    -0.274 OA
ENDROOT
BRANCH   3   6
ATOM      6  O   LIG    1       26.357 -14.188   1.987  0.00  0.00    -0.295 OA
ATOM      7  H   LIG    1       26.635 -14.125   1.054  0.00  0.00    +0.241 HD
ENDBRANCH   3   6
TORSDOF 1
ENDMDL
MODEL 8
REMARK VINA RESULT:      -3.2      1.577      1.577
REMARK  Name = *****
REMARK                            x       y       z     vdW  Elec       q    Type
REMARK                         _______ _______ _______ _____ _____    ______ ____
ROOT
ATOM      1  C   LIG    1       24.948 -14.146   3.690  0.00  0.00    +0.111 C 
ATOM      2  C   LIG    1       26.361 -14.036   3.177  0.00  0.00    +0.232 C 
ATOM      3  N   LIG    1       27.318 -13.718   4.097  0.00  0.00    -0.198 N 
ATOM      4  H   LIG    1       28.268 -13.558   3.774  0.00  0.00    +0.182 HD
ATOM      5  O   LIG    1       26.652 -14.275   2.014  0.00  0.00    -0.274 OA
ENDROOT
BRANCH   3   6
ATOM      6  O   LIG    1       26.976 -13.236   5.371  0.00  0.00    -0.295 OA
ATOM      7  H   LIG    1       27.311 -13.929   5.971  0.00  0.00    +0.241 HD
ENDBRANCH   3   6
TORSDOF 1
ENDMDL
MODEL 9
REMARK VINA RESULT:      -3.1      6.302      6.797
REMARK  Name = *****
REMARK                            x       y       z     vdW  Elec       q    Type
REMARK                         _______ _______ _______ _____ _____    ______ ____
ROOT
ATOM      1  C   LIG    1       23.734 -19.281   3.758  0.00  0.00    +0.111 C 
ATOM      2  C   LIG    1       25.222 -19.048   3.696  0.00  0.00    +0.232 C 
ATOM      3  N   LIG    1       26.016 -20.091   4.073  0.00  0.00    -0.198 N 
ATOM      4  H   LIG    1       27.021 -19.946   4.120  0.00  0.00    +0.182 HD
ATOM      5  O   LIG    1       25.701 -18.005   3.274  0.00  0.00    -0.274 OA
ENDROOT
BRANCH   3   6
ATOM      6  O   LIG    1       25.490 -21.202   4.753  0.00  0.00    -0.295 OA
ATOM      7  H   LIG    1       25.756 -21.046   5.679  0.00  0.00    +0.241 HD
ENDBRANCH   3   6
TORSDOF 1
ENDMDL
