MODEL 1
REMARK VINA RESULT:      -8.6      0.000      0.000
REMARK  Name = *****
REMARK                            x       y       z     vdW  Elec       q    Type
REMARK                         _______ _______ _______ _____ _____    ______ ____
ROOT
ATOM      1  C   LIG    1       25.560 -20.427   6.159  0.00  0.00    -0.034 A 
ATOM      2  C   LIG    1       25.537 -20.673   7.540  0.00  0.00    +0.005 A 
ATOM      3  C   LIG    1       26.727 -20.767   8.267  0.00  0.00    +0.004 A 
ATOM      4  C   LIG    1       27.969 -20.634   7.631  0.00  0.00    -0.047 A 
ATOM      5  C   LIG    1       27.991 -20.400   6.251  0.00  0.00    +0.004 A 
ATOM      6  C   LIG    1       26.802 -20.287   5.525  0.00  0.00    +0.005 A 
ENDROOT
BRANCH   1   8
ATOM      7  C   LIG    1       23.069 -20.595   6.244  0.00  0.00    +0.024 C 
ATOM      8  C   LIG    1       24.277 -20.288   5.353  0.00  0.00    +0.124 C 
BRANCH   8   9
ATOM      9  C   LIG    1       24.234 -21.116   4.070  0.00  0.00    +0.312 C 
ATOM     10  O   LIG    1       24.154 -20.632   2.945  0.00  0.00    -0.250 OA
BRANCH   9  11
ATOM     11  O   LIG    1       24.381 -22.451   4.241  0.00  0.00    -0.480 OA
ATOM     12  H   LIG    1       23.609 -22.890   4.652  0.00  0.00    +0.295 HD
ENDBRANCH   9  11
ENDBRANCH   8   9
ENDBRANCH   1   8
BRANCH   4  13
ATOM     13  C   LIG    1       29.258 -20.764   8.414  0.00  0.00    +0.046 C 
BRANCH  13  14
ATOM     14  C   LIG    1       30.406 -19.892   7.889  0.00  0.00    +0.059 C 
ATOM     15  C   LIG    1       31.447 -19.705   8.975  0.00  0.00    +0.137 C 
ATOM     16  O   LIG    1       32.235 -20.577   9.323  0.00  0.00    -0.297 OA
ATOM     17  C   LIG    1       31.415 -18.321   9.577  0.00  0.00    +0.075 C 
ATOM     18  C   LIG    1       30.157 -17.730   8.956  0.00  0.00    +0.008 C 
ATOM     19  C   LIG    1       30.026 -18.435   7.613  0.00  0.00    +0.012 C 
ENDBRANCH  13  14
ENDBRANCH   4  13
TORSDOF 5
ENDMDL
MODEL 2
REMARK VINA RESULT:      -8.6      1.322      1.876
REMARK  Name = *****
REMARK                            x       y       z     vdW  Elec       q    Type
REMARK                         _______ _______ _______ _____ _____    ______ ____
ROOT
ATOM      1  C   LIG    1       25.019 -20.678   6.990  0.00  0.00    -0.034 A 
ATOM      2  C   LIG    1       25.920 -20.444   5.941  0.00  0.00    +0.005 A 
ATOM      3  C   LIG    1       27.292 -20.340   6.190  0.00  0.00    +0.004 A 
ATOM      4  C   LIG    1       27.795 -20.451   7.494  0.00  0.00    -0.047 A 
ATOM      5  C   LIG    1       26.893 -20.673   8.541  0.00  0.00    +0.004 A 
ATOM      6  C   LIG    1       25.524 -20.795   8.292  0.00  0.00    +0.005 A 
ENDROOT
BRANCH   1   8
ATOM      7  C   LIG    1       23.088 -22.261   7.056  0.00  0.00    +0.024 C 
ATOM      8  C   LIG    1       23.525 -20.827   6.738  0.00  0.00    +0.124 C 
BRANCH   8   9
ATOM      9  C   LIG    1       23.067 -20.412   5.341  0.00  0.00    +0.312 C 
ATOM     10  O   LIG    1       22.728 -19.271   5.044  0.00  0.00    -0.250 OA
BRANCH   9  11
ATOM     11  O   LIG    1       23.139 -21.382   4.400  0.00  0.00    -0.480 OA
ATOM     12  H   LIG    1       23.908 -21.304   3.800  0.00  0.00    +0.295 HD
ENDBRANCH   9  11
ENDBRANCH   8   9
ENDBRANCH   1   8
BRANCH   4  13
ATOM     13  C   LIG    1       29.277 -20.310   7.767  0.00  0.00    +0.046 C 
BRANCH  13  14
ATOM     14  C   LIG    1       29.811 -18.878   7.632  0.00  0.00    +0.059 C 
ATOM     15  C   LIG    1       31.326 -18.896   7.587  0.00  0.00    +0.137 C 
ATOM     16  O   LIG    1       31.976 -19.258   6.613  0.00  0.00    -0.297 OA
ATOM     17  C   LIG    1       31.950 -18.412   8.873  0.00  0.00    +0.075 C 
ATOM     18  C   LIG    1       30.742 -18.296   9.792  0.00  0.00    +0.008 C 
ATOM     19  C   LIG    1       29.578 -17.993   8.859  0.00  0.00    +0.012 C 
ENDBRANCH  13  14
ENDBRANCH   4  13
TORSDOF 5
ENDMDL
MODEL 3
REMARK VINA RESULT:      -8.6      5.171      7.698
REMARK  Name = *****
REMARK                            x       y       z     vdW  Elec       q    Type
REMARK                         _______ _______ _______ _____ _____    ______ ____
ROOT
ATOM      1  C   LIG    1       25.197 -22.189   6.906  0.00  0.00    -0.034 A 
ATOM      2  C   LIG    1       23.858 -22.553   6.707  0.00  0.00    +0.005 A 
ATOM      3  C   LIG    1       23.501 -23.893   6.533  0.00  0.00    +0.004 A 
ATOM      4  C   LIG    1       24.476 -24.901   6.539  0.00  0.00    -0.047 A 
ATOM      5  C   LIG    1       25.814 -24.536   6.726  0.00  0.00    +0.004 A 
ATOM      6  C   LIG    1       26.170 -23.198   6.918  0.00  0.00    +0.005 A 
ENDROOT
BRANCH   1   8
ATOM      7  C   LIG    1       26.418 -20.240   5.931  0.00  0.00    +0.024 C 
ATOM      8  C   LIG    1       25.605 -20.739   7.130  0.00  0.00    +0.124 C 
BRANCH   8   9
ATOM      9  C   LIG    1       26.345 -20.478   8.440  0.00  0.00    +0.312 C 
ATOM     10  O   LIG    1       25.843 -20.626   9.550  0.00  0.00    -0.250 OA
BRANCH   9  11
ATOM     11  O   LIG    1       27.650 -20.147   8.308  0.00  0.00    -0.480 OA
ATOM     12  H   LIG    1       28.266 -20.746   8.778  0.00  0.00    +0.295 HD
ENDBRANCH   9  11
ENDBRANCH   8   9
ENDBRANCH   1   8
BRANCH   4  13
ATOM     13  C   LIG    1       24.093 -26.349   6.323  0.00  0.00    +0.046 C 
BRANCH  13  14
ATOM     14  C   LIG    1       25.219 -27.350   6.613  0.00  0.00    +0.059 C 
ATOM     15  C   LIG    1       25.803 -27.859   5.310  0.00  0.00    +0.137 C 
ATOM     16  O   LIG    1       26.541 -27.199   4.589  0.00  0.00    -0.297 OA
ATOM     17  C   LIG    1       25.382 -29.275   5.000  0.00  0.00    +0.075 C 
ATOM     18  C   LIG    1       24.334 -29.541   6.072  0.00  0.00    +0.008 C 
ATOM     19  C   LIG    1       24.755 -28.666   7.244  0.00  0.00    +0.012 C 
ENDBRANCH  13  14
ENDBRANCH   4  13
TORSDOF 5
ENDMDL
MODEL 4
REMARK VINA RESULT:      -8.6      1.287      7.038
REMARK  Name = *****
REMARK                            x       y       z     vdW  Elec       q    Type
REMARK                         _______ _______ _______ _____ _____    ______ ____
ROOT
ATOM      1  C   LIG    1       29.716 -20.488   7.503  0.00  0.00    -0.034 A 
ATOM      2  C   LIG    1       28.620 -21.320   7.777  0.00  0.00    +0.005 A 
ATOM      3  C   LIG    1       27.437 -21.206   7.041  0.00  0.00    +0.004 A 
ATOM      4  C   LIG    1       27.314 -20.249   6.024  0.00  0.00    -0.047 A 
ATOM      5  C   LIG    1       28.404 -19.412   5.759  0.00  0.00    +0.004 A 
ATOM      6  C   LIG    1       29.594 -19.536   6.482  0.00  0.00    +0.005 A 
ENDROOT
BRANCH   1   8
ATOM      7  C   LIG    1       30.988 -21.867   9.152  0.00  0.00    +0.024 C 
ATOM      8  C   LIG    1       31.025 -20.615   8.270  0.00  0.00    +0.124 C 
BRANCH   8   9
ATOM      9  C   LIG    1       31.411 -19.382   9.085  0.00  0.00    +0.312 C 
ATOM     10  O   LIG    1       32.280 -18.584   8.748  0.00  0.00    -0.250 OA
BRANCH   9  11
ATOM     11  O   LIG    1       30.661 -19.166  10.191  0.00  0.00    -0.480 OA
ATOM     12  H   LIG    1       30.751 -18.267  10.567  0.00  0.00    +0.295 HD
ENDBRANCH   9  11
ENDBRANCH   8   9
ENDBRANCH   1   8
BRANCH   4  13
ATOM     13  C   LIG    1       26.024 -20.108   5.246  0.00  0.00    +0.046 C 
BRANCH  13  14
ATOM     14  C   LIG    1       25.036 -21.265   5.445  0.00  0.00    +0.059 C 
ATOM     15  C   LIG    1       23.902 -21.151   4.446  0.00  0.00    +0.137 C 
ATOM     16  O   LIG    1       24.012 -21.416   3.255  0.00  0.00    -0.297 OA
ATOM     17  C   LIG    1       22.616 -20.682   5.081  0.00  0.00    +0.075 C 
ATOM     18  C   LIG    1       23.068 -20.305   6.484  0.00  0.00    +0.008 C 
ATOM     19  C   LIG    1       24.255 -21.217   6.761  0.00  0.00    +0.012 C 
ENDBRANCH  13  14
ENDBRANCH   4  13
TORSDOF 5
ENDMDL
MODEL 5
REMARK VINA RESULT:      -8.5      1.772      6.996
REMARK  Name = *****
REMARK                            x       y       z     vdW  Elec       q    Type
REMARK                         _______ _______ _______ _____ _____    ______ ____
ROOT
ATOM      1  C   LIG    1       29.060 -19.874   7.591  0.00  0.00    -0.034 A 
ATOM      2  C   LIG    1       28.973 -19.735   6.198  0.00  0.00    +0.005 A 
ATOM      3  C   LIG    1       27.766 -19.970   5.532  0.00  0.00    +0.004 A 
ATOM      4  C   LIG    1       26.622 -20.364   6.239  0.00  0.00    -0.047 A 
ATOM      5  C   LIG    1       26.713 -20.513   7.628  0.00  0.00    +0.004 A 
ATOM      6  C   LIG    1       27.914 -20.262   8.297  0.00  0.00    +0.005 A 
ENDROOT
BRANCH   1   8
ATOM      7  C   LIG    1       31.204 -18.592   7.549  0.00  0.00    +0.024 C 
ATOM      8  C   LIG    1       30.354 -19.592   8.341  0.00  0.00    +0.124 C 
BRANCH   8   9
ATOM      9  C   LIG    1       31.167 -20.834   8.703  0.00  0.00    +0.312 C 
ATOM     10  O   LIG    1       32.197 -20.806   9.370  0.00  0.00    -0.250 OA
BRANCH   9  11
ATOM     11  O   LIG    1       30.627 -22.011   8.310  0.00  0.00    -0.480 OA
ATOM     12  H   LIG    1       31.268 -22.634   7.911  0.00  0.00    +0.295 HD
ENDBRANCH   9  11
ENDBRANCH   8   9
ENDBRANCH   1   8
BRANCH   4  13
ATOM     13  C   LIG    1       25.323 -20.645   5.515  0.00  0.00    +0.046 C 
BRANCH  13  14
ATOM     14  C   LIG    1       24.075 -20.576   6.406  0.00  0.00    +0.059 C 
ATOM     15  C   LIG    1       23.513 -21.969   6.611  0.00  0.00    +0.137 C 
ATOM     16  O   LIG    1       24.021 -22.809   7.344  0.00  0.00    -0.297 OA
ATOM     17  C   LIG    1       22.250 -22.207   5.820  0.00  0.00    +0.075 C 
ATOM     18  C   LIG    1       22.179 -20.962   4.947  0.00  0.00    +0.008 C 
ATOM     19  C   LIG    1       22.872 -19.881   5.765  0.00  0.00    +0.012 C 
ENDBRANCH  13  14
ENDBRANCH   4  13
TORSDOF 5
ENDMDL
MODEL 6
REMARK VINA RESULT:      -8.3      1.614      2.075
REMARK  Name = *****
REMARK                            x       y       z     vdW  Elec       q    Type
REMARK                         _______ _______ _______ _____ _____    ______ ____
ROOT
ATOM      1  C   LIG    1       24.449 -21.808   7.195  0.00  0.00    -0.034 A 
ATOM      2  C   LIG    1       24.795 -20.694   7.973  0.00  0.00    +0.005 A 
ATOM      3  C   LIG    1       26.121 -20.482   8.366  0.00  0.00    +0.004 A 
ATOM      4  C   LIG    1       27.129 -21.386   8.003  0.00  0.00    -0.047 A 
ATOM      5  C   LIG    1       26.780 -22.503   7.235  0.00  0.00    +0.004 A 
ATOM      6  C   LIG    1       25.459 -22.707   6.827  0.00  0.00    +0.005 A 
ENDROOT
BRANCH   1   8
ATOM      7  C   LIG    1       22.736 -23.545   6.657  0.00  0.00    +0.024 C 
ATOM      8  C   LIG    1       23.019 -22.041   6.729  0.00  0.00    +0.124 C 
BRANCH   8   9
ATOM      9  C   LIG    1       22.654 -21.352   5.415  0.00  0.00    +0.312 C 
ATOM     10  O   LIG    1       23.401 -20.587   4.813  0.00  0.00    -0.250 OA
BRANCH   9  11
ATOM     11  O   LIG    1       21.459 -21.711   4.890  0.00  0.00    -0.480 OA
ATOM     12  H   LIG    1       20.760 -21.872   5.556  0.00  0.00    +0.295 HD
ENDBRANCH   9  11
ENDBRANCH   8   9
ENDBRANCH   1   8
BRANCH   4  13
ATOM     13  C   LIG    1       28.558 -21.171   8.451  0.00  0.00    +0.046 C 
BRANCH  13  14
ATOM     14  C   LIG    1       29.556 -20.966   7.303  0.00  0.00    +0.059 C 
ATOM     15  C   LIG    1       30.840 -20.364   7.839  0.00  0.00    +0.137 C 
ATOM     16  O   LIG    1       31.671 -20.993   8.484  0.00  0.00    -0.297 OA
ATOM     17  C   LIG    1       30.988 -18.905   7.485  0.00  0.00    +0.075 C 
ATOM     18  C   LIG    1       29.627 -18.579   6.886  0.00  0.00    +0.008 C 
ATOM     19  C   LIG    1       29.148 -19.895   6.288  0.00  0.00    +0.012 C 
ENDBRANCH  13  14
ENDBRANCH   4  13
TORSDOF 5
ENDMDL
MODEL 7
REMARK VINA RESULT:      -8.2      2.253      2.662
REMARK  Name = *****
REMARK                            x       y       z     vdW  Elec       q    Type
REMARK                         _______ _______ _______ _____ _____    ______ ____
ROOT
ATOM      1  C   LIG    1       25.108 -22.699   6.399  0.00  0.00    -0.034 A 
ATOM      2  C   LIG    1       25.893 -22.977   7.527  0.00  0.00    +0.005 A 
ATOM      3  C   LIG    1       26.857 -22.064   7.968  0.00  0.00    +0.004 A 
ATOM      4  C   LIG    1       27.070 -20.859   7.283  0.00  0.00    -0.047 A 
ATOM      5  C   LIG    1       26.293 -20.588   6.150  0.00  0.00    +0.004 A 
ATOM      6  C   LIG    1       25.317 -21.491   5.719  0.00  0.00    +0.005 A 
ENDROOT
BRANCH   1   8
ATOM      7  C   LIG    1       22.797 -23.547   6.821  0.00  0.00    +0.024 C 
ATOM      8  C   LIG    1       24.031 -23.662   5.921  0.00  0.00    +0.124 C 
BRANCH   8   9
ATOM      9  C   LIG    1       24.483 -25.116   5.795  0.00  0.00    +0.312 C 
ATOM     10  O   LIG    1       23.897 -26.062   6.313  0.00  0.00    -0.250 OA
BRANCH   9  11
ATOM     11  O   LIG    1       25.548 -25.320   4.986  0.00  0.00    -0.480 OA
ATOM     12  H   LIG    1       26.357 -25.615   5.452  0.00  0.00    +0.295 HD
ENDBRANCH   9  11
ENDBRANCH   8   9
ENDBRANCH   1   8
BRANCH   4  13
ATOM     13  C   LIG    1       28.131 -19.884   7.743  0.00  0.00    +0.046 C 
BRANCH  13  14
ATOM     14  C   LIG    1       29.549 -20.221   7.263  0.00  0.00    +0.059 C 
ATOM     15  C   LIG    1       30.409 -20.628   8.444  0.00  0.00    +0.137 C 
ATOM     16  O   LIG    1       30.318 -21.708   9.015  0.00  0.00    -0.297 OA
ATOM     17  C   LIG    1       31.398 -19.557   8.835  0.00  0.00    +0.075 C 
ATOM     18  C   LIG    1       30.960 -18.382   7.973  0.00  0.00    +0.008 C 
ATOM     19  C   LIG    1       30.345 -19.024   6.736  0.00  0.00    +0.012 C 
ENDBRANCH  13  14
ENDBRANCH   4  13
TORSDOF 5
ENDMDL
MODEL 8
REMARK VINA RESULT:      -8.1      5.839      8.005
REMARK  Name = *****
REMARK                            x       y       z     vdW  Elec       q    Type
REMARK                         _______ _______ _______ _____ _____    ______ ____
ROOT
ATOM      1  C   LIG    1       24.566 -23.022   7.218  0.00  0.00    -0.034 A 
ATOM      2  C   LIG    1       25.854 -23.575   7.253  0.00  0.00    +0.005 A 
ATOM      3  C   LIG    1       26.084 -24.877   6.797  0.00  0.00    +0.004 A 
ATOM      4  C   LIG    1       25.030 -25.663   6.310  0.00  0.00    -0.047 A 
ATOM      5  C   LIG    1       23.743 -25.113   6.286  0.00  0.00    +0.004 A 
ATOM      6  C   LIG    1       23.515 -23.807   6.725  0.00  0.00    +0.005 A 
ENDROOT
BRANCH   1   8
ATOM      7  C   LIG    1       23.446 -20.867   6.636  0.00  0.00    +0.024 C 
ATOM      8  C   LIG    1       24.298 -21.596   7.679  0.00  0.00    +0.124 C 
BRANCH   8   9
ATOM      9  C   LIG    1       25.549 -20.790   8.024  0.00  0.00    +0.312 C 
ATOM     10  O   LIG    1       26.235 -20.203   7.193  0.00  0.00    -0.250 OA
BRANCH   9  11
ATOM     11  O   LIG    1       25.818 -20.683   9.346  0.00  0.00    -0.480 OA
ATOM     12  H   LIG    1       25.205 -20.098   9.835  0.00  0.00    +0.295 HD
ENDBRANCH   9  11
ENDBRANCH   8   9
ENDBRANCH   1   8
BRANCH   4  13
ATOM     13  C   LIG    1       25.275 -27.081   5.842  0.00  0.00    +0.046 C 
BRANCH  13  14
ATOM     14  C   LIG    1       24.436 -28.139   6.570  0.00  0.00    +0.059 C 
ATOM     15  C   LIG    1       25.322 -28.948   7.498  0.00  0.00    +0.137 C 
ATOM     16  O   LIG    1       25.761 -28.527   8.562  0.00  0.00    -0.297 OA
ATOM     17  C   LIG    1       25.598 -30.335   6.972  0.00  0.00    +0.075 C 
ATOM     18  C   LIG    1       25.014 -30.269   5.568  0.00  0.00    +0.008 C 
ATOM     19  C   LIG    1       23.888 -29.250   5.670  0.00  0.00    +0.012 C 
ENDBRANCH  13  14
ENDBRANCH   4  13
TORSDOF 5
ENDMDL
MODEL 9
REMARK VINA RESULT:      -8.1      5.463      7.826
REMARK  Name = *****
REMARK                            x       y       z     vdW  Elec       q    Type
REMARK                         _______ _______ _______ _____ _____    ______ ____
ROOT
ATOM      1  C   LIG    1       24.948 -22.451   6.927  0.00  0.00    -0.034 A 
ATOM      2  C   LIG    1       26.018 -23.350   6.805  0.00  0.00    +0.005 A 
ATOM      3  C   LIG    1       25.785 -24.711   6.588  0.00  0.00    +0.004 A 
ATOM      4  C   LIG    1       24.478 -25.210   6.503  0.00  0.00    -0.047 A 
ATOM      5  C   LIG    1       23.410 -24.315   6.635  0.00  0.00    +0.004 A 
ATOM      6  C   LIG    1       23.642 -22.951   6.834  0.00  0.00    +0.005 A 
ENDROOT
BRANCH   1   8
ATOM      7  C   LIG    1       25.662 -20.328   5.822  0.00  0.00    +0.024 C 
ATOM      8  C   LIG    1       25.178 -20.961   7.131  0.00  0.00    +0.124 C 
BRANCH   8   9
ATOM      9  C   LIG    1       26.112 -20.610   8.287  0.00  0.00    +0.312 C 
ATOM     10  O   LIG    1       25.832 -20.782   9.469  0.00  0.00    -0.250 OA
BRANCH   9  11
ATOM     11  O   LIG    1       27.338 -20.166   7.922  0.00  0.00    -0.480 OA
ATOM     12  H   LIG    1       27.328 -19.323   7.426  0.00  0.00    +0.295 HD
ENDBRANCH   9  11
ENDBRANCH   8   9
ENDBRANCH   1   8
BRANCH   4  13
ATOM     13  C   LIG    1       24.226 -26.688   6.295  0.00  0.00    +0.046 C 
BRANCH  13  14
ATOM     14  C   LIG    1       25.486 -27.560   6.370  0.00  0.00    +0.059 C 
ATOM     15  C   LIG    1       25.169 -28.964   5.892  0.00  0.00    +0.137 C 
ATOM     16  O   LIG    1       25.000 -29.263   4.716  0.00  0.00    -0.297 OA
ATOM     17  C   LIG    1       25.091 -29.958   7.026  0.00  0.00    +0.075 C 
ATOM     18  C   LIG    1       25.164 -29.056   8.250  0.00  0.00    +0.008 C 
ATOM     19  C   LIG    1       25.976 -27.853   7.791  0.00  0.00    +0.012 C 
ENDBRANCH  13  14
ENDBRANCH   4  13
TORSDOF 5
ENDMDL
