MODEL 1
REMARK VINA RESULT:      -9.1      0.000      0.000
REMARK  Name = *****
REMARK                            x       y       z     vdW  Elec       q    Type
REMARK                         _______ _______ _______ _____ _____    ______ ____
ROOT
ATOM      1  C   LIG    1       25.518 -21.382   6.584  0.00  0.00    +0.205 C 
ENDROOT
BRANCH   1   2
ATOM      2  C   LIG    1       24.616 -20.573   5.662  0.00  0.00    -0.007 A 
ATOM      3  C   LIG    1       23.271 -20.325   5.987  0.00  0.00    +0.007 A 
ATOM      4  C   LIG    1       22.484 -19.500   5.182  0.00  0.00    +0.000 A 
ATOM      5  C   LIG    1       23.025 -18.924   4.035  0.00  0.00    +0.000 A 
ATOM      6  C   LIG    1       24.347 -19.185   3.683  0.00  0.00    +0.000 A 
ATOM      7  C   LIG    1       25.138 -20.005   4.490  0.00  0.00    +0.007 A 
ENDBRANCH   1   2
BRANCH   1   8
ATOM      8  C   LIG    1       26.193 -20.445   7.605  0.00  0.00    +0.064 C 
BRANCH   8   9
ATOM      9  C   LIG    1       27.715 -20.602   7.616  0.00  0.00    +0.084 C 
BRANCH   9  11
ATOM     10  C   LIG    1       28.714 -19.375   5.762  0.00  0.00    +0.101 C 
ATOM     11  N   LIG    1       28.297 -20.677   6.271  0.00  0.00    -0.319 NA
ATOM     12  H   LIG    1       29.114 -21.286   6.306  0.00  0.00    +0.122 HD
ENDBRANCH   9  11
ENDBRANCH   8   9
ENDBRANCH   1   8
BRANCH   1  13
ATOM     13  O   LIG    1       24.722 -22.354   7.273  0.00  0.00    -0.484 OA
BRANCH  13  14
ATOM     14  C   LIG    1       24.719 -23.665   6.884  0.00  0.00    +0.121 A 
ATOM     15  C   LIG    1       25.982 -24.267   6.886  0.00  0.00    +0.046 A 
ATOM     16  C   LIG    1       26.147 -25.603   6.502  0.00  0.00    +0.016 A 
ATOM     17  C   LIG    1       25.043 -26.368   6.105  0.00  0.00    +0.055 A 
ATOM     18  C   LIG    1       23.778 -25.765   6.112  0.00  0.00    +0.016 A 
ATOM     19  C   LIG    1       23.618 -24.428   6.501  0.00  0.00    +0.046 A 
BRANCH  17  20
ATOM     20  C   LIG    1       25.219 -27.806   5.683  0.00  0.00    +0.417 C 
ATOM     21  F   LIG    1       26.309 -27.990   4.889  0.00  0.00    -0.166 F 
ATOM     22  F   LIG    1       24.155 -28.275   4.973  0.00  0.00    -0.166 F 
ATOM     23  F   LIG    1       25.373 -28.666   6.730  0.00  0.00    -0.166 F 
ENDBRANCH  17  20
ENDBRANCH  13  14
ENDBRANCH   1  13
TORSDOF 7
ENDMDL
MODEL 2
REMARK VINA RESULT:      -9.0      0.241      1.317
REMARK  Name = *****
REMARK                            x       y       z     vdW  Elec       q    Type
REMARK                         _______ _______ _______ _____ _____    ______ ____
ROOT
ATOM      1  C   LIG    1       25.331 -21.432   6.634  0.00  0.00    +0.205 C 
ENDROOT
BRANCH   1   2
ATOM      2  C   LIG    1       24.480 -20.598   5.686  0.00  0.00    -0.007 A 
ATOM      3  C   LIG    1       23.142 -20.288   5.984  0.00  0.00    +0.007 A 
ATOM      4  C   LIG    1       22.405 -19.441   5.155  0.00  0.00    +0.000 A 
ATOM      5  C   LIG    1       22.989 -18.906   4.009  0.00  0.00    +0.000 A 
ATOM      6  C   LIG    1       24.304 -19.228   3.683  0.00  0.00    +0.000 A 
ATOM      7  C   LIG    1       25.045 -20.070   4.515  0.00  0.00    +0.007 A 
ENDBRANCH   1   2
BRANCH   1   8
ATOM      8  C   LIG    1       25.826 -20.551   7.798  0.00  0.00    +0.064 C 
BRANCH   8   9
ATOM      9  C   LIG    1       27.349 -20.398   7.800  0.00  0.00    +0.084 C 
BRANCH   9  11
ATOM     10  C   LIG    1       28.561 -19.728   5.794  0.00  0.00    +0.101 C 
ATOM     11  N   LIG    1       27.974 -20.832   6.545  0.00  0.00    -0.319 NA
ATOM     12  H   LIG    1       28.713 -21.500   6.766  0.00  0.00    +0.122 HD
ENDBRANCH   9  11
ENDBRANCH   8   9
ENDBRANCH   1   8
BRANCH   1  13
ATOM     13  O   LIG    1       24.534 -22.506   7.147  0.00  0.00    -0.484 OA
BRANCH  13  14
ATOM     14  C   LIG    1       24.801 -23.803   6.808  0.00  0.00    +0.121 A 
ATOM     15  C   LIG    1       23.678 -24.537   6.410  0.00  0.00    +0.046 A 
ATOM     16  C   LIG    1       23.785 -25.883   6.043  0.00  0.00    +0.016 A 
ATOM     17  C   LIG    1       25.029 -26.527   6.067  0.00  0.00    +0.055 A 
ATOM     18  C   LIG    1       26.153 -25.789   6.458  0.00  0.00    +0.016 A 
ATOM     19  C   LIG    1       26.041 -24.439   6.822  0.00  0.00    +0.046 A 
BRANCH  17  20
ATOM     20  C   LIG    1       25.146 -27.980   5.679  0.00  0.00    +0.417 C 
ATOM     21  F   LIG    1       24.084 -28.416   4.947  0.00  0.00    -0.166 F 
ATOM     22  F   LIG    1       25.219 -28.805   6.761  0.00  0.00    -0.166 F 
ATOM     23  F   LIG    1       26.251 -28.256   4.929  0.00  0.00    -0.166 F 
ENDBRANCH  17  20
ENDBRANCH  13  14
ENDBRANCH   1  13
TORSDOF 7
ENDMDL
MODEL 3
REMARK VINA RESULT:      -8.8      4.443      6.314
REMARK  Name = *****
REMARK                            x       y       z     vdW  Elec       q    Type
REMARK                         _______ _______ _______ _____ _____    ______ ____
ROOT
ATOM      1  C   LIG    1       24.978 -21.351   6.790  0.00  0.00    +0.205 C 
ENDROOT
BRANCH   1   2
ATOM      2  C   LIG    1       24.234 -20.535   5.741  0.00  0.00    -0.007 A 
ATOM      3  C   LIG    1       22.937 -20.048   5.978  0.00  0.00    +0.007 A 
ATOM      4  C   LIG    1       22.306 -19.220   5.048  0.00  0.00    +0.000 A 
ATOM      5  C   LIG    1       22.956 -18.879   3.864  0.00  0.00    +0.000 A 
ATOM      6  C   LIG    1       24.229 -19.378   3.601  0.00  0.00    +0.000 A 
ATOM      7  C   LIG    1       24.865 -20.202   4.533  0.00  0.00    +0.007 A 
ENDBRANCH   1   2
BRANCH   1   8
ATOM      8  C   LIG    1       24.166 -22.614   7.137  0.00  0.00    +0.064 C 
BRANCH   8   9
ATOM      9  C   LIG    1       24.863 -23.895   6.673  0.00  0.00    +0.084 C 
BRANCH   9  11
ATOM     10  C   LIG    1       25.130 -25.465   4.826  0.00  0.00    +0.101 C 
ATOM     11  N   LIG    1       24.778 -24.105   5.222  0.00  0.00    -0.319 NA
ATOM     12  H   LIG    1       23.820 -23.921   4.925  0.00  0.00    +0.122 HD
ENDBRANCH   9  11
ENDBRANCH   8   9
ENDBRANCH   1   8
BRANCH   1  13
ATOM     13  O   LIG    1       26.255 -21.728   6.261  0.00  0.00    -0.484 OA
BRANCH  13  14
ATOM     14  C   LIG    1       27.384 -21.030   6.587  0.00  0.00    +0.121 A 
ATOM     15  C   LIG    1       28.042 -21.500   7.729  0.00  0.00    +0.046 A 
ATOM     16  C   LIG    1       29.208 -20.883   8.198  0.00  0.00    +0.016 A 
ATOM     17  C   LIG    1       29.743 -19.776   7.528  0.00  0.00    +0.055 A 
ATOM     18  C   LIG    1       29.088 -19.313   6.380  0.00  0.00    +0.016 A 
ATOM     19  C   LIG    1       27.922 -19.935   5.912  0.00  0.00    +0.046 A 
BRANCH  17  20
ATOM     20  C   LIG    1       30.995 -19.106   8.036  0.00  0.00    +0.417 C 
ATOM     21  F   LIG    1       31.541 -19.752   9.103  0.00  0.00    -0.166 F 
ATOM     22  F   LIG    1       30.772 -17.826   8.447  0.00  0.00    -0.166 F 
ATOM     23  F   LIG    1       31.987 -19.026   7.104  0.00  0.00    -0.166 F 
ENDBRANCH  17  20
ENDBRANCH  13  14
ENDBRANCH   1  13
TORSDOF 7
ENDMDL
MODEL 4
REMARK VINA RESULT:      -8.6      1.594      3.428
REMARK  Name = *****
REMARK                            x       y       z     vdW  Elec       q    Type
REMARK                         _______ _______ _______ _____ _____    ______ ____
ROOT
ATOM      1  C   LIG    1       24.536 -20.735   7.018  0.00  0.00    +0.205 C 
ENDROOT
BRANCH   1   2
ATOM      2  C   LIG    1       26.023 -20.419   6.946  0.00  0.00    -0.007 A 
ATOM      3  C   LIG    1       26.827 -20.413   8.099  0.00  0.00    +0.007 A 
ATOM      4  C   LIG    1       28.206 -20.218   8.005  0.00  0.00    +0.000 A 
ATOM      5  C   LIG    1       28.798 -20.012   6.761  0.00  0.00    +0.000 A 
ATOM      6  C   LIG    1       28.011 -19.985   5.612  0.00  0.00    +0.000 A 
ATOM      7  C   LIG    1       26.632 -20.185   5.703  0.00  0.00    +0.007 A 
ENDBRANCH   1   2
BRANCH   1   8
ATOM      8  C   LIG    1       23.985 -20.970   5.598  0.00  0.00    +0.064 C 
BRANCH   8   9
ATOM      9  C   LIG    1       22.561 -20.434   5.434  0.00  0.00    +0.084 C 
BRANCH   9  11
ATOM     10  C   LIG    1       23.649 -19.050   3.747  0.00  0.00    +0.101 C 
ATOM     11  N   LIG    1       22.494 -19.212   4.624  0.00  0.00    -0.319 NA
ATOM     12  H   LIG    1       21.655 -19.253   4.046  0.00  0.00    +0.122 HD
ENDBRANCH   9  11
ENDBRANCH   8   9
ENDBRANCH   1   8
BRANCH   1  13
ATOM     13  O   LIG    1       24.352 -21.916   7.808  0.00  0.00    -0.484 OA
BRANCH  13  14
ATOM     14  C   LIG    1       24.442 -23.159   7.246  0.00  0.00    +0.121 A 
ATOM     15  C   LIG    1       25.740 -23.679   7.203  0.00  0.00    +0.046 A 
ATOM     16  C   LIG    1       25.998 -24.937   6.646  0.00  0.00    +0.016 A 
ATOM     17  C   LIG    1       24.954 -25.706   6.118  0.00  0.00    +0.055 A 
ATOM     18  C   LIG    1       23.653 -25.187   6.170  0.00  0.00    +0.016 A 
ATOM     19  C   LIG    1       23.400 -23.928   6.731  0.00  0.00    +0.046 A 
BRANCH  17  20
ATOM     20  C   LIG    1       25.230 -27.059   5.511  0.00  0.00    +0.417 C 
ATOM     21  F   LIG    1       24.092 -27.724   5.170  0.00  0.00    -0.166 F 
ATOM     22  F   LIG    1       25.905 -27.884   6.360  0.00  0.00    -0.166 F 
ATOM     23  F   LIG    1       25.981 -27.004   4.374  0.00  0.00    -0.166 F 
ENDBRANCH  17  20
ENDBRANCH  13  14
ENDBRANCH   1  13
TORSDOF 7
ENDMDL
MODEL 5
REMARK VINA RESULT:      -8.4      4.233      6.888
REMARK  Name = *****
REMARK                            x       y       z     vdW  Elec       q    Type
REMARK                         _______ _______ _______ _____ _____    ______ ____
ROOT
ATOM      1  C   LIG    1       24.750 -23.122   6.420  0.00  0.00    +0.205 C 
ENDROOT
BRANCH   1   2
ATOM      2  C   LIG    1       24.911 -24.635   6.373  0.00  0.00    -0.007 A 
ATOM      3  C   LIG    1       23.936 -25.456   5.781  0.00  0.00    +0.007 A 
ATOM      4  C   LIG    1       24.141 -26.831   5.659  0.00  0.00    +0.000 A 
ATOM      5  C   LIG    1       25.316 -27.405   6.139  0.00  0.00    +0.000 A 
ATOM      6  C   LIG    1       26.278 -26.610   6.755  0.00  0.00    +0.000 A 
ATOM      7  C   LIG    1       26.077 -25.233   6.874  0.00  0.00    +0.007 A 
ENDBRANCH   1   2
BRANCH   1   8
ATOM      8  C   LIG    1       23.295 -22.764   6.779  0.00  0.00    +0.064 C 
BRANCH   8   9
ATOM      9  C   LIG    1       22.814 -21.503   6.056  0.00  0.00    +0.084 C 
BRANCH   9  11
ATOM     10  C   LIG    1       23.494 -20.057   4.215  0.00  0.00    +0.101 C 
ATOM     11  N   LIG    1       23.270 -21.427   4.663  0.00  0.00    -0.319 NA
ATOM     12  H   LIG    1       24.148 -21.940   4.582  0.00  0.00    +0.122 HD
ENDBRANCH   9  11
ENDBRANCH   8   9
ENDBRANCH   1   8
BRANCH   1  13
ATOM     13  O   LIG    1       25.636 -22.593   7.414  0.00  0.00    -0.484 OA
BRANCH  13  14
ATOM     14  C   LIG    1       26.587 -21.666   7.087  0.00  0.00    +0.121 A 
ATOM     15  C   LIG    1       27.721 -21.693   7.906  0.00  0.00    +0.046 A 
ATOM     16  C   LIG    1       28.779 -20.798   7.707  0.00  0.00    +0.016 A 
ATOM     17  C   LIG    1       28.722 -19.852   6.676  0.00  0.00    +0.055 A 
ATOM     18  C   LIG    1       27.589 -19.833   5.852  0.00  0.00    +0.016 A 
ATOM     19  C   LIG    1       26.534 -20.733   6.054  0.00  0.00    +0.046 A 
BRANCH  17  20
ATOM     20  C   LIG    1       29.858 -18.882   6.463  0.00  0.00    +0.417 C 
ATOM     21  F   LIG    1       31.069 -19.499   6.394  0.00  0.00    -0.166 F 
ATOM     22  F   LIG    1       29.960 -17.970   7.470  0.00  0.00    -0.166 F 
ATOM     23  F   LIG    1       29.746 -18.155   5.315  0.00  0.00    -0.166 F 
ENDBRANCH  17  20
ENDBRANCH  13  14
ENDBRANCH   1  13
TORSDOF 7
ENDMDL
MODEL 6
REMARK VINA RESULT:      -8.3      4.316      6.904
REMARK  Name = *****
REMARK                            x       y       z     vdW  Elec       q    Type
REMARK                         _______ _______ _______ _____ _____    ______ ____
ROOT
ATOM      1  C   LIG    1       24.948 -23.580   6.544  0.00  0.00    +0.205 C 
ENDROOT
BRANCH   1   2
ATOM      2  C   LIG    1       25.059 -25.094   6.431  0.00  0.00    -0.007 A 
ATOM      3  C   LIG    1       26.012 -25.815   7.171  0.00  0.00    +0.007 A 
ATOM      4  C   LIG    1       26.037 -27.210   7.132  0.00  0.00    +0.000 A 
ATOM      5  C   LIG    1       25.122 -27.902   6.343  0.00  0.00    +0.000 A 
ATOM      6  C   LIG    1       24.191 -27.202   5.580  0.00  0.00    +0.000 A 
ATOM      7  C   LIG    1       24.160 -25.806   5.622  0.00  0.00    +0.007 A 
ENDBRANCH   1   2
BRANCH   1   8
ATOM      8  C   LIG    1       26.120 -23.034   7.383  0.00  0.00    +0.064 C 
BRANCH   8   9
ATOM      9  C   LIG    1       25.652 -22.055   8.462  0.00  0.00    +0.084 C 
BRANCH   9  11
ATOM     10  C   LIG    1       27.187 -20.380   7.577  0.00  0.00    +0.101 C 
ATOM     11  N   LIG    1       26.645 -21.019   8.771  0.00  0.00    -0.319 NA
ATOM     12  H   LIG    1       26.198 -20.304   9.345  0.00  0.00    +0.122 HD
ENDBRANCH   9  11
ENDBRANCH   8   9
ENDBRANCH   1   8
BRANCH   1  13
ATOM     13  O   LIG    1       24.993 -23.014   5.228  0.00  0.00    -0.484 OA
BRANCH  13  14
ATOM     14  C   LIG    1       24.442 -21.790   4.971  0.00  0.00    +0.121 A 
ATOM     15  C   LIG    1       23.255 -21.535   5.668  0.00  0.00    +0.046 A 
ATOM     16  C   LIG    1       22.564 -20.329   5.504  0.00  0.00    +0.016 A 
ATOM     17  C   LIG    1       23.050 -19.346   4.633  0.00  0.00    +0.055 A 
ATOM     18  C   LIG    1       24.242 -19.600   3.942  0.00  0.00    +0.016 A 
ATOM     19  C   LIG    1       24.933 -20.808   4.112  0.00  0.00    +0.046 A 
BRANCH  17  20
ATOM     20  C   LIG    1       22.303 -18.049   4.449  0.00  0.00    +0.417 C 
ATOM     21  F   LIG    1       21.178 -18.193   3.696  0.00  0.00    -0.166 F 
ATOM     22  F   LIG    1       23.053 -17.100   3.822  0.00  0.00    -0.166 F 
ATOM     23  F   LIG    1       21.895 -17.484   5.620  0.00  0.00    -0.166 F 
ENDBRANCH  17  20
ENDBRANCH  13  14
ENDBRANCH   1  13
TORSDOF 7
ENDMDL
MODEL 7
REMARK VINA RESULT:      -8.2      4.011      5.754
REMARK  Name = *****
REMARK                            x       y       z     vdW  Elec       q    Type
REMARK                         _______ _______ _______ _____ _____    ______ ____
ROOT
ATOM      1  C   LIG    1       23.614 -22.493   6.627  0.00  0.00    +0.205 C 
ENDROOT
BRANCH   1   2
ATOM      2  C   LIG    1       23.611 -21.299   5.682  0.00  0.00    -0.007 A 
ATOM      3  C   LIG    1       24.467 -21.246   4.568  0.00  0.00    +0.007 A 
ATOM      4  C   LIG    1       24.385 -20.193   3.656  0.00  0.00    +0.000 A 
ATOM      5  C   LIG    1       23.459 -19.171   3.853  0.00  0.00    +0.000 A 
ATOM      6  C   LIG    1       22.625 -19.194   4.968  0.00  0.00    +0.000 A 
ATOM      7  C   LIG    1       22.701 -20.250   5.878  0.00  0.00    +0.007 A 
ENDBRANCH   1   2
BRANCH   1   8
ATOM      8  C   LIG    1       24.305 -23.692   5.948  0.00  0.00    +0.064 C 
BRANCH   8   9
ATOM      9  C   LIG    1       23.762 -25.032   6.449  0.00  0.00    +0.084 C 
BRANCH   9  11
ATOM     10  C   LIG    1       25.446 -25.896   4.911  0.00  0.00    +0.101 C 
ATOM     11  N   LIG    1       24.217 -26.175   5.647  0.00  0.00    -0.319 NA
ATOM     12  H   LIG    1       24.388 -26.961   6.273  0.00  0.00    +0.122 HD
ENDBRANCH   9  11
ENDBRANCH   8   9
ENDBRANCH   1   8
BRANCH   1  13
ATOM     13  O   LIG    1       24.324 -22.138   7.819  0.00  0.00    -0.484 OA
BRANCH  13  14
ATOM     14  C   LIG    1       25.639 -21.765   7.769  0.00  0.00    +0.121 A 
ATOM     15  C   LIG    1       25.900 -20.507   8.322  0.00  0.00    +0.046 A 
ATOM     16  C   LIG    1       27.196 -19.978   8.337  0.00  0.00    +0.016 A 
ATOM     17  C   LIG    1       28.264 -20.704   7.795  0.00  0.00    +0.055 A 
ATOM     18  C   LIG    1       28.001 -21.967   7.249  0.00  0.00    +0.016 A 
ATOM     19  C   LIG    1       26.702 -22.493   7.239  0.00  0.00    +0.046 A 
BRANCH  17  20
ATOM     20  C   LIG    1       29.661 -20.133   7.803  0.00  0.00    +0.417 C 
ATOM     21  F   LIG    1       30.520 -20.861   8.567  0.00  0.00    -0.166 F 
ATOM     22  F   LIG    1       29.703 -18.864   8.296  0.00  0.00    -0.166 F 
ATOM     23  F   LIG    1       30.230 -20.068   6.566  0.00  0.00    -0.166 F 
ENDBRANCH  17  20
ENDBRANCH  13  14
ENDBRANCH   1  13
TORSDOF 7
ENDMDL
MODEL 8
REMARK VINA RESULT:      -8.1      1.579      3.618
REMARK  Name = *****
REMARK                            x       y       z     vdW  Elec       q    Type
REMARK                         _______ _______ _______ _____ _____    ______ ____
ROOT
ATOM      1  C   LIG    1       25.281 -21.922   7.196  0.00  0.00    +0.205 C 
ENDROOT
BRANCH   1   2
ATOM      2  C   LIG    1       26.629 -21.241   7.003  0.00  0.00    -0.007 A 
ATOM      3  C   LIG    1       27.727 -21.549   7.823  0.00  0.00    +0.007 A 
ATOM      4  C   LIG    1       28.982 -20.990   7.573  0.00  0.00    +0.000 A 
ATOM      5  C   LIG    1       29.151 -20.105   6.511  0.00  0.00    +0.000 A 
ATOM      6  C   LIG    1       28.065 -19.767   5.708  0.00  0.00    +0.000 A 
ATOM      7  C   LIG    1       26.810 -20.329   5.952  0.00  0.00    +0.007 A 
ENDBRANCH   1   2
BRANCH   1   8
ATOM      8  C   LIG    1       24.174 -20.857   7.329  0.00  0.00    +0.064 C 
BRANCH   8   9
ATOM      9  C   LIG    1       23.065 -21.042   6.291  0.00  0.00    +0.084 C 
BRANCH   9  11
ATOM     10  C   LIG    1       22.426 -19.215   4.808  0.00  0.00    +0.101 C 
ATOM     11  N   LIG    1       23.331 -20.338   5.030  0.00  0.00    -0.319 NA
ATOM     12  H   LIG    1       24.286 -19.981   5.055  0.00  0.00    +0.122 HD
ENDBRANCH   9  11
ENDBRANCH   8   9
ENDBRANCH   1   8
BRANCH   1  13
ATOM     13  O   LIG    1       25.016 -22.753   6.059  0.00  0.00    -0.484 OA
BRANCH  13  14
ATOM     14  C   LIG    1       25.117 -24.114   6.144  0.00  0.00    +0.121 A 
ATOM     15  C   LIG    1       23.963 -24.802   5.755  0.00  0.00    +0.046 A 
ATOM     16  C   LIG    1       23.904 -26.200   5.796  0.00  0.00    +0.016 A 
ATOM     17  C   LIG    1       25.009 -26.943   6.231  0.00  0.00    +0.055 A 
ATOM     18  C   LIG    1       26.167 -26.252   6.613  0.00  0.00    +0.016 A 
ATOM     19  C   LIG    1       26.221 -24.852   6.567  0.00  0.00    +0.046 A 
BRANCH  17  20
ATOM     20  C   LIG    1       24.947 -28.449   6.283  0.00  0.00    +0.417 C 
ATOM     21  F   LIG    1       25.422 -28.954   7.455  0.00  0.00    -0.166 F 
ATOM     22  F   LIG    1       25.681 -29.036   5.298  0.00  0.00    -0.166 F 
ATOM     23  F   LIG    1       23.685 -28.947   6.150  0.00  0.00    -0.166 F 
ENDBRANCH  17  20
ENDBRANCH  13  14
ENDBRANCH   1  13
TORSDOF 7
ENDMDL
MODEL 9
REMARK VINA RESULT:      -7.9      4.403      6.962
REMARK  Name = *****
REMARK                            x       y       z     vdW  Elec       q    Type
REMARK                         _______ _______ _______ _____ _____    ______ ____
ROOT
ATOM      1  C   LIG    1       29.966 -18.778   7.906  0.00  0.00    +0.205 C 
ENDROOT
BRANCH   1   2
ATOM      2  C   LIG    1       30.559 -17.875   8.979  0.00  0.00    -0.007 A 
ATOM      3  C   LIG    1       29.974 -17.768  10.252  0.00  0.00    +0.007 A 
ATOM      4  C   LIG    1       30.583 -17.013  11.255  0.00  0.00    +0.000 A 
ATOM      5  C   LIG    1       31.775 -16.343  10.996  0.00  0.00    +0.000 A 
ATOM      6  C   LIG    1       32.352 -16.413   9.731  0.00  0.00    +0.000 A 
ATOM      7  C   LIG    1       31.748 -17.173   8.726  0.00  0.00    +0.007 A 
ENDBRANCH   1   2
BRANCH   1   8
ATOM      8  C   LIG    1       31.077 -19.649   7.287  0.00  0.00    +0.064 C 
BRANCH   8   9
ATOM      9  C   LIG    1       31.833 -20.458   8.343  0.00  0.00    +0.084 C 
BRANCH   9  11
ATOM     10  C   LIG    1       30.845 -22.240   9.682  0.00  0.00    +0.101 C 
ATOM     11  N   LIG    1       31.422 -21.866   8.395  0.00  0.00    -0.319 NA
ATOM     12  H   LIG    1       30.721 -22.025   7.670  0.00  0.00    +0.122 HD
ENDBRANCH   9  11
ENDBRANCH   8   9
ENDBRANCH   1   8
BRANCH   1  13
ATOM     13  O   LIG    1       28.973 -19.618   8.506  0.00  0.00    -0.484 OA
BRANCH  13  14
ATOM     14  C   LIG    1       27.848 -19.980   7.818  0.00  0.00    +0.121 A 
ATOM     15  C   LIG    1       26.766 -20.332   8.630  0.00  0.00    +0.046 A 
ATOM     16  C   LIG    1       25.546 -20.737   8.076  0.00  0.00    +0.016 A 
ATOM     17  C   LIG    1       25.384 -20.796   6.686  0.00  0.00    +0.055 A 
ATOM     18  C   LIG    1       26.467 -20.435   5.874  0.00  0.00    +0.016 A 
ATOM     19  C   LIG    1       27.686 -20.027   6.435  0.00  0.00    +0.046 A 
BRANCH  17  20
ATOM     20  C   LIG    1       24.073 -21.238   6.085  0.00  0.00    +0.417 C 
ATOM     21  F   LIG    1       23.101 -20.291   6.192  0.00  0.00    -0.166 F 
ATOM     22  F   LIG    1       23.575 -22.356   6.685  0.00  0.00    -0.166 F 
ATOM     23  F   LIG    1       24.155 -21.537   4.758  0.00  0.00    -0.166 F 
ENDBRANCH  17  20
ENDBRANCH  13  14
ENDBRANCH   1  13
TORSDOF 7
ENDMDL
