MODEL 1
REMARK VINA RESULT:      -0.6      0.000      0.000
REMARK  Name = *****
REMARK                            x       y       z     vdW  Elec       q    Type
REMARK                         _______ _______ _______ _____ _____    ______ ____
ROOT
ATOM      1  N   LIG    1       23.495 -17.710   4.585  0.00  0.00    -0.297 NA
ATOM      2  C   LIG    1       22.833 -18.556   5.586  0.00  0.00    +0.100 C 
ATOM      3  C   LIG    1       22.184 -19.859   5.070  0.00  0.00    +0.100 C 
ATOM      4  N   LIG    1       23.088 -20.788   4.368  0.00  0.00    -0.292 NA
ATOM      5  C   LIG    1       23.838 -19.998   3.352  0.00  0.00    +0.100 C 
ATOM      6  C   LIG    1       24.319 -18.539   3.684  0.00  0.00    +0.100 C 
ENDROOT
BRANCH   1   7
ATOM      7  C   LIG    1       22.695 -16.643   3.930  0.00  0.00    +0.119 C 
BRANCH   7   8
ATOM      8  C   LIG    1       23.173 -15.165   4.163  0.00  0.00    +0.166 C 
BRANCH   8   9
ATOM      9  O   LIG    1       22.470 -14.552   5.248  0.00  0.00    -0.387 OA
ATOM     10  H   LIG    1       21.762 -14.024   4.835  0.00  0.00    +0.210 HD
ENDBRANCH   8   9
BRANCH   8  11
ATOM     11  C   LIG    1       22.973 -14.215   2.959  0.00  0.00    +0.261 C 
BRANCH  11  12
ATOM     12  O   LIG    1       24.025 -13.222   2.898  0.00  0.00    -0.486 OA
BRANCH  12  14
ATOM     13  C   LIG    1       25.458 -13.369   4.847  0.00  0.00    +0.162 A 
ATOM     14  C   LIG    1       25.231 -13.594   3.466  0.00  0.00    +0.162 A 
ATOM     15  C   LIG    1       26.268 -14.145   2.694  0.00  0.00    +0.049 A 
ATOM     16  C   LIG    1       27.496 -14.484   3.266  0.00  0.00    +0.004 A 
ATOM     17  C   LIG    1       27.718 -14.254   4.615  0.00  0.00    +0.004 A 
ATOM     18  C   LIG    1       26.711 -13.691   5.395  0.00  0.00    +0.049 A 
BRANCH  13  20
ATOM     19  C   LIG    1       24.154 -11.447   5.386  0.00  0.00    +0.277 C 
ATOM     20  O   LIG    1       24.453 -12.830   5.622  0.00  0.00    -0.491 OA
ENDBRANCH  13  20
ENDBRANCH  12  14
ENDBRANCH  11  12
ENDBRANCH   8  11
ENDBRANCH   7   8
ENDBRANCH   1   7
BRANCH   4  21
ATOM     21  C   LIG    1       23.987 -21.571   5.259  0.00  0.00    +0.180 C 
BRANCH  21  22
ATOM     22  C   LIG    1       25.193 -20.784   5.830  0.00  0.00    +0.231 C 
ATOM     23  N   LIG    1       26.182 -20.414   4.920  0.00  0.00    -0.284 N 
ATOM     24  H   LIG    1       26.320 -21.110   4.192  0.00  0.00    +0.155 HD
ATOM     25  O   LIG    1       25.230 -20.500   7.055  0.00  0.00    -0.274 OA
BRANCH  23  26
ATOM     26  C   LIG    1       27.343 -19.667   5.318  0.00  0.00    +0.039 A 
ATOM     27  C   LIG    1       28.214 -20.176   6.306  0.00  0.00    -0.029 A 
ATOM     28  C   LIG    1       28.109 -21.569   6.859  0.00  0.00    +0.045 C 
ATOM     29  C   LIG    1       29.254 -19.363   6.806  0.00  0.00    +0.005 A 
ATOM     30  C   LIG    1       29.471 -18.085   6.307  0.00  0.00    +0.001 A 
ATOM     31  C   LIG    1       28.704 -17.635   5.243  0.00  0.00    +0.005 A 
ATOM     32  C   LIG    1       27.661 -18.425   4.716  0.00  0.00    -0.029 A 
ATOM     33  C   LIG    1       27.070 -17.983   3.402  0.00  0.00    +0.045 C 
ENDBRANCH  23  26
ENDBRANCH  21  22
ENDBRANCH   4  21
TORSDOF 10
ENDMDL
