MODEL 1
REMARK VINA RESULT:       2.4      0.000      0.000
REMARK  Name = *****
REMARK                            x       y       z     vdW  Elec       q    Type
REMARK                         _______ _______ _______ _____ _____    ______ ____
ROOT
ATOM      1  O   LIG    1       21.601 -21.568   4.860  0.00  0.00    -0.274 OA
ATOM      2  C   LIG    1       22.022 -20.461   5.182  0.00  0.00    +0.231 C 
ATOM      3  N   LIG    1       22.819 -20.246   6.285  0.00  0.00    -0.284 N 
ATOM      4  H   LIG    1       22.621 -19.326   6.676  0.00  0.00    +0.155 HD
ATOM      5  C   LIG    1       24.218 -20.305   6.071  0.00  0.00    +0.041 A 
ATOM      6  C   LIG    1       24.901 -19.556   5.089  0.00  0.00    +0.026 A 
ATOM      7  C   LIG    1       26.322 -19.580   5.170  0.00  0.00    +0.030 A 
ATOM      8  C   LIG    1       27.005 -20.332   6.128  0.00  0.00    +0.042 A 
ATOM      9 CL   LIG    1       28.725 -20.327   6.156  0.00  0.00    -0.084 Cl
ATOM     10  C   LIG    1       26.302 -21.076   7.061  0.00  0.00    +0.022 A 
ATOM     11  C   LIG    1       24.277 -18.686   3.968  0.00  0.00    +0.179 C 
ATOM     12  N   LIG    1       22.942 -19.009   3.439  0.00  0.00    -0.256 NA
ATOM     13  C   LIG    1       23.147 -20.091   2.485  0.00  0.00    +0.116 C 
ATOM     14  C   LIG    1       24.414 -19.631   1.815  0.00  0.00    +0.178 C 
ATOM     15  O   LIG    1       25.178 -18.996   2.844  0.00  0.00    -0.349 OA
ATOM     16  C   LIG    1       24.912 -21.049   7.040  0.00  0.00    +0.025 A 
ATOM     17  C   LIG    1       21.821 -19.218   4.337  0.00  0.00    +0.184 C 
ENDROOT
BRANCH  11  18
ATOM     18  C   LIG    1       24.400 -17.153   4.185  0.00  0.00    +0.022 A 
ATOM     19  C   LIG    1       25.571 -16.386   4.029  0.00  0.00    +0.049 A 
ATOM     20 CL   LIG    1       27.112 -17.024   3.580  0.00  0.00    -0.083 Cl
ATOM     21  C   LIG    1       25.570 -14.998   4.263  0.00  0.00    +0.020 A 
ATOM     22  C   LIG    1       24.418 -14.339   4.678  0.00  0.00    +0.001 A 
ATOM     23  C   LIG    1       23.256 -15.066   4.870  0.00  0.00    +0.001 A 
ATOM     24  C   LIG    1       23.253 -16.444   4.634  0.00  0.00    +0.009 A 
ENDBRANCH  11  18
TORSDOF 1
ENDMDL
