MODEL 1
REMARK VINA RESULT:      -7.7      0.000      0.000
REMARK  Name = *****
REMARK                            x       y       z     vdW  Elec       q    Type
REMARK                         _______ _______ _______ _____ _____    ______ ____
ROOT
ATOM      1  C   LIG    1       28.123 -19.938   5.771  0.00  0.00    +0.027 A 
ATOM      2  C   LIG    1       28.430 -20.779   6.851  0.00  0.00    +0.024 A 
ATOM      3  C   LIG    1       29.579 -20.576   7.620  0.00  0.00    +0.017 A 
ATOM      4  C   LIG    1       30.428 -19.496   7.345  0.00  0.00    +0.059 A 
ATOM      5  C   LIG    1       30.145 -18.665   6.256  0.00  0.00    +0.017 A 
ATOM      6  C   LIG    1       28.989 -18.872   5.501  0.00  0.00    +0.024 A 
ENDROOT
BRANCH   1   7
ATOM      7  N   LIG    1       26.930 -20.014   5.038  0.00  0.00    -0.344 N 
ATOM      8  H   LIG    1       27.091 -20.417   4.119  0.00  0.00    +0.146 HD
BRANCH   7   9
ATOM      9  C   LIG    1       25.777 -20.600   5.704  0.00  0.00    +0.101 C 
BRANCH   9  10
ATOM     10  C   LIG    1       24.502 -20.285   4.922  0.00  0.00    +0.018 C 
BRANCH  10  12
ATOM     11  C   LIG    1       23.550 -20.846   7.218  0.00  0.00    +0.004 C 
ATOM     12  C   LIG    1       23.258 -20.346   5.810  0.00  0.00    -0.002 C 
ENDBRANCH  10  12
ENDBRANCH   9  10
ENDBRANCH   7   9
ENDBRANCH   1   7
BRANCH   4  13
ATOM     13  C   LIG    1       31.558 -19.220   8.265  0.00  0.00    +0.339 C 
ATOM     14  O   LIG    1       31.970 -20.029   9.095  0.00  0.00    -0.245 OA
BRANCH  13  15
ATOM     15  O   LIG    1       32.043 -17.985   8.052  0.00  0.00    -0.460 OA
BRANCH  15  16
ATOM     16  C   LIG    1       31.629 -16.988   9.005  0.00  0.00    +0.247 C 
BRANCH  16  17
ATOM     17  C   LIG    1       32.639 -16.892  10.162  0.00  0.00    +0.125 C 
BRANCH  17  18
ATOM     18  N   LIG    1       32.109 -17.265  11.489  0.00  0.00    -0.305 NA
ATOM     19  C   LIG    1       30.697 -17.652  11.434  0.00  0.00    +0.104 C 
ATOM     20  C   LIG    1       32.262 -16.133  12.411  0.00  0.00    +0.104 C 
ENDBRANCH  17  18
ENDBRANCH  16  17
ENDBRANCH  15  16
ENDBRANCH  13  15
ENDBRANCH   4  13
TORSDOF 9
ENDMDL
MODEL 2
REMARK VINA RESULT:      -7.7      2.123      3.163
REMARK  Name = *****
REMARK                            x       y       z     vdW  Elec       q    Type
REMARK                         _______ _______ _______ _____ _____    ______ ____
ROOT
ATOM      1  C   LIG    1       24.978 -20.614   6.780  0.00  0.00    +0.027 A 
ATOM      2  C   LIG    1       25.983 -20.463   5.812  0.00  0.00    +0.024 A 
ATOM      3  C   LIG    1       27.328 -20.372   6.178  0.00  0.00    +0.017 A 
ATOM      4  C   LIG    1       27.701 -20.469   7.525  0.00  0.00    +0.059 A 
ATOM      5  C   LIG    1       26.706 -20.596   8.500  0.00  0.00    +0.017 A 
ATOM      6  C   LIG    1       25.366 -20.696   8.123  0.00  0.00    +0.024 A 
ENDROOT
BRANCH   1   7
ATOM      7  N   LIG    1       23.627 -20.832   6.474  0.00  0.00    -0.344 N 
ATOM      8  H   LIG    1       23.224 -20.024   6.006  0.00  0.00    +0.146 HD
BRANCH   7   9
ATOM      9  C   LIG    1       23.289 -22.081   5.810  0.00  0.00    +0.101 C 
BRANCH   9  10
ATOM     10  C   LIG    1       23.018 -23.171   6.846  0.00  0.00    +0.018 C 
BRANCH  10  12
ATOM     11  C   LIG    1       25.331 -24.238   6.766  0.00  0.00    +0.004 C 
ATOM     12  C   LIG    1       23.833 -24.436   6.572  0.00  0.00    -0.002 C 
ENDBRANCH  10  12
ENDBRANCH   9  10
ENDBRANCH   7   9
ENDBRANCH   1   7
BRANCH   4  13
ATOM     13  C   LIG    1       29.143 -20.515   7.869  0.00  0.00    +0.339 C 
ATOM     14  O   LIG    1       29.664 -21.443   8.485  0.00  0.00    -0.245 OA
BRANCH  13  15
ATOM     15  O   LIG    1       29.766 -19.414   7.415  0.00  0.00    -0.460 OA
BRANCH  15  16
ATOM     16  C   LIG    1       30.124 -18.449   8.421  0.00  0.00    +0.247 C 
BRANCH  16  17
ATOM     17  C   LIG    1       31.599 -18.611   8.826  0.00  0.00    +0.125 C 
BRANCH  17  18
ATOM     18  N   LIG    1       31.969 -17.983  10.111  0.00  0.00    -0.305 NA
ATOM     19  C   LIG    1       30.804 -17.732  10.962  0.00  0.00    +0.104 C 
ATOM     20  C   LIG    1       32.658 -16.712   9.852  0.00  0.00    +0.104 C 
ENDBRANCH  17  18
ENDBRANCH  16  17
ENDBRANCH  15  16
ENDBRANCH  13  15
ENDBRANCH   4  13
TORSDOF 9
ENDMDL
MODEL 3
REMARK VINA RESULT:      -7.6      1.645      2.627
REMARK  Name = *****
REMARK                            x       y       z     vdW  Elec       q    Type
REMARK                         _______ _______ _______ _____ _____    ______ ____
ROOT
ATOM      1  C   LIG    1       25.680 -20.667   6.847  0.00  0.00    +0.027 A 
ATOM      2  C   LIG    1       26.528 -20.614   7.964  0.00  0.00    +0.024 A 
ATOM      3  C   LIG    1       27.863 -20.223   7.838  0.00  0.00    +0.017 A 
ATOM      4  C   LIG    1       28.369 -19.837   6.590  0.00  0.00    +0.059 A 
ATOM      5  C   LIG    1       27.540 -19.909   5.465  0.00  0.00    +0.017 A 
ATOM      6  C   LIG    1       26.206 -20.292   5.605  0.00  0.00    +0.024 A 
ENDROOT
BRANCH   1   7
ATOM      7  N   LIG    1       24.306 -20.934   6.923  0.00  0.00    -0.344 N 
ATOM      8  H   LIG    1       23.774 -20.078   7.061  0.00  0.00    +0.146 HD
BRANCH   7   9
ATOM      9  C   LIG    1       23.734 -21.778   5.885  0.00  0.00    +0.101 C 
BRANCH   9  10
ATOM     10  C   LIG    1       22.610 -21.034   5.165  0.00  0.00    +0.018 C 
BRANCH  10  12
ATOM     11  C   LIG    1       22.239 -18.660   4.317  0.00  0.00    +0.004 C 
ATOM     12  C   LIG    1       22.602 -19.543   5.504  0.00  0.00    -0.002 C 
ENDBRANCH  10  12
ENDBRANCH   9  10
ENDBRANCH   7   9
ENDBRANCH   1   7
BRANCH   4  13
ATOM     13  C   LIG    1       29.745 -19.289   6.512  0.00  0.00    +0.339 C 
ATOM     14  O   LIG    1       30.062 -18.353   5.780  0.00  0.00    -0.245 OA
BRANCH  13  15
ATOM     15  O   LIG    1       30.562 -19.958   7.343  0.00  0.00    -0.460 OA
BRANCH  15  16
ATOM     16  C   LIG    1       31.533 -19.151   8.035  0.00  0.00    +0.247 C 
BRANCH  16  17
ATOM     17  C   LIG    1       31.007 -18.740   9.421  0.00  0.00    +0.125 C 
BRANCH  17  18
ATOM     18  N   LIG    1       31.921 -17.893  10.213  0.00  0.00    -0.305 NA
ATOM     19  C   LIG    1       31.290 -17.384  11.433  0.00  0.00    +0.104 C 
ATOM     20  C   LIG    1       32.369 -16.759   9.395  0.00  0.00    +0.104 C 
ENDBRANCH  17  18
ENDBRANCH  16  17
ENDBRANCH  15  16
ENDBRANCH  13  15
ENDBRANCH   4  13
TORSDOF 9
ENDMDL
MODEL 4
REMARK VINA RESULT:      -7.6      1.622      2.707
REMARK  Name = *****
REMARK                            x       y       z     vdW  Elec       q    Type
REMARK                         _______ _______ _______ _____ _____    ______ ____
ROOT
ATOM      1  C   LIG    1       25.479 -20.725   6.755  0.00  0.00    +0.027 A 
ATOM      2  C   LIG    1       26.319 -20.413   5.676  0.00  0.00    +0.024 A 
ATOM      3  C   LIG    1       27.653 -20.052   5.881  0.00  0.00    +0.017 A 
ATOM      4  C   LIG    1       28.187 -20.032   7.176  0.00  0.00    +0.059 A 
ATOM      5  C   LIG    1       27.352 -20.319   8.262  0.00  0.00    +0.017 A 
ATOM      6  C   LIG    1       26.024 -20.687   8.045  0.00  0.00    +0.024 A 
ENDROOT
BRANCH   1   7
ATOM      7  N   LIG    1       24.171 -21.209   6.611  0.00  0.00    -0.344 N 
ATOM      8  H   LIG    1       23.526 -20.705   7.214  0.00  0.00    +0.146 HD
BRANCH   7   9
ATOM      9  C   LIG    1       23.661 -21.353   5.256  0.00  0.00    +0.101 C 
BRANCH   9  10
ATOM     10  C   LIG    1       22.303 -20.666   5.130  0.00  0.00    +0.018 C 
BRANCH  10  12
ATOM     11  C   LIG    1       23.576 -18.928   3.769  0.00  0.00    +0.004 C 
ATOM     12  C   LIG    1       22.442 -19.190   4.751  0.00  0.00    -0.002 C 
ENDBRANCH  10  12
ENDBRANCH   9  10
ENDBRANCH   7   9
ENDBRANCH   1   7
BRANCH   4  13
ATOM     13  C   LIG    1       29.639 -19.787   7.351  0.00  0.00    +0.339 C 
ATOM     14  O   LIG    1       30.423 -19.664   6.412  0.00  0.00    -0.245 OA
BRANCH  13  15
ATOM     15  O   LIG    1       29.948 -19.723   8.657  0.00  0.00    -0.460 OA
BRANCH  15  16
ATOM     16  C   LIG    1       31.354 -19.624   8.953  0.00  0.00    +0.247 C 
BRANCH  16  17
ATOM     17  C   LIG    1       31.775 -18.151   9.093  0.00  0.00    +0.125 C 
BRANCH  17  18
ATOM     18  N   LIG    1       32.112 -17.723  10.466  0.00  0.00    -0.305 NA
ATOM     19  C   LIG    1       30.918 -17.476  11.278  0.00  0.00    +0.104 C 
ATOM     20  C   LIG    1       32.918 -16.497  10.411  0.00  0.00    +0.104 C 
ENDBRANCH  17  18
ENDBRANCH  16  17
ENDBRANCH  15  16
ENDBRANCH  13  15
ENDBRANCH   4  13
TORSDOF 9
ENDMDL
MODEL 5
REMARK VINA RESULT:      -7.2      3.842      7.964
REMARK  Name = *****
REMARK                            x       y       z     vdW  Elec       q    Type
REMARK                         _______ _______ _______ _____ _____    ______ ____
ROOT
ATOM      1  C   LIG    1       27.910 -20.545   7.317  0.00  0.00    +0.027 A 
ATOM      2  C   LIG    1       27.055 -20.677   8.422  0.00  0.00    +0.024 A 
ATOM      3  C   LIG    1       25.668 -20.722   8.259  0.00  0.00    +0.017 A 
ATOM      4  C   LIG    1       25.107 -20.675   6.976  0.00  0.00    +0.059 A 
ATOM      5  C   LIG    1       25.949 -20.520   5.869  0.00  0.00    +0.017 A 
ATOM      6  C   LIG    1       27.333 -20.486   6.043  0.00  0.00    +0.024 A 
ENDROOT
BRANCH   1   7
ATOM      7  N   LIG    1       29.308 -20.615   7.401  0.00  0.00    -0.344 N 
ATOM      8  H   LIG    1       29.641 -21.551   7.185  0.00  0.00    +0.146 HD
BRANCH   7   9
ATOM      9  C   LIG    1       30.067 -19.586   6.706  0.00  0.00    +0.101 C 
BRANCH   9  10
ATOM     10  C   LIG    1       30.053 -18.289   7.513  0.00  0.00    +0.018 C 
BRANCH  10  12
ATOM     11  C   LIG    1       30.229 -17.590   9.958  0.00  0.00    +0.004 C 
ATOM     12  C   LIG    1       30.820 -18.426   8.829  0.00  0.00    -0.002 C 
ENDBRANCH  10  12
ENDBRANCH   9  10
ENDBRANCH   7   9
ENDBRANCH   1   7
BRANCH   4  13
ATOM     13  C   LIG    1       23.645 -20.871   6.825  0.00  0.00    +0.339 C 
ATOM     14  O   LIG    1       22.921 -20.108   6.187  0.00  0.00    -0.245 OA
BRANCH  13  15
ATOM     15  O   LIG    1       23.252 -21.980   7.475  0.00  0.00    -0.460 OA
BRANCH  15  16
ATOM     16  C   LIG    1       22.680 -23.010   6.647  0.00  0.00    +0.247 C 
BRANCH  16  17
ATOM     17  C   LIG    1       23.570 -24.264   6.651  0.00  0.00    +0.125 C 
BRANCH  17  18
ATOM     18  N   LIG    1       24.852 -24.127   5.930  0.00  0.00    -0.305 NA
ATOM     19  C   LIG    1       25.030 -25.164   4.911  0.00  0.00    +0.104 C 
ATOM     20  C   LIG    1       25.962 -24.199   6.889  0.00  0.00    +0.104 C 
ENDBRANCH  17  18
ENDBRANCH  16  17
ENDBRANCH  15  16
ENDBRANCH  13  15
ENDBRANCH   4  13
TORSDOF 9
ENDMDL
MODEL 6
REMARK VINA RESULT:      -7.2      6.792      9.970
REMARK  Name = *****
REMARK                            x       y       z     vdW  Elec       q    Type
REMARK                         _______ _______ _______ _____ _____    ______ ____
ROOT
ATOM      1  C   LIG    1       23.873 -22.687   7.217  0.00  0.00    +0.027 A 
ATOM      2  C   LIG    1       25.264 -22.847   7.321  0.00  0.00    +0.024 A 
ATOM      3  C   LIG    1       25.877 -24.059   6.991  0.00  0.00    +0.017 A 
ATOM      4  C   LIG    1       25.110 -25.129   6.511  0.00  0.00    +0.059 A 
ATOM      5  C   LIG    1       23.721 -24.989   6.426  0.00  0.00    +0.017 A 
ATOM      6  C   LIG    1       23.120 -23.771   6.749  0.00  0.00    +0.024 A 
ENDROOT
BRANCH   1   7
ATOM      7  N   LIG    1       23.212 -21.467   7.415  0.00  0.00    -0.344 N 
ATOM      8  H   LIG    1       23.223 -21.201   8.397  0.00  0.00    +0.146 HD
BRANCH   7   9
ATOM      9  C   LIG    1       23.576 -20.364   6.540  0.00  0.00    +0.101 C 
BRANCH   9  10
ATOM     10  C   LIG    1       22.812 -20.466   5.221  0.00  0.00    +0.018 C 
BRANCH  10  12
ATOM     11  C   LIG    1       25.188 -20.320   4.312  0.00  0.00    +0.004 C 
ATOM     12  C   LIG    1       23.746 -20.726   4.038  0.00  0.00    -0.002 C 
ENDBRANCH  10  12
ENDBRANCH   9  10
ENDBRANCH   7   9
ENDBRANCH   1   7
BRANCH   4  13
ATOM     13  C   LIG    1       25.803 -26.350   6.034  0.00  0.00    +0.339 C 
ATOM     14  O   LIG    1       26.891 -26.333   5.461  0.00  0.00    -0.245 OA
BRANCH  13  15
ATOM     15  O   LIG    1       25.073 -27.443   6.318  0.00  0.00    -0.460 OA
BRANCH  15  16
ATOM     16  C   LIG    1       24.890 -28.363   5.226  0.00  0.00    +0.247 C 
BRANCH  16  17
ATOM     17  C   LIG    1       25.094 -29.812   5.698  0.00  0.00    +0.125 C 
BRANCH  17  18
ATOM     18  N   LIG    1       23.984 -30.375   6.493  0.00  0.00    -0.305 NA
ATOM     19  C   LIG    1       24.214 -30.249   7.934  0.00  0.00    +0.104 C 
ATOM     20  C   LIG    1       23.812 -31.794   6.155  0.00  0.00    +0.104 C 
ENDBRANCH  17  18
ENDBRANCH  16  17
ENDBRANCH  15  16
ENDBRANCH  13  15
ENDBRANCH   4  13
TORSDOF 9
ENDMDL
MODEL 7
REMARK VINA RESULT:      -7.1      4.518      5.975
REMARK  Name = *****
REMARK                            x       y       z     vdW  Elec       q    Type
REMARK                         _______ _______ _______ _____ _____    ______ ____
ROOT
ATOM      1  C   LIG    1       24.247 -24.143   6.514  0.00  0.00    +0.027 A 
ATOM      2  C   LIG    1       23.524 -22.999   6.888  0.00  0.00    +0.024 A 
ATOM      3  C   LIG    1       24.148 -21.935   7.544  0.00  0.00    +0.017 A 
ATOM      4  C   LIG    1       25.524 -21.978   7.806  0.00  0.00    +0.059 A 
ATOM      5  C   LIG    1       26.249 -23.123   7.460  0.00  0.00    +0.017 A 
ATOM      6  C   LIG    1       25.618 -24.176   6.796  0.00  0.00    +0.024 A 
ENDROOT
BRANCH   1   7
ATOM      7  N   LIG    1       23.710 -25.189   5.750  0.00  0.00    -0.344 N 
ATOM      8  H   LIG    1       23.047 -24.837   5.064  0.00  0.00    +0.146 HD
BRANCH   7   9
ATOM      9  C   LIG    1       24.648 -26.140   5.174  0.00  0.00    +0.101 C 
BRANCH   9  10
ATOM     10  C   LIG    1       24.376 -27.542   5.719  0.00  0.00    +0.018 C 
BRANCH  10  12
ATOM     11  C   LIG    1       24.954 -29.226   7.542  0.00  0.00    +0.004 C 
ATOM     12  C   LIG    1       25.253 -27.864   6.931  0.00  0.00    -0.002 C 
ENDBRANCH  10  12
ENDBRANCH   9  10
ENDBRANCH   7   9
ENDBRANCH   1   7
BRANCH   4  13
ATOM     13  C   LIG    1       26.184 -20.776   8.372  0.00  0.00    +0.339 C 
ATOM     14  O   LIG    1       25.930 -20.325   9.487  0.00  0.00    -0.245 OA
BRANCH  13  15
ATOM     15  O   LIG    1       27.075 -20.278   7.497  0.00  0.00    -0.460 OA
BRANCH  15  16
ATOM     16  C   LIG    1       28.342 -19.891   8.061  0.00  0.00    +0.247 C 
BRANCH  16  17
ATOM     17  C   LIG    1       29.429 -19.851   6.974  0.00  0.00    +0.125 C 
BRANCH  17  18
ATOM     18  N   LIG    1       30.815 -19.979   7.468  0.00  0.00    -0.305 NA
ATOM     19  C   LIG    1       30.921 -20.922   8.585  0.00  0.00    +0.104 C 
ATOM     20  C   LIG    1       31.302 -18.663   7.902  0.00  0.00    +0.104 C 
ENDBRANCH  17  18
ENDBRANCH  16  17
ENDBRANCH  15  16
ENDBRANCH  13  15
ENDBRANCH   4  13
TORSDOF 9
ENDMDL
MODEL 8
REMARK VINA RESULT:      -7.1      6.956     10.163
REMARK  Name = *****
REMARK                            x       y       z     vdW  Elec       q    Type
REMARK                         _______ _______ _______ _____ _____    ______ ____
ROOT
ATOM      1  C   LIG    1       23.903 -22.684   7.230  0.00  0.00    +0.027 A 
ATOM      2  C   LIG    1       25.290 -22.884   7.308  0.00  0.00    +0.024 A 
ATOM      3  C   LIG    1       25.865 -24.099   6.928  0.00  0.00    +0.017 A 
ATOM      4  C   LIG    1       25.063 -25.131   6.424  0.00  0.00    +0.059 A 
ATOM      5  C   LIG    1       23.677 -24.952   6.364  0.00  0.00    +0.017 A 
ATOM      6  C   LIG    1       23.114 -23.730   6.737  0.00  0.00    +0.024 A 
ENDROOT
BRANCH   1   7
ATOM      7  N   LIG    1       23.278 -21.454   7.480  0.00  0.00    -0.344 N 
ATOM      8  H   LIG    1       23.386 -21.180   8.454  0.00  0.00    +0.146 HD
BRANCH   7   9
ATOM      9  C   LIG    1       23.569 -20.362   6.564  0.00  0.00    +0.101 C 
BRANCH   9  10
ATOM     10  C   LIG    1       22.622 -20.415   5.366  0.00  0.00    +0.018 C 
BRANCH  10  12
ATOM     11  C   LIG    1       22.091 -18.087   4.477  0.00  0.00    +0.004 C 
ATOM     12  C   LIG    1       22.949 -19.336   4.332  0.00  0.00    -0.002 C 
ENDBRANCH  10  12
ENDBRANCH   9  10
ENDBRANCH   7   9
ENDBRANCH   1   7
BRANCH   4  13
ATOM     13  C   LIG    1       25.716 -26.354   5.894  0.00  0.00    +0.339 C 
ATOM     14  O   LIG    1       26.909 -26.413   5.601  0.00  0.00    -0.245 OA
BRANCH  13  15
ATOM     15  O   LIG    1       24.822 -27.352   5.789  0.00  0.00    -0.460 OA
BRANCH  15  16
ATOM     16  C   LIG    1       25.211 -28.594   6.406  0.00  0.00    +0.247 C 
BRANCH  16  17
ATOM     17  C   LIG    1       24.234 -29.718   6.023  0.00  0.00    +0.125 C 
BRANCH  17  18
ATOM     18  N   LIG    1       24.729 -31.088   6.264  0.00  0.00    -0.305 NA
ATOM     19  C   LIG    1       25.855 -31.433   5.392  0.00  0.00    +0.104 C 
ATOM     20  C   LIG    1       23.639 -32.047   6.044  0.00  0.00    +0.104 C 
ENDBRANCH  17  18
ENDBRANCH  16  17
ENDBRANCH  15  16
ENDBRANCH  13  15
ENDBRANCH   4  13
TORSDOF 9
ENDMDL
MODEL 9
REMARK VINA RESULT:      -6.8      3.170      7.666
REMARK  Name = *****
REMARK                            x       y       z     vdW  Elec       q    Type
REMARK                         _______ _______ _______ _____ _____    ______ ____
ROOT
ATOM      1  C   LIG    1       29.562 -20.141   7.000  0.00  0.00    +0.027 A 
ATOM      2  C   LIG    1       29.046 -21.127   7.855  0.00  0.00    +0.024 A 
ATOM      3  C   LIG    1       27.722 -21.559   7.740  0.00  0.00    +0.017 A 
ATOM      4  C   LIG    1       26.895 -21.038   6.736  0.00  0.00    +0.059 A 
ATOM      5  C   LIG    1       27.392 -20.037   5.894  0.00  0.00    +0.017 A 
ATOM      6  C   LIG    1       28.718 -19.620   6.011  0.00  0.00    +0.024 A 
ENDROOT
BRANCH   1   7
ATOM      7  N   LIG    1       30.909 -19.751   6.983  0.00  0.00    -0.344 N 
ATOM      8  H   LIG    1       31.103 -19.139   6.194  0.00  0.00    +0.146 HD
BRANCH   7   9
ATOM      9  C   LIG    1       31.469 -19.243   8.226  0.00  0.00    +0.101 C 
BRANCH   9  10
ATOM     10  C   LIG    1       30.906 -17.854   8.527  0.00  0.00    +0.018 C 
BRANCH  10  12
ATOM     11  C   LIG    1       30.731 -16.755  10.819  0.00  0.00    +0.004 C 
ATOM     12  C   LIG    1       30.179 -17.812   9.872  0.00  0.00    -0.002 C 
ENDBRANCH  10  12
ENDBRANCH   9  10
ENDBRANCH   7   9
ENDBRANCH   1   7
BRANCH   4  13
ATOM     13  C   LIG    1       25.543 -21.618   6.546  0.00  0.00    +0.339 C 
ATOM     14  O   LIG    1       25.348 -22.769   6.158  0.00  0.00    -0.245 OA
BRANCH  13  15
ATOM     15  O   LIG    1       24.599 -20.714   6.858  0.00  0.00    -0.460 OA
BRANCH  15  16
ATOM     16  C   LIG    1       23.240 -21.165   6.701  0.00  0.00    +0.247 C 
BRANCH  16  17
ATOM     17  C   LIG    1       22.688 -20.751   5.326  0.00  0.00    +0.125 C 
BRANCH  17  18
ATOM     18  N   LIG    1       23.242 -19.495   4.780  0.00  0.00    -0.305 NA
ATOM     19  C   LIG    1       22.194 -18.539   4.415  0.00  0.00    +0.104 C 
ATOM     20  C   LIG    1       24.055 -19.794   3.594  0.00  0.00    +0.104 C 
ENDBRANCH  17  18
ENDBRANCH  16  17
ENDBRANCH  15  16
ENDBRANCH  13  15
ENDBRANCH   4  13
TORSDOF 9
ENDMDL
