MODEL 1
REMARK VINA RESULT:      -9.7      0.000      0.000
REMARK  Name = *****
REMARK                            x       y       z     vdW  Elec       q    Type
REMARK                         _______ _______ _______ _____ _____    ______ ____
ROOT
ATOM      1  C   UNK A  0       25.105 -22.465   6.134  0.00  0.00    +0.069 A 
ATOM      2  S   UNK A  0       26.582 -22.330   7.015  0.00  0.00    -0.069 S 
ATOM      3  C   UNK A  0       26.988 -20.832   6.318  0.00  0.00    +0.076 A 
ATOM      4  C   UNK A  0       26.015 -20.408   5.442  0.00  0.00    +0.022 A 
ATOM      5  C   UNK A  0       24.917 -21.319   5.380  0.00  0.00    +0.032 A 
ENDROOT
BRANCH   3   6
ATOM      6  C   UNK A  0       28.240 -20.193   6.655  0.00  0.00    +0.251 C 
ATOM      7  N   GLU A  1       28.890 -20.691   7.761  0.00  0.00    -0.298 N 
ATOM      8  H   GLU A  1       28.515 -21.539   8.170  0.00  0.00    +0.150 HD
ATOM      9  O   UNK A  0       28.747 -19.270   6.011  0.00  0.00    -0.270 OA
BRANCH   7  10
ATOM     10  CA  GLU A  1       30.127 -20.110   8.283  0.00  0.00    +0.182 C 
BRANCH  10  11
ATOM     11  C   GLU A  1       30.956 -21.140   9.076  0.00  0.00    +0.325 C 
ATOM     12  O   GLU A  1       30.512 -22.185   9.529  0.00  0.00    -0.249 OA
BRANCH  11  13
ATOM     13  OXT GLU A  1       32.233 -20.743   9.297  0.00  0.00    -0.479 OA
ATOM     14  HXT GLU A  1       32.638 -20.272   8.528  0.00  0.00    +0.295 HD
ENDBRANCH  11  13
ENDBRANCH  10  11
BRANCH  10  15
ATOM     15  CB  GLU A  1       29.885 -18.791   9.036  0.00  0.00    +0.045 C 
BRANCH  15  16
ATOM     16  CG  GLU A  1       30.626 -17.562   8.493  0.00  0.00    +0.123 C 
BRANCH  16  17
ATOM     17  CD  GLU A  1       31.912 -17.315   9.247  0.00  0.00    +0.305 C 
ATOM     18  OE1 GLU A  1       32.349 -17.947  10.189  0.00  0.00    -0.251 OA
BRANCH  17  19
ATOM     19  OE2 GLU A  1       32.601 -16.280   8.729  0.00  0.00    -0.481 OA
ATOM     20  HE2 GLU A  1       33.454 -16.668   8.445  0.00  0.00    +0.295 HD
ENDBRANCH  17  19
ENDBRANCH  16  17
ENDBRANCH  15  16
ENDBRANCH  10  15
ENDBRANCH   7  10
ENDBRANCH   3   6
BRANCH   1  21
ATOM     21  N   UNK A  0       24.279 -23.561   6.218  0.00  0.00    -0.323 N 
ATOM     22  C   UNK A  0       22.965 -23.425   6.846  0.00  0.00    +0.130 C 
BRANCH  21  23
ATOM     23  C   UNK A  0       24.480 -24.718   5.331  0.00  0.00    +0.140 C 
BRANCH  23  31
ATOM     24  C   UNK A  0       25.773 -31.794   8.797  0.00  0.00    +0.086 C 
ATOM     25  C   UNK A  0       25.385 -30.576   7.992  0.00  0.00    +0.108 A 
ATOM     26  N   UNK A  0       26.055 -29.406   8.253  0.00  0.00    -0.343 N 
ATOM     27  H   UNK A  0       26.769 -29.360   8.968  0.00  0.00    +0.167 HD
ATOM     28  C   UNK A  0       25.730 -28.257   7.535  0.00  0.00    +0.053 A 
ATOM     29  C   UNK A  0       24.716 -28.327   6.576  0.00  0.00    +0.065 A 
ATOM     30  C   UNK A  0       24.315 -27.198   5.853  0.00  0.00    +0.020 A 
ATOM     31  C   UNK A  0       24.941 -25.965   6.070  0.00  0.00    -0.029 A 
ATOM     32  C   UNK A  0       25.986 -25.903   7.008  0.00  0.00    +0.007 A 
ATOM     33  C   UNK A  0       24.058 -29.641   6.361  0.00  0.00    +0.281 A 
ATOM     34  O   UNK A  0       23.170 -29.713   5.521  0.00  0.00    -0.265 OA
ATOM     35  C   UNK A  0       26.376 -27.037   7.737  0.00  0.00    +0.026 A 
ATOM     36  N   UNK A  0       24.447 -30.726   7.114  0.00  0.00    -0.196 NA
ENDBRANCH  23  31
ENDBRANCH  21  23
ENDBRANCH   1  21
TORSDOF 11
ENDMDL
MODEL 2
REMARK VINA RESULT:      -9.0      1.503      2.052
REMARK  Name = *****
REMARK                            x       y       z     vdW  Elec       q    Type
REMARK                         _______ _______ _______ _____ _____    ______ ____
ROOT
ATOM      1  C   UNK A  0       25.485 -22.687   7.046  0.00  0.00    +0.069 A 
ATOM      2  S   UNK A  0       27.155 -22.375   6.749  0.00  0.00    -0.069 S 
ATOM      3  C   UNK A  0       27.076 -20.784   7.345  0.00  0.00    +0.076 A 
ATOM      4  C   UNK A  0       25.811 -20.480   7.794  0.00  0.00    +0.022 A 
ATOM      5  C   UNK A  0       24.918 -21.588   7.669  0.00  0.00    +0.032 A 
ENDROOT
BRANCH   3   6
ATOM      6  C   UNK A  0       28.246 -19.937   7.305  0.00  0.00    +0.251 C 
ATOM      7  N   GLU A  1       28.900 -19.760   8.503  0.00  0.00    -0.298 N 
ATOM      8  H   GLU A  1       28.595 -20.333   9.281  0.00  0.00    +0.150 HD
ATOM      9  O   UNK A  0       28.684 -19.400   6.284  0.00  0.00    -0.270 OA
BRANCH   7  10
ATOM     10  CA  GLU A  1       30.054 -18.873   8.654  0.00  0.00    +0.182 C 
BRANCH  10  11
ATOM     11  C   GLU A  1       31.377 -19.593   8.323  0.00  0.00    +0.325 C 
ATOM     12  O   GLU A  1       32.120 -20.095   9.154  0.00  0.00    -0.249 OA
BRANCH  11  13
ATOM     13  OXT GLU A  1       31.690 -19.556   7.005  0.00  0.00    -0.479 OA
ATOM     14  HXT GLU A  1       32.298 -20.282   6.723  0.00  0.00    +0.295 HD
ENDBRANCH  11  13
ENDBRANCH  10  11
BRANCH  10  15
ATOM     15  CB  GLU A  1       30.063 -18.143  10.007  0.00  0.00    +0.045 C 
BRANCH  15  16
ATOM     16  CG  GLU A  1       30.511 -16.676   9.977  0.00  0.00    +0.123 C 
BRANCH  16  17
ATOM     17  CD  GLU A  1       31.995 -16.559   9.718  0.00  0.00    +0.305 C 
ATOM     18  OE1 GLU A  1       32.549 -15.851   8.900  0.00  0.00    -0.251 OA
BRANCH  17  19
ATOM     19  OE2 GLU A  1       32.708 -17.339  10.554  0.00  0.00    -0.481 OA
ATOM     20  HE2 GLU A  1       32.047 -17.691  11.186  0.00  0.00    +0.295 HD
ENDBRANCH  17  19
ENDBRANCH  16  17
ENDBRANCH  15  16
ENDBRANCH  10  15
ENDBRANCH   7  10
ENDBRANCH   3   6
BRANCH   1  21
ATOM     21  N   UNK A  0       24.870 -23.869   6.704  0.00  0.00    -0.323 N 
ATOM     22  C   UNK A  0       23.415 -23.976   6.800  0.00  0.00    +0.130 C 
BRANCH  21  23
ATOM     23  C   UNK A  0       25.558 -24.849   5.849  0.00  0.00    +0.140 C 
BRANCH  23  31
ATOM     24  C   UNK A  0       24.990 -32.322   8.603  0.00  0.00    +0.086 C 
ATOM     25  C   UNK A  0       25.215 -30.864   8.285  0.00  0.00    +0.108 A 
ATOM     26  N   UNK A  0       24.578 -30.351   7.183  0.00  0.00    -0.343 N 
ATOM     27  H   UNK A  0       23.993 -30.933   6.598  0.00  0.00    +0.167 HD
ATOM     28  C   UNK A  0       24.758 -29.009   6.851  0.00  0.00    +0.053 A 
ATOM     29  C   UNK A  0       25.598 -28.226   7.647  0.00  0.00    +0.065 A 
ATOM     30  C   UNK A  0       25.852 -26.885   7.340  0.00  0.00    +0.020 A 
ATOM     31  C   UNK A  0       25.250 -26.290   6.225  0.00  0.00    -0.029 A 
ATOM     32  C   UNK A  0       24.375 -27.069   5.446  0.00  0.00    +0.007 A 
ATOM     33  C   UNK A  0       26.235 -28.872   8.823  0.00  0.00    +0.281 A 
ATOM     34  O   UNK A  0       26.971 -28.193   9.528  0.00  0.00    -0.265 OA
ATOM     35  C   UNK A  0       24.133 -28.416   5.753  0.00  0.00    +0.026 A 
ATOM     36  N   UNK A  0       25.996 -30.203   9.078  0.00  0.00    -0.196 NA
ENDBRANCH  23  31
ENDBRANCH  21  23
ENDBRANCH   1  21
TORSDOF 11
ENDMDL
MODEL 3
REMARK VINA RESULT:      -8.8      2.555      9.615
REMARK  Name = *****
REMARK                            x       y       z     vdW  Elec       q    Type
REMARK                         _______ _______ _______ _____ _____    ______ ____
ROOT
ATOM      1  C   UNK A  0       24.000 -22.581   5.744  0.00  0.00    +0.069 A 
ATOM      2  S   UNK A  0       25.177 -23.687   5.138  0.00  0.00    -0.069 S 
ATOM      3  C   UNK A  0       24.586 -24.990   6.056  0.00  0.00    +0.076 A 
ATOM      4  C   UNK A  0       23.490 -24.620   6.803  0.00  0.00    +0.022 A 
ATOM      5  C   UNK A  0       23.128 -23.256   6.581  0.00  0.00    +0.032 A 
ENDROOT
BRANCH   3   6
ATOM      6  C   UNK A  0       25.250 -26.273   6.004  0.00  0.00    +0.251 C 
ATOM      7  N   GLU A  1       24.594 -27.313   6.622  0.00  0.00    -0.298 N 
ATOM      8  H   GLU A  1       23.651 -27.134   6.944  0.00  0.00    +0.150 HD
ATOM      9  O   UNK A  0       26.326 -26.478   5.437  0.00  0.00    -0.270 OA
BRANCH   7  10
ATOM     10  CA  GLU A  1       25.163 -28.658   6.729  0.00  0.00    +0.182 C 
BRANCH  10  11
ATOM     11  C   GLU A  1       24.580 -29.613   5.669  0.00  0.00    +0.325 C 
ATOM     12  O   GLU A  1       25.235 -30.423   5.029  0.00  0.00    -0.249 OA
BRANCH  11  13
ATOM     13  OXT GLU A  1       23.256 -29.423   5.449  0.00  0.00    -0.479 OA
ATOM     14  HXT GLU A  1       22.970 -29.660   4.532  0.00  0.00    +0.295 HD
ENDBRANCH  11  13
ENDBRANCH  10  11
BRANCH  10  15
ATOM     15  CB  GLU A  1       25.106 -29.208   8.163  0.00  0.00    +0.045 C 
BRANCH  15  16
ATOM     16  CG  GLU A  1       26.192 -28.700   9.122  0.00  0.00    +0.123 C 
BRANCH  16  17
ATOM     17  CD  GLU A  1       27.109 -29.818   9.559  0.00  0.00    +0.305 C 
ATOM     18  OE1 GLU A  1       27.871 -29.821  10.505  0.00  0.00    -0.251 OA
BRANCH  17  19
ATOM     19  OE2 GLU A  1       26.979 -30.904   8.771  0.00  0.00    -0.481 OA
ATOM     20  HE2 GLU A  1       27.898 -31.140   8.525  0.00  0.00    +0.295 HD
ENDBRANCH  17  19
ENDBRANCH  16  17
ENDBRANCH  15  16
ENDBRANCH  10  15
ENDBRANCH   7  10
ENDBRANCH   3   6
BRANCH   1  21
ATOM     21  N   UNK A  0       23.976 -21.249   5.402  0.00  0.00    -0.323 N 
ATOM     22  C   UNK A  0       22.979 -20.370   6.012  0.00  0.00    +0.130 C 
BRANCH  21  23
ATOM     23  C   UNK A  0       25.160 -20.609   4.808  0.00  0.00    +0.140 C 
BRANCH  23  31
ATOM     24  C   UNK A  0       31.694 -18.888   9.062  0.00  0.00    +0.086 C 
ATOM     25  C   UNK A  0       30.548 -19.064   8.093  0.00  0.00    +0.108 A 
ATOM     26  N   UNK A  0       29.456 -19.773   8.528  0.00  0.00    -0.343 N 
ATOM     27  H   UNK A  0       29.428 -20.175   9.456  0.00  0.00    +0.167 HD
ATOM     28  C   UNK A  0       28.375 -19.961   7.668  0.00  0.00    +0.053 A 
ATOM     29  C   UNK A  0       28.444 -19.432   6.377  0.00  0.00    +0.065 A 
ATOM     30  C   UNK A  0       27.410 -19.624   5.454  0.00  0.00    +0.020 A 
ATOM     31  C   UNK A  0       26.267 -20.346   5.816  0.00  0.00    -0.029 A 
ATOM     32  C   UNK A  0       26.183 -20.847   7.128  0.00  0.00    +0.007 A 
ATOM     33  C   UNK A  0       29.664 -18.673   6.005  0.00  0.00    +0.281 A 
ATOM     34  O   UNK A  0       29.732 -18.203   4.876  0.00  0.00    -0.265 OA
ATOM     35  C   UNK A  0       27.228 -20.660   8.045  0.00  0.00    +0.026 A 
ATOM     36  N   UNK A  0       30.682 -18.532   6.922  0.00  0.00    -0.196 NA
ENDBRANCH  23  31
ENDBRANCH  21  23
ENDBRANCH   1  21
TORSDOF 11
ENDMDL
MODEL 4
REMARK VINA RESULT:      -8.3      2.556      4.034
REMARK  Name = *****
REMARK                            x       y       z     vdW  Elec       q    Type
REMARK                         _______ _______ _______ _____ _____    ______ ____
ROOT
ATOM      1  C   UNK A  0       24.682 -25.411   6.470  0.00  0.00    +0.069 A 
ATOM      2  S   UNK A  0       26.032 -24.395   6.821  0.00  0.00    -0.069 S 
ATOM      3  C   UNK A  0       25.080 -22.992   6.955  0.00  0.00    +0.076 A 
ATOM      4  C   UNK A  0       23.746 -23.272   6.764  0.00  0.00    +0.022 A 
ATOM      5  C   UNK A  0       23.518 -24.664   6.539  0.00  0.00    +0.032 A 
ENDROOT
BRANCH   3   6
ATOM      6  C   UNK A  0       25.707 -21.714   7.208  0.00  0.00    +0.251 C 
ATOM      7  N   GLU A  1       26.971 -21.553   6.690  0.00  0.00    -0.298 N 
ATOM      8  H   GLU A  1       27.308 -22.278   6.068  0.00  0.00    +0.150 HD
ATOM      9  O   UNK A  0       25.175 -20.787   7.826  0.00  0.00    -0.270 OA
BRANCH   7  10
ATOM     10  CA  GLU A  1       27.776 -20.352   6.920  0.00  0.00    +0.182 C 
BRANCH  10  11
ATOM     11  C   GLU A  1       28.063 -19.594   5.608  0.00  0.00    +0.325 C 
ATOM     12  O   GLU A  1       28.991 -18.815   5.446  0.00  0.00    -0.249 OA
BRANCH  11  13
ATOM     13  OXT GLU A  1       27.133 -19.817   4.647  0.00  0.00    -0.479 OA
ATOM     14  HXT GLU A  1       27.194 -19.190   3.886  0.00  0.00    +0.295 HD
ENDBRANCH  11  13
ENDBRANCH  10  11
BRANCH  10  15
ATOM     15  CB  GLU A  1       29.029 -20.635   7.764  0.00  0.00    +0.045 C 
BRANCH  15  16
ATOM     16  CG  GLU A  1       29.748 -19.405   8.333  0.00  0.00    +0.123 C 
BRANCH  16  17
ATOM     17  CD  GLU A  1       31.249 -19.561   8.258  0.00  0.00    +0.305 C 
ATOM     18  OE1 GLU A  1       32.038 -19.573   9.182  0.00  0.00    -0.251 OA
BRANCH  17  19
ATOM     19  OE2 GLU A  1       31.668 -19.728   6.988  0.00  0.00    -0.481 OA
ATOM     20  HE2 GLU A  1       31.574 -18.842   6.579  0.00  0.00    +0.295 HD
ENDBRANCH  17  19
ENDBRANCH  16  17
ENDBRANCH  15  16
ENDBRANCH  10  15
ENDBRANCH   7  10
ENDBRANCH   3   6
BRANCH   1  21
ATOM     21  N   UNK A  0       24.806 -26.750   6.184  0.00  0.00    -0.323 N 
ATOM     22  C   UNK A  0       24.071 -27.313   5.051  0.00  0.00    +0.130 C 
BRANCH  21  23
ATOM     23  C   UNK A  0       25.958 -27.518   6.683  0.00  0.00    +0.140 C 
BRANCH  23  31
ATOM     24  C   UNK A  0       25.362 -32.140  13.166  0.00  0.00    +0.086 C 
ATOM     25  C   UNK A  0       25.655 -31.160  12.055  0.00  0.00    +0.108 A 
ATOM     26  N   UNK A  0       24.773 -31.112  11.005  0.00  0.00    -0.343 N 
ATOM     27  H   UNK A  0       23.966 -31.721  10.970  0.00  0.00    +0.167 HD
ATOM     28  C   UNK A  0       25.004 -30.222   9.957  0.00  0.00    +0.053 A 
ATOM     29  C   UNK A  0       26.142 -29.413  10.001  0.00  0.00    +0.065 A 
ATOM     30  C   UNK A  0       26.451 -28.531   8.959  0.00  0.00    +0.020 A 
ATOM     31  C   UNK A  0       25.607 -28.432   7.847  0.00  0.00    -0.029 A 
ATOM     32  C   UNK A  0       24.443 -29.220   7.821  0.00  0.00    +0.007 A 
ATOM     33  C   UNK A  0       27.030 -29.533  11.184  0.00  0.00    +0.281 A 
ATOM     34  O   UNK A  0       28.029 -28.825  11.233  0.00  0.00    -0.265 OA
ATOM     35  C   UNK A  0       24.144 -30.110   8.863  0.00  0.00    +0.026 A 
ATOM     36  N   UNK A  0       26.721 -30.436  12.176  0.00  0.00    -0.196 NA
ENDBRANCH  23  31
ENDBRANCH  21  23
ENDBRANCH   1  21
TORSDOF 11
ENDMDL
MODEL 5
REMARK VINA RESULT:      -8.1      2.062      3.499
REMARK  Name = *****
REMARK                            x       y       z     vdW  Elec       q    Type
REMARK                         _______ _______ _______ _____ _____    ______ ____
ROOT
ATOM      1  C   UNK A  0       25.281 -24.618   5.754  0.00  0.00    +0.069 A 
ATOM      2  S   UNK A  0       26.248 -23.796   6.922  0.00  0.00    -0.069 S 
ATOM      3  C   UNK A  0       25.834 -22.252   6.339  0.00  0.00    +0.076 A 
ATOM      4  C   UNK A  0       24.952 -22.335   5.286  0.00  0.00    +0.022 A 
ATOM      5  C   UNK A  0       24.598 -23.687   4.989  0.00  0.00    +0.032 A 
ENDROOT
BRANCH   3   6
ATOM      6  C   UNK A  0       26.422 -21.073   6.933  0.00  0.00    +0.251 C 
ATOM      7  N   GLU A  1       27.686 -20.749   6.496  0.00  0.00    -0.298 N 
ATOM      8  H   GLU A  1       28.049 -21.274   5.710  0.00  0.00    +0.150 HD
ATOM      9  O   UNK A  0       25.860 -20.357   7.766  0.00  0.00    -0.270 OA
BRANCH   7  10
ATOM     10  CA  GLU A  1       28.454 -19.632   7.049  0.00  0.00    +0.182 C 
BRANCH  10  11
ATOM     11  C   GLU A  1       29.231 -18.872   5.956  0.00  0.00    +0.325 C 
ATOM     12  O   GLU A  1       30.369 -18.444   6.084  0.00  0.00    -0.249 OA
BRANCH  11  13
ATOM     13  OXT GLU A  1       28.500 -18.651   4.836  0.00  0.00    -0.479 OA
ATOM     14  HXT GLU A  1       29.027 -18.282   4.087  0.00  0.00    +0.295 HD
ENDBRANCH  11  13
ENDBRANCH  10  11
BRANCH  10  15
ATOM     15  CB  GLU A  1       29.317 -20.050   8.251  0.00  0.00    +0.045 C 
BRANCH  15  16
ATOM     16  CG  GLU A  1       30.138 -21.334   8.075  0.00  0.00    +0.123 C 
BRANCH  16  17
ATOM     17  CD  GLU A  1       31.165 -21.487   9.173  0.00  0.00    +0.305 C 
ATOM     18  OE1 GLU A  1       32.216 -20.888   9.290  0.00  0.00    -0.251 OA
BRANCH  17  19
ATOM     19  OE2 GLU A  1       30.776 -22.388  10.095  0.00  0.00    -0.481 OA
ATOM     20  HE2 GLU A  1       30.047 -21.946  10.579  0.00  0.00    +0.295 HD
ENDBRANCH  17  19
ENDBRANCH  16  17
ENDBRANCH  15  16
ENDBRANCH  10  15
ENDBRANCH   7  10
ENDBRANCH   3   6
BRANCH   1  21
ATOM     21  N   UNK A  0       25.229 -25.989   5.655  0.00  0.00    -0.323 N 
ATOM     22  C   UNK A  0       26.433 -26.727   5.274  0.00  0.00    +0.130 C 
BRANCH  21  23
ATOM     23  C   UNK A  0       24.163 -26.747   6.328  0.00  0.00    +0.140 C 
BRANCH  23  31
ATOM     24  C   UNK A  0       27.237 -33.638   8.942  0.00  0.00    +0.086 C 
ATOM     25  C   UNK A  0       26.746 -32.240   8.647  0.00  0.00    +0.108 A 
ATOM     26  N   UNK A  0       25.904 -32.078   7.576  0.00  0.00    -0.343 N 
ATOM     27  H   UNK A  0       25.636 -32.863   6.997  0.00  0.00    +0.167 HD
ATOM     28  C   UNK A  0       25.426 -30.805   7.267  0.00  0.00    +0.053 A 
ATOM     29  C   UNK A  0       25.835 -29.725   8.053  0.00  0.00    +0.065 A 
ATOM     30  C   UNK A  0       25.424 -28.418   7.767  0.00  0.00    +0.020 A 
ATOM     31  C   UNK A  0       24.574 -28.168   6.683  0.00  0.00    -0.029 A 
ATOM     32  C   UNK A  0       24.134 -29.261   5.915  0.00  0.00    +0.007 A 
ATOM     33  C   UNK A  0       26.741 -30.005   9.195  0.00  0.00    +0.281 A 
ATOM     34  O   UNK A  0       27.102 -29.064   9.892  0.00  0.00    -0.265 OA
ATOM     35  C   UNK A  0       24.558 -30.567   6.201  0.00  0.00    +0.026 A 
ATOM     36  N   UNK A  0       27.158 -31.296   9.430  0.00  0.00    -0.196 NA
ENDBRANCH  23  31
ENDBRANCH  21  23
ENDBRANCH   1  21
TORSDOF 11
ENDMDL
MODEL 6
REMARK VINA RESULT:      -8.1      2.146      2.984
REMARK  Name = *****
REMARK                            x       y       z     vdW  Elec       q    Type
REMARK                         _______ _______ _______ _____ _____    ______ ____
ROOT
ATOM      1  C   UNK A  0       25.370 -20.760   6.436  0.00  0.00    +0.069 A 
ATOM      2  S   UNK A  0       27.045 -20.429   6.191  0.00  0.00    -0.069 S 
ATOM      3  C   UNK A  0       27.392 -20.380   7.855  0.00  0.00    +0.076 A 
ATOM      4  C   UNK A  0       26.268 -20.635   8.608  0.00  0.00    +0.022 A 
ATOM      5  C   UNK A  0       25.126 -20.903   7.792  0.00  0.00    +0.032 A 
ENDROOT
BRANCH   3   6
ATOM      6  C   UNK A  0       28.729 -20.068   8.307  0.00  0.00    +0.251 C 
ATOM      7  N   GLU A  1       29.071 -18.735   8.291  0.00  0.00    -0.298 N 
ATOM      8  H   GLU A  1       28.330 -18.073   8.095  0.00  0.00    +0.150 HD
ATOM      9  O   UNK A  0       29.541 -20.905   8.710  0.00  0.00    -0.270 OA
BRANCH   7  10
ATOM     10  CA  GLU A  1       30.409 -18.256   8.643  0.00  0.00    +0.182 C 
BRANCH  10  11
ATOM     11  C   GLU A  1       31.512 -19.197   8.118  0.00  0.00    +0.325 C 
ATOM     12  O   GLU A  1       31.779 -19.361   6.936  0.00  0.00    -0.249 OA
BRANCH  11  13
ATOM     13  OXT GLU A  1       32.128 -19.898   9.101  0.00  0.00    -0.479 OA
ATOM     14  HXT GLU A  1       31.592 -20.656   9.440  0.00  0.00    +0.295 HD
ENDBRANCH  11  13
ENDBRANCH  10  11
BRANCH  10  15
ATOM     15  CB  GLU A  1       30.538 -17.916  10.137  0.00  0.00    +0.045 C 
BRANCH  15  16
ATOM     16  CG  GLU A  1       31.137 -16.542  10.464  0.00  0.00    +0.123 C 
BRANCH  16  17
ATOM     17  CD  GLU A  1       31.612 -16.474  11.897  0.00  0.00    +0.305 C 
ATOM     18  OE1 GLU A  1       32.401 -17.215  12.449  0.00  0.00    -0.251 OA
BRANCH  17  19
ATOM     19  OE2 GLU A  1       31.070 -15.428  12.551  0.00  0.00    -0.481 OA
ATOM     20  HE2 GLU A  1       31.138 -15.668  13.499  0.00  0.00    +0.295 HD
ENDBRANCH  17  19
ENDBRANCH  16  17
ENDBRANCH  15  16
ENDBRANCH  10  15
ENDBRANCH   7  10
ENDBRANCH   3   6
BRANCH   1  21
ATOM     21  N   UNK A  0       24.467 -20.865   5.404  0.00  0.00    -0.323 N 
ATOM     22  C   UNK A  0       23.712 -19.684   4.988  0.00  0.00    +0.130 C 
BRANCH  21  23
ATOM     23  C   UNK A  0       24.556 -21.976   4.443  0.00  0.00    +0.140 C 
BRANCH  23  31
ATOM     24  C   UNK A  0       24.575 -29.606   6.794  0.00  0.00    +0.086 C 
ATOM     25  C   UNK A  0       24.753 -28.226   6.208  0.00  0.00    +0.108 A 
ATOM     26  N   UNK A  0       24.029 -27.203   6.768  0.00  0.00    -0.343 N 
ATOM     27  H   UNK A  0       23.389 -27.371   7.533  0.00  0.00    +0.167 HD
ATOM     28  C   UNK A  0       24.162 -25.912   6.258  0.00  0.00    +0.053 A 
ATOM     29  C   UNK A  0       25.022 -25.701   5.177  0.00  0.00    +0.065 A 
ATOM     30  C   UNK A  0       25.164 -24.437   4.595  0.00  0.00    +0.020 A 
ATOM     31  C   UNK A  0       24.451 -23.344   5.100  0.00  0.00    -0.029 A 
ATOM     32  C   UNK A  0       23.615 -23.550   6.211  0.00  0.00    +0.007 A 
ATOM     33  C   UNK A  0       25.767 -26.871   4.649  0.00  0.00    +0.281 A 
ATOM     34  O   UNK A  0       26.526 -26.695   3.703  0.00  0.00    -0.265 OA
ATOM     35  C   UNK A  0       23.468 -24.822   6.784  0.00  0.00    +0.026 A 
ATOM     36  N   UNK A  0       25.578 -28.110   5.218  0.00  0.00    -0.196 NA
ENDBRANCH  23  31
ENDBRANCH  21  23
ENDBRANCH   1  21
TORSDOF 11
ENDMDL
MODEL 7
REMARK VINA RESULT:      -8.1      1.868      2.599
REMARK  Name = *****
REMARK                            x       y       z     vdW  Elec       q    Type
REMARK                         _______ _______ _______ _____ _____    ______ ____
ROOT
ATOM      1  C   UNK A  0       24.989 -23.108   7.169  0.00  0.00    +0.069 A 
ATOM      2  S   UNK A  0       26.707 -22.988   7.067  0.00  0.00    -0.069 S 
ATOM      3  C   UNK A  0       26.763 -21.502   7.891  0.00  0.00    +0.076 A 
ATOM      4  C   UNK A  0       25.505 -21.094   8.273  0.00  0.00    +0.022 A 
ATOM      5  C   UNK A  0       24.500 -22.040   7.903  0.00  0.00    +0.032 A 
ENDROOT
BRANCH   3   6
ATOM      6  C   UNK A  0       28.026 -20.827   8.083  0.00  0.00    +0.251 C 
ATOM      7  N   GLU A  1       29.135 -21.480   7.595  0.00  0.00    -0.298 N 
ATOM      8  H   GLU A  1       28.971 -22.306   7.032  0.00  0.00    +0.150 HD
ATOM      9  O   UNK A  0       28.153 -19.725   8.624  0.00  0.00    -0.270 OA
BRANCH   7  10
ATOM     10  CA  GLU A  1       30.497 -20.973   7.773  0.00  0.00    +0.182 C 
BRANCH  10  11
ATOM     11  C   GLU A  1       31.138 -21.496   9.074  0.00  0.00    +0.325 C 
ATOM     12  O   GLU A  1       30.644 -22.350   9.797  0.00  0.00    -0.249 OA
BRANCH  11  13
ATOM     13  OXT GLU A  1       32.292 -20.860   9.394  0.00  0.00    -0.479 OA
ATOM     14  HXT GLU A  1       32.992 -21.464   9.744  0.00  0.00    +0.295 HD
ENDBRANCH  11  13
ENDBRANCH  10  11
BRANCH  10  15
ATOM     15  CB  GLU A  1       30.583 -19.447   7.605  0.00  0.00    +0.045 C 
BRANCH  15  16
ATOM     16  CG  GLU A  1       30.702 -18.935   6.164  0.00  0.00    +0.123 C 
BRANCH  16  17
ATOM     17  CD  GLU A  1       29.342 -18.712   5.544  0.00  0.00    +0.305 C 
ATOM     18  OE1 GLU A  1       28.456 -19.530   5.393  0.00  0.00    -0.251 OA
BRANCH  17  19
ATOM     19  OE2 GLU A  1       29.170 -17.428   5.173  0.00  0.00    -0.481 OA
ATOM     20  HE2 GLU A  1       30.044 -17.010   5.321  0.00  0.00    +0.295 HD
ENDBRANCH  17  19
ENDBRANCH  16  17
ENDBRANCH  15  16
ENDBRANCH  10  15
ENDBRANCH   7  10
ENDBRANCH   3   6
BRANCH   1  21
ATOM     21  N   UNK A  0       24.274 -24.134   6.598  0.00  0.00    -0.323 N 
ATOM     22  C   UNK A  0       22.812 -24.091   6.625  0.00  0.00    +0.130 C 
BRANCH  21  23
ATOM     23  C   UNK A  0       24.899 -25.018   5.602  0.00  0.00    +0.140 C 
BRANCH  23  31
ATOM     24  C   UNK A  0       25.774 -32.361   8.614  0.00  0.00    +0.086 C 
ATOM     25  C   UNK A  0       25.696 -30.896   8.253  0.00  0.00    +0.108 A 
ATOM     26  N   UNK A  0       25.057 -30.566   7.084  0.00  0.00    -0.343 N 
ATOM     27  H   UNK A  0       24.668 -31.278   6.481  0.00  0.00    +0.167 HD
ATOM     28  C   UNK A  0       24.961 -29.226   6.711  0.00  0.00    +0.053 A 
ATOM     29  C   UNK A  0       25.536 -28.256   7.537  0.00  0.00    +0.065 A 
ATOM     30  C   UNK A  0       25.511 -26.900   7.195  0.00  0.00    +0.020 A 
ATOM     31  C   UNK A  0       24.888 -26.482   6.013  0.00  0.00    -0.029 A 
ATOM     32  C   UNK A  0       24.278 -27.456   5.202  0.00  0.00    +0.007 A 
ATOM     33  C   UNK A  0       26.198 -28.714   8.784  0.00  0.00    +0.281 A 
ATOM     34  O   UNK A  0       26.702 -27.871   9.515  0.00  0.00    -0.265 OA
ATOM     35  C   UNK A  0       24.316 -28.815   5.545  0.00  0.00    +0.026 A 
ATOM     36  N   UNK A  0       26.240 -30.059   9.076  0.00  0.00    -0.196 NA
ENDBRANCH  23  31
ENDBRANCH  21  23
ENDBRANCH   1  21
TORSDOF 11
ENDMDL
MODEL 8
REMARK VINA RESULT:      -8.1      2.433      3.841
REMARK  Name = *****
REMARK                            x       y       z     vdW  Elec       q    Type
REMARK                         _______ _______ _______ _____ _____    ______ ____
ROOT
ATOM      1  C   UNK A  0       24.924 -25.676   6.025  0.00  0.00    +0.069 A 
ATOM      2  S   UNK A  0       26.224 -24.644   6.493  0.00  0.00    -0.069 S 
ATOM      3  C   UNK A  0       25.194 -23.377   6.967  0.00  0.00    +0.076 A 
ATOM      4  C   UNK A  0       23.870 -23.722   6.806  0.00  0.00    +0.022 A 
ATOM      5  C   UNK A  0       23.720 -25.055   6.316  0.00  0.00    +0.032 A 
ENDROOT
BRANCH   3   6
ATOM      6  C   UNK A  0       25.750 -22.129   7.436  0.00  0.00    +0.251 C 
ATOM      7  N   GLU A  1       26.984 -21.793   6.928  0.00  0.00    -0.298 N 
ATOM      8  H   GLU A  1       27.343 -22.370   6.176  0.00  0.00    +0.150 HD
ATOM      9  O   UNK A  0       25.185 -21.367   8.226  0.00  0.00    -0.270 OA
BRANCH   7  10
ATOM     10  CA  GLU A  1       27.721 -20.604   7.356  0.00  0.00    +0.182 C 
BRANCH  10  11
ATOM     11  C   GLU A  1       28.290 -19.819   6.157  0.00  0.00    +0.325 C 
ATOM     12  O   GLU A  1       29.098 -18.906   6.246  0.00  0.00    -0.249 OA
BRANCH  11  13
ATOM     13  OXT GLU A  1       27.748 -20.189   4.971  0.00  0.00    -0.479 OA
ATOM     14  HXT GLU A  1       28.421 -20.423   4.285  0.00  0.00    +0.295 HD
ENDBRANCH  11  13
ENDBRANCH  10  11
BRANCH  10  15
ATOM     15  CB  GLU A  1       28.760 -20.916   8.446  0.00  0.00    +0.045 C 
BRANCH  15  16
ATOM     16  CG  GLU A  1       30.148 -21.342   7.950  0.00  0.00    +0.123 C 
BRANCH  16  17
ATOM     17  CD  GLU A  1       30.979 -21.924   9.070  0.00  0.00    +0.305 C 
ATOM     18  OE1 GLU A  1       30.669 -22.033  10.240  0.00  0.00    -0.251 OA
BRANCH  17  19
ATOM     19  OE2 GLU A  1       32.168 -22.373   8.623  0.00  0.00    -0.481 OA
ATOM     20  HE2 GLU A  1       32.116 -22.282   7.649  0.00  0.00    +0.295 HD
ENDBRANCH  17  19
ENDBRANCH  16  17
ENDBRANCH  15  16
ENDBRANCH  10  15
ENDBRANCH   7  10
ENDBRANCH   3   6
BRANCH   1  21
ATOM     21  N   UNK A  0       25.115 -26.918   5.465  0.00  0.00    -0.323 N 
ATOM     22  C   UNK A  0       26.376 -27.211   4.783  0.00  0.00    +0.130 C 
BRANCH  21  23
ATOM     23  C   UNK A  0       24.306 -28.067   5.900  0.00  0.00    +0.140 C 
BRANCH  23  31
ATOM     24  C   UNK A  0       25.488 -31.645  12.940  0.00  0.00    +0.086 C 
ATOM     25  C   UNK A  0       25.099 -31.137  11.572  0.00  0.00    +0.108 A 
ATOM     26  N   UNK A  0       25.868 -30.139  11.026  0.00  0.00    -0.343 N 
ATOM     27  H   UNK A  0       26.655 -29.750  11.528  0.00  0.00    +0.167 HD
ATOM     28  C   UNK A  0       25.546 -29.640   9.765  0.00  0.00    +0.053 A 
ATOM     29  C   UNK A  0       24.434 -30.162   9.099  0.00  0.00    +0.065 A 
ATOM     30  C   UNK A  0       24.034 -29.671   7.851  0.00  0.00    +0.020 A 
ATOM     31  C   UNK A  0       24.759 -28.646   7.232  0.00  0.00    -0.029 A 
ATOM     32  C   UNK A  0       25.899 -28.147   7.886  0.00  0.00    +0.007 A 
ATOM     33  C   UNK A  0       23.672 -31.245   9.770  0.00  0.00    +0.281 A 
ATOM     34  O   UNK A  0       22.697 -31.711   9.193  0.00  0.00    -0.265 OA
ATOM     35  C   UNK A  0       26.288 -28.636   9.142  0.00  0.00    +0.026 A 
ATOM     36  N   UNK A  0       24.066 -31.681  11.015  0.00  0.00    -0.196 NA
ENDBRANCH  23  31
ENDBRANCH  21  23
ENDBRANCH   1  21
TORSDOF 11
ENDMDL
MODEL 9
REMARK VINA RESULT:      -8.0      1.710      2.168
REMARK  Name = *****
REMARK                            x       y       z     vdW  Elec       q    Type
REMARK                         _______ _______ _______ _____ _____    ______ ____
ROOT
ATOM      1  C   UNK A  0       25.515 -22.433   6.600  0.00  0.00    +0.069 A 
ATOM      2  S   UNK A  0       26.461 -21.222   5.818  0.00  0.00    -0.069 S 
ATOM      3  C   UNK A  0       27.419 -20.926   7.192  0.00  0.00    +0.076 A 
ATOM      4  C   UNK A  0       27.059 -21.745   8.238  0.00  0.00    +0.022 A 
ATOM      5  C   UNK A  0       26.005 -22.641   7.879  0.00  0.00    +0.032 A 
ENDROOT
BRANCH   3   6
ATOM      6  C   UNK A  0       28.433 -19.897   7.160  0.00  0.00    +0.251 C 
ATOM      7  N   GLU A  1       29.109 -19.684   8.340  0.00  0.00    -0.298 N 
ATOM      8  H   GLU A  1       28.941 -20.344   9.090  0.00  0.00    +0.150 HD
ATOM      9  O   UNK A  0       28.725 -19.237   6.159  0.00  0.00    -0.270 OA
BRANCH   7  10
ATOM     10  CA  GLU A  1       30.111 -18.630   8.501  0.00  0.00    +0.182 C 
BRANCH  10  11
ATOM     11  C   GLU A  1       31.533 -19.137   8.188  0.00  0.00    +0.325 C 
ATOM     12  O   GLU A  1       31.988 -19.275   7.062  0.00  0.00    -0.249 OA
BRANCH  11  13
ATOM     13  OXT GLU A  1       32.228 -19.494   9.296  0.00  0.00    -0.479 OA
ATOM     14  HXT GLU A  1       31.997 -18.961  10.096  0.00  0.00    +0.295 HD
ENDBRANCH  11  13
ENDBRANCH  10  11
BRANCH  10  15
ATOM     15  CB  GLU A  1       29.990 -17.905   9.851  0.00  0.00    +0.045 C 
BRANCH  15  16
ATOM     16  CG  GLU A  1       30.719 -16.559   9.960  0.00  0.00    +0.123 C 
BRANCH  16  17
ATOM     17  CD  GLU A  1       31.718 -16.563  11.093  0.00  0.00    +0.305 C 
ATOM     18  OE1 GLU A  1       32.811 -17.093  11.112  0.00  0.00    -0.251 OA
BRANCH  17  19
ATOM     19  OE2 GLU A  1       31.276 -15.849  12.147  0.00  0.00    -0.481 OA
ATOM     20  HE2 GLU A  1       32.048 -15.312  12.422  0.00  0.00    +0.295 HD
ENDBRANCH  17  19
ENDBRANCH  16  17
ENDBRANCH  15  16
ENDBRANCH  10  15
ENDBRANCH   7  10
ENDBRANCH   3   6
BRANCH   1  21
ATOM     21  N   UNK A  0       24.456 -23.067   5.993  0.00  0.00    -0.323 N 
ATOM     22  C   UNK A  0       24.225 -22.866   4.563  0.00  0.00    +0.130 C 
BRANCH  21  23
ATOM     23  C   UNK A  0       23.838 -24.250   6.612  0.00  0.00    +0.140 C 
BRANCH  23  31
ATOM     24  C   UNK A  0       26.358 -31.640   4.941  0.00  0.00    +0.086 C 
ATOM     25  C   UNK A  0       25.734 -30.348   5.412  0.00  0.00    +0.108 A 
ATOM     26  N   UNK A  0       26.060 -29.202   4.730  0.00  0.00    -0.343 N 
ATOM     27  H   UNK A  0       26.706 -29.222   3.952  0.00  0.00    +0.167 HD
ATOM     28  C   UNK A  0       25.508 -27.987   5.131  0.00  0.00    +0.053 A 
ATOM     29  C   UNK A  0       24.645 -27.969   6.231  0.00  0.00    +0.065 A 
ATOM     30  C   UNK A  0       24.094 -26.775   6.707  0.00  0.00    +0.020 A 
ATOM     31  C   UNK A  0       24.387 -25.562   6.073  0.00  0.00    -0.029 A 
ATOM     32  C   UNK A  0       25.225 -25.585   4.944  0.00  0.00    +0.007 A 
ATOM     33  C   UNK A  0       24.348 -29.263   6.896  0.00  0.00    +0.281 A 
ATOM     34  O   UNK A  0       23.591 -29.259   7.859  0.00  0.00    -0.265 OA
ATOM     35  C   UNK A  0       25.784 -26.785   4.479  0.00  0.00    +0.026 A 
ATOM     36  N   UNK A  0       24.936 -30.417   6.428  0.00  0.00    -0.196 NA
ENDBRANCH  23  31
ENDBRANCH  21  23
ENDBRANCH   1  21
TORSDOF 11
ENDMDL
