MODEL 1
REMARK VINA RESULT:      -8.8      0.000      0.000
REMARK  Name = *****
REMARK                            x       y       z     vdW  Elec       q    Type
REMARK                         _______ _______ _______ _____ _____    ______ ____
ROOT
ATOM      1  N   LIG    1       25.072 -25.884   5.676  0.00  0.00    -0.296 NA
ATOM      2  C   LIG    1       24.170 -24.817   5.205  0.00  0.00    +0.100 C 
ATOM      3  C   LIG    1       23.846 -23.749   6.271  0.00  0.00    +0.100 C 
ATOM      4  N   LIG    1       25.025 -23.076   6.871  0.00  0.00    -0.289 NA
ATOM      5  C   LIG    1       26.007 -24.115   7.270  0.00  0.00    +0.100 C 
ATOM      6  C   LIG    1       26.279 -25.244   6.242  0.00  0.00    +0.100 C 
ENDROOT
BRANCH   1   7
ATOM      7  C   LIG    1       24.440 -26.775   6.672  0.00  0.00    +0.119 C 
BRANCH   7  11
ATOM      8  C   LIG    1       25.412 -31.273   8.759  0.00  0.00    +0.044 C 
ATOM      9  C   LIG    1       25.269 -30.416   7.536  0.00  0.00    -0.050 A 
ATOM     10  C   LIG    1       24.934 -29.061   7.659  0.00  0.00    +0.008 A 
ATOM     11  C   LIG    1       24.814 -28.239   6.527  0.00  0.00    -0.033 A 
ATOM     12  C   LIG    1       25.054 -28.792   5.261  0.00  0.00    +0.005 A 
ATOM     13  C   LIG    1       25.401 -30.135   5.129  0.00  0.00    +0.001 A 
ATOM     14  C   LIG    1       25.511 -30.944   6.263  0.00  0.00    +0.003 A 
ENDBRANCH   7  11
ENDBRANCH   1   7
BRANCH   4  15
ATOM     15  C   LIG    1       25.608 -22.017   5.991  0.00  0.00    +0.117 C 
BRANCH  15  16
ATOM     16  C   LIG    1       24.554 -21.028   5.454  0.00  0.00    -0.026 A 
ATOM     17  C   LIG    1       24.650 -20.538   4.140  0.00  0.00    +0.007 A 
ATOM     18  C   LIG    1       23.703 -19.636   3.644  0.00  0.00    +0.020 A 
ATOM     19  C   LIG    1       22.651 -19.218   4.456  0.00  0.00    +0.041 A 
ATOM     20 CL   LIG    1       21.475 -18.124   3.837  0.00  0.00    -0.084 Cl
ATOM     21  C   LIG    1       22.544 -19.678   5.765  0.00  0.00    +0.020 A 
ATOM     22  C   LIG    1       23.501 -20.565   6.266  0.00  0.00    +0.007 A 
ENDBRANCH  15  16
BRANCH  15  23
ATOM     23  C   LIG    1       26.720 -21.199   6.671  0.00  0.00    -0.026 A 
ATOM     24  C   LIG    1       27.771 -20.666   5.903  0.00  0.00    +0.005 A 
ATOM     25  C   LIG    1       28.776 -19.901   6.501  0.00  0.00    +0.000 A 
ATOM     26  C   LIG    1       28.748 -19.661   7.873  0.00  0.00    +0.000 A 
ATOM     27  C   LIG    1       27.708 -20.168   8.648  0.00  0.00    +0.000 A 
ATOM     28  C   LIG    1       26.694 -20.920   8.049  0.00  0.00    +0.005 A 
ENDBRANCH  15  23
ENDBRANCH   4  15
TORSDOF 5
ENDMDL
MODEL 2
REMARK VINA RESULT:      -8.8      2.074      4.131
REMARK  Name = *****
REMARK                            x       y       z     vdW  Elec       q    Type
REMARK                         _______ _______ _______ _____ _____    ______ ____
ROOT
ATOM      1  N   LIG    1       24.369 -25.350   6.735  0.00  0.00    -0.296 NA
ATOM      2  C   LIG    1       25.532 -24.625   7.281  0.00  0.00    +0.100 C 
ATOM      3  C   LIG    1       26.309 -23.801   6.234  0.00  0.00    +0.100 C 
ATOM      4  N   LIG    1       25.502 -22.805   5.486  0.00  0.00    -0.289 NA
ATOM      5  C   LIG    1       24.267 -23.471   5.001  0.00  0.00    +0.100 C 
ATOM      6  C   LIG    1       23.520 -24.373   6.019  0.00  0.00    +0.100 C 
ENDROOT
BRANCH   1   7
ATOM      7  C   LIG    1       24.751 -26.463   5.840  0.00  0.00    +0.119 C 
BRANCH   7  11
ATOM      8  C   LIG    1       26.556 -29.388   9.543  0.00  0.00    +0.044 C 
ATOM      9  C   LIG    1       25.697 -29.224   8.324  0.00  0.00    -0.050 A 
ATOM     10  C   LIG    1       25.619 -27.983   7.678  0.00  0.00    +0.008 A 
ATOM     11  C   LIG    1       24.835 -27.814   6.526  0.00  0.00    -0.033 A 
ATOM     12  C   LIG    1       24.139 -28.919   6.014  0.00  0.00    +0.005 A 
ATOM     13  C   LIG    1       24.220 -30.160   6.641  0.00  0.00    +0.001 A 
ATOM     14  C   LIG    1       24.999 -30.313   7.791  0.00  0.00    +0.003 A 
ENDBRANCH   7  11
ENDBRANCH   1   7
BRANCH   4  15
ATOM     15  C   LIG    1       25.235 -21.558   6.267  0.00  0.00    +0.117 C 
BRANCH  15  16
ATOM     16  C   LIG    1       26.523 -20.836   6.712  0.00  0.00    -0.026 A 
ATOM     17  C   LIG    1       26.787 -20.641   8.079  0.00  0.00    +0.007 A 
ATOM     18  C   LIG    1       27.949 -19.982   8.494  0.00  0.00    +0.020 A 
ATOM     19  C   LIG    1       28.857 -19.514   7.547  0.00  0.00    +0.041 A 
ATOM     20 CL   LIG    1       30.296 -18.722   8.061  0.00  0.00    -0.084 Cl
ATOM     21  C   LIG    1       28.609 -19.682   6.188  0.00  0.00    +0.020 A 
ATOM     22  C   LIG    1       27.439 -20.324   5.774  0.00  0.00    +0.007 A 
ENDBRANCH  15  16
BRANCH  15  23
ATOM     23  C   LIG    1       24.357 -20.541   5.517  0.00  0.00    -0.026 A 
ATOM     24  C   LIG    1       24.801 -19.992   4.301  0.00  0.00    +0.005 A 
ATOM     25  C   LIG    1       24.006 -19.085   3.594  0.00  0.00    +0.000 A 
ATOM     26  C   LIG    1       22.760 -18.712   4.093  0.00  0.00    +0.000 A 
ATOM     27  C   LIG    1       22.297 -19.257   5.288  0.00  0.00    +0.000 A 
ATOM     28  C   LIG    1       23.083 -20.175   5.988  0.00  0.00    +0.005 A 
ENDBRANCH  15  23
ENDBRANCH   4  15
TORSDOF 5
ENDMDL
MODEL 3
REMARK VINA RESULT:      -8.1      3.544      9.389
REMARK  Name = *****
REMARK                            x       y       z     vdW  Elec       q    Type
REMARK                         _______ _______ _______ _____ _____    ______ ____
ROOT
ATOM      1  N   LIG    1       26.170 -26.005   5.639  0.00  0.00    -0.296 NA
ATOM      2  C   LIG    1       25.739 -26.419   6.987  0.00  0.00    +0.100 C 
ATOM      3  C   LIG    1       24.512 -27.355   6.996  0.00  0.00    +0.100 C 
ATOM      4  N   LIG    1       24.657 -28.596   6.196  0.00  0.00    -0.289 NA
ATOM      5  C   LIG    1       25.186 -28.233   4.857  0.00  0.00    +0.100 C 
ATOM      6  C   LIG    1       26.366 -27.226   4.828  0.00  0.00    +0.100 C 
ENDROOT
BRANCH   1   7
ATOM      7  C   LIG    1       25.212 -25.091   4.982  0.00  0.00    +0.119 C 
BRANCH   7  11
ATOM      8  C   LIG    1       26.092 -20.880   7.632  0.00  0.00    +0.044 C 
ATOM      9  C   LIG    1       25.134 -21.924   7.140  0.00  0.00    -0.050 A 
ATOM     10  C   LIG    1       25.588 -22.971   6.326  0.00  0.00    +0.008 A 
ATOM     11  C   LIG    1       24.711 -23.968   5.870  0.00  0.00    -0.033 A 
ATOM     12  C   LIG    1       23.364 -23.912   6.259  0.00  0.00    +0.005 A 
ATOM     13  C   LIG    1       22.905 -22.883   7.078  0.00  0.00    +0.001 A 
ATOM     14  C   LIG    1       23.788 -21.894   7.520  0.00  0.00    +0.003 A 
ENDBRANCH   7  11
ENDBRANCH   1   7
BRANCH   4  15
ATOM     15  C   LIG    1       25.462 -29.650   6.886  0.00  0.00    +0.117 C 
BRANCH  15  16
ATOM     16  C   LIG    1       25.238 -29.681   8.412  0.00  0.00    -0.026 A 
ATOM     17  C   LIG    1       26.264 -29.277   9.284  0.00  0.00    +0.007 A 
ATOM     18  C   LIG    1       26.074 -29.306  10.669  0.00  0.00    +0.020 A 
ATOM     19  C   LIG    1       24.858 -29.737  11.195  0.00  0.00    +0.041 A 
ATOM     20 CL   LIG    1       24.620 -29.752  12.899  0.00  0.00    -0.084 Cl
ATOM     21  C   LIG    1       23.834 -30.156  10.351  0.00  0.00    +0.020 A 
ATOM     22  C   LIG    1       24.031 -30.144   8.967  0.00  0.00    +0.007 A 
ENDBRANCH  15  16
BRANCH  15  23
ATOM     23  C   LIG    1       25.211 -31.067   6.342  0.00  0.00    -0.026 A 
ATOM     24  C   LIG    1       26.285 -31.960   6.183  0.00  0.00    +0.005 A 
ATOM     25  C   LIG    1       26.071 -33.259   5.714  0.00  0.00    +0.000 A 
ATOM     26  C   LIG    1       24.783 -33.683   5.394  0.00  0.00    +0.000 A 
ATOM     27  C   LIG    1       23.704 -32.817   5.559  0.00  0.00    +0.000 A 
ATOM     28  C   LIG    1       23.914 -31.525   6.043  0.00  0.00    +0.005 A 
ENDBRANCH  15  23
ENDBRANCH   4  15
TORSDOF 5
ENDMDL
MODEL 4
REMARK VINA RESULT:      -8.0      3.157      8.628
REMARK  Name = *****
REMARK                            x       y       z     vdW  Elec       q    Type
REMARK                         _______ _______ _______ _____ _____    ______ ____
ROOT
ATOM      1  N   LIG    1       29.296 -20.388   7.713  0.00  0.00    -0.296 NA
ATOM      2  C   LIG    1       28.966 -21.818   7.569  0.00  0.00    +0.100 C 
ATOM      3  C   LIG    1       27.603 -22.213   8.175  0.00  0.00    +0.100 C 
ATOM      4  N   LIG    1       26.437 -21.454   7.660  0.00  0.00    -0.289 NA
ATOM      5  C   LIG    1       26.766 -20.007   7.694  0.00  0.00    +0.100 C 
ATOM      6  C   LIG    1       28.168 -19.603   7.166  0.00  0.00    +0.100 C 
ENDROOT
BRANCH   1   7
ATOM      7  C   LIG    1       29.574 -19.998   9.111  0.00  0.00    +0.119 C 
BRANCH   7  11
ATOM      8  C   LIG    1       31.491 -16.216  11.859  0.00  0.00    +0.044 C 
ATOM      9  C   LIG    1       31.474 -17.015  10.590  0.00  0.00    -0.050 A 
ATOM     10  C   LIG    1       30.581 -18.086  10.442  0.00  0.00    +0.008 A 
ATOM     11  C   LIG    1       30.537 -18.834   9.255  0.00  0.00    -0.033 A 
ATOM     12  C   LIG    1       31.394 -18.482   8.202  0.00  0.00    +0.005 A 
ATOM     13  C   LIG    1       32.275 -17.412   8.334  0.00  0.00    +0.001 A 
ATOM     14  C   LIG    1       32.313 -16.678   9.523  0.00  0.00    +0.003 A 
ENDBRANCH   7  11
ENDBRANCH   1   7
BRANCH   4  15
ATOM     15  C   LIG    1       25.974 -21.925   6.319  0.00  0.00    +0.117 C 
BRANCH  15  16
ATOM     16  C   LIG    1       25.468 -23.382   6.331  0.00  0.00    -0.026 A 
ATOM     17  C   LIG    1       26.383 -24.447   6.254  0.00  0.00    +0.007 A 
ATOM     18  C   LIG    1       25.935 -25.773   6.259  0.00  0.00    +0.020 A 
ATOM     19  C   LIG    1       24.572 -26.045   6.341  0.00  0.00    +0.041 A 
ATOM     20 CL   LIG    1       24.025 -27.677   6.366  0.00  0.00    -0.084 Cl
ATOM     21  C   LIG    1       23.648 -25.006   6.401  0.00  0.00    +0.020 A 
ATOM     22  C   LIG    1       24.094 -23.682   6.378  0.00  0.00    +0.007 A 
ENDBRANCH  15  16
BRANCH  15  23
ATOM     23  C   LIG    1       24.868 -21.046   5.709  0.00  0.00    -0.026 A 
ATOM     24  C   LIG    1       24.986 -20.585   4.385  0.00  0.00    +0.005 A 
ATOM     25  C   LIG    1       23.980 -19.807   3.808  0.00  0.00    +0.000 A 
ATOM     26  C   LIG    1       22.845 -19.473   4.544  0.00  0.00    +0.000 A 
ATOM     27  C   LIG    1       22.704 -19.933   5.851  0.00  0.00    +0.000 A 
ATOM     28  C   LIG    1       23.700 -20.725   6.425  0.00  0.00    +0.005 A 
ENDBRANCH  15  23
ENDBRANCH   4  15
TORSDOF 5
ENDMDL
MODEL 5
REMARK VINA RESULT:      -7.8      3.548      9.605
REMARK  Name = *****
REMARK                            x       y       z     vdW  Elec       q    Type
REMARK                         _______ _______ _______ _____ _____    ______ ____
ROOT
ATOM      1  N   LIG    1       26.150 -26.011   5.613  0.00  0.00    -0.296 NA
ATOM      2  C   LIG    1       25.860 -26.502   6.974  0.00  0.00    +0.100 C 
ATOM      3  C   LIG    1       24.575 -27.350   7.076  0.00  0.00    +0.100 C 
ATOM      4  N   LIG    1       24.523 -28.531   6.179  0.00  0.00    -0.289 NA
ATOM      5  C   LIG    1       24.908 -28.100   4.812  0.00  0.00    +0.100 C 
ATOM      6  C   LIG    1       26.149 -27.175   4.700  0.00  0.00    +0.100 C 
ENDROOT
BRANCH   1   7
ATOM      7  C   LIG    1       25.191 -24.986   5.152  0.00  0.00    +0.119 C 
BRANCH   7  11
ATOM      8  C   LIG    1       23.113 -20.524   6.292  0.00  0.00    +0.044 C 
ATOM      9  C   LIG    1       24.127 -21.591   6.579  0.00  0.00    -0.050 A 
ATOM     10  C   LIG    1       24.188 -22.741   5.778  0.00  0.00    +0.008 A 
ATOM     11  C   LIG    1       25.141 -23.742   6.019  0.00  0.00    -0.033 A 
ATOM     12  C   LIG    1       26.054 -23.568   7.070  0.00  0.00    +0.005 A 
ATOM     13  C   LIG    1       26.011 -22.424   7.863  0.00  0.00    +0.001 A 
ATOM     14  C   LIG    1       25.052 -21.436   7.616  0.00  0.00    +0.003 A 
ENDBRANCH   7  11
ENDBRANCH   1   7
BRANCH   4  15
ATOM     15  C   LIG    1       25.325 -29.688   6.682  0.00  0.00    +0.117 C 
BRANCH  15  16
ATOM     16  C   LIG    1       25.155 -29.930   8.196  0.00  0.00    -0.026 A 
ATOM     17  C   LIG    1       26.285 -30.037   9.025  0.00  0.00    +0.007 A 
ATOM     18  C   LIG    1       26.143 -30.261  10.399  0.00  0.00    +0.020 A 
ATOM     19  C   LIG    1       24.871 -30.378  10.955  0.00  0.00    +0.041 A 
ATOM     20 CL   LIG    1       24.698 -30.633  12.648  0.00  0.00    -0.084 Cl
ATOM     21  C   LIG    1       23.739 -30.291  10.151  0.00  0.00    +0.020 A 
ATOM     22  C   LIG    1       23.882 -30.085   8.776  0.00  0.00    +0.007 A 
ENDBRANCH  15  16
BRANCH  15  23
ATOM     23  C   LIG    1       25.018 -31.009   5.956  0.00  0.00    -0.026 A 
ATOM     24  C   LIG    1       23.785 -31.655   6.161  0.00  0.00    +0.005 A 
ATOM     25  C   LIG    1       23.480 -32.842   5.490  0.00  0.00    +0.000 A 
ATOM     26  C   LIG    1       24.402 -33.404   4.610  0.00  0.00    +0.000 A 
ATOM     27  C   LIG    1       25.623 -32.772   4.383  0.00  0.00    +0.000 A 
ATOM     28  C   LIG    1       25.923 -31.577   5.040  0.00  0.00    +0.005 A 
ENDBRANCH  15  23
ENDBRANCH   4  15
TORSDOF 5
ENDMDL
MODEL 6
REMARK VINA RESULT:      -7.4      2.587      8.179
REMARK  Name = *****
REMARK                            x       y       z     vdW  Elec       q    Type
REMARK                         _______ _______ _______ _____ _____    ______ ____
ROOT
ATOM      1  N   LIG    1       29.013 -20.263   8.583  0.00  0.00    -0.296 NA
ATOM      2  C   LIG    1       27.899 -19.492   7.999  0.00  0.00    +0.100 C 
ATOM      3  C   LIG    1       27.602 -19.833   6.524  0.00  0.00    +0.100 C 
ATOM      4  N   LIG    1       27.316 -21.264   6.251  0.00  0.00    -0.289 NA
ATOM      5  C   LIG    1       28.363 -22.086   6.908  0.00  0.00    +0.100 C 
ATOM      6  C   LIG    1       28.735 -21.699   8.364  0.00  0.00    +0.100 C 
ENDROOT
BRANCH   1   7
ATOM      7  C   LIG    1       30.328 -19.896   8.018  0.00  0.00    +0.119 C 
BRANCH   7  11
ATOM      8  C   LIG    1       31.217 -17.292  12.255  0.00  0.00    +0.044 C 
ATOM      9  C   LIG    1       31.460 -17.504  10.790  0.00  0.00    -0.050 A 
ATOM     10  C   LIG    1       30.819 -18.550  10.113  0.00  0.00    +0.008 A 
ATOM     11  C   LIG    1       31.020 -18.753   8.738  0.00  0.00    -0.033 A 
ATOM     12  C   LIG    1       31.864 -17.877   8.042  0.00  0.00    +0.005 A 
ATOM     13  C   LIG    1       32.496 -16.826   8.703  0.00  0.00    +0.001 A 
ATOM     14  C   LIG    1       32.292 -16.638  10.073  0.00  0.00    +0.003 A 
ENDBRANCH   7  11
ENDBRANCH   1   7
BRANCH   4  15
ATOM     15  C   LIG    1       25.925 -21.668   6.623  0.00  0.00    +0.117 C 
BRANCH  15  16
ATOM     16  C   LIG    1       24.842 -20.829   5.915  0.00  0.00    -0.026 A 
ATOM     17  C   LIG    1       23.597 -20.618   6.533  0.00  0.00    +0.007 A 
ATOM     18  C   LIG    1       22.604 -19.863   5.898  0.00  0.00    +0.020 A 
ATOM     19  C   LIG    1       22.848 -19.312   4.642  0.00  0.00    +0.041 A 
ATOM     20 CL   LIG    1       21.633 -18.367   3.872  0.00  0.00    -0.084 Cl
ATOM     21  C   LIG    1       24.067 -19.521   4.005  0.00  0.00    +0.020 A 
ATOM     22  C   LIG    1       25.052 -20.290   4.632  0.00  0.00    +0.007 A 
ENDBRANCH  15  16
BRANCH  15  23
ATOM     23  C   LIG    1       25.625 -23.152   6.353  0.00  0.00    -0.026 A 
ATOM     24  C   LIG    1       25.088 -23.547   5.115  0.00  0.00    +0.005 A 
ATOM     25  C   LIG    1       24.832 -24.894   4.843  0.00  0.00    +0.000 A 
ATOM     26  C   LIG    1       25.105 -25.864   5.805  0.00  0.00    +0.000 A 
ATOM     27  C   LIG    1       25.651 -25.494   7.032  0.00  0.00    +0.000 A 
ATOM     28  C   LIG    1       25.922 -24.150   7.299  0.00  0.00    +0.005 A 
ENDBRANCH  15  23
ENDBRANCH   4  15
TORSDOF 5
ENDMDL
MODEL 7
REMARK VINA RESULT:      -7.3      2.245      4.285
REMARK  Name = *****
REMARK                            x       y       z     vdW  Elec       q    Type
REMARK                         _______ _______ _______ _____ _____    ______ ____
ROOT
ATOM      1  N   LIG    1       24.354 -24.138   5.801  0.00  0.00    -0.296 NA
ATOM      2  C   LIG    1       23.345 -23.072   5.951  0.00  0.00    +0.100 C 
ATOM      3  C   LIG    1       23.275 -22.466   7.368  0.00  0.00    +0.100 C 
ATOM      4  N   LIG    1       24.552 -21.917   7.886  0.00  0.00    -0.289 NA
ATOM      5  C   LIG    1       25.621 -22.923   7.663  0.00  0.00    +0.100 C 
ATOM      6  C   LIG    1       25.651 -23.605   6.270  0.00  0.00    +0.100 C 
ENDROOT
BRANCH   1   7
ATOM      7  C   LIG    1       24.002 -25.372   6.535  0.00  0.00    +0.119 C 
BRANCH   7  11
ATOM      8  C   LIG    1       24.234 -30.414   6.301  0.00  0.00    +0.044 C 
ATOM      9  C   LIG    1       24.725 -29.072   5.843  0.00  0.00    -0.050 A 
ATOM     10  C   LIG    1       24.165 -27.899   6.368  0.00  0.00    +0.008 A 
ATOM     11  C   LIG    1       24.623 -26.634   5.967  0.00  0.00    -0.033 A 
ATOM     12  C   LIG    1       25.672 -26.559   5.039  0.00  0.00    +0.005 A 
ATOM     13  C   LIG    1       26.245 -27.718   4.521  0.00  0.00    +0.001 A 
ATOM     14  C   LIG    1       25.775 -28.971   4.925  0.00  0.00    +0.003 A 
ENDBRANCH   7  11
ENDBRANCH   1   7
BRANCH   4  15
ATOM     15  C   LIG    1       24.883 -20.570   7.328  0.00  0.00    +0.117 C 
BRANCH  15  16
ATOM     16  C   LIG    1       26.400 -20.330   7.185  0.00  0.00    -0.026 A 
ATOM     17  C   LIG    1       27.220 -20.296   8.326  0.00  0.00    +0.007 A 
ATOM     18  C   LIG    1       28.596 -20.074   8.208  0.00  0.00    +0.020 A 
ATOM     19  C   LIG    1       29.164 -19.886   6.950  0.00  0.00    +0.041 A 
ATOM     20 CL   LIG    1       30.860 -19.633   6.807  0.00  0.00    -0.084 Cl
ATOM     21  C   LIG    1       28.369 -19.899   5.808  0.00  0.00    +0.020 A 
ATOM     22  C   LIG    1       26.992 -20.103   5.928  0.00  0.00    +0.007 A 
ENDBRANCH  15  16
BRANCH  15  23
ATOM     23  C   LIG    1       24.230 -20.294   5.962  0.00  0.00    -0.026 A 
ATOM     24  C   LIG    1       22.957 -19.700   5.899  0.00  0.00    +0.005 A 
ATOM     25  C   LIG    1       22.360 -19.421   4.667  0.00  0.00    +0.000 A 
ATOM     26  C   LIG    1       23.022 -19.734   3.482  0.00  0.00    +0.000 A 
ATOM     27  C   LIG    1       24.290 -20.310   3.525  0.00  0.00    +0.000 A 
ATOM     28  C   LIG    1       24.895 -20.574   4.755  0.00  0.00    +0.005 A 
ENDBRANCH  15  23
ENDBRANCH   4  15
TORSDOF 5
ENDMDL
MODEL 8
REMARK VINA RESULT:      -6.1      2.265      7.566
REMARK  Name = *****
REMARK                            x       y       z     vdW  Elec       q    Type
REMARK                         _______ _______ _______ _____ _____    ______ ____
ROOT
ATOM      1  N   LIG    1       27.105 -20.247   7.645  0.00  0.00    -0.296 NA
ATOM      2  C   LIG    1       27.337 -21.521   6.938  0.00  0.00    +0.100 C 
ATOM      3  C   LIG    1       26.967 -22.773   7.760  0.00  0.00    +0.100 C 
ATOM      4  N   LIG    1       25.571 -22.812   8.260  0.00  0.00    -0.289 NA
ATOM      5  C   LIG    1       25.261 -21.506   8.894  0.00  0.00    +0.100 C 
ATOM      6  C   LIG    1       25.704 -20.237   8.119  0.00  0.00    +0.100 C 
ENDROOT
BRANCH   1   7
ATOM      7  C   LIG    1       28.038 -20.035   8.772  0.00  0.00    +0.119 C 
BRANCH   7  11
ATOM      8  C   LIG    1       31.693 -16.634   9.546  0.00  0.00    +0.044 C 
ATOM      9  C   LIG    1       31.141 -17.785   8.758  0.00  0.00    -0.050 A 
ATOM     10  C   LIG    1       29.909 -18.354   9.111  0.00  0.00    +0.008 A 
ATOM     11  C   LIG    1       29.367 -19.420   8.375  0.00  0.00    -0.033 A 
ATOM     12  C   LIG    1       30.072 -19.899   7.261  0.00  0.00    +0.005 A 
ATOM     13  C   LIG    1       31.290 -19.332   6.895  0.00  0.00    +0.001 A 
ATOM     14  C   LIG    1       31.821 -18.275   7.639  0.00  0.00    +0.003 A 
ENDBRANCH   7  11
ENDBRANCH   1   7
BRANCH   4  15
ATOM     15  C   LIG    1       24.581 -23.211   7.212  0.00  0.00    +0.117 C 
BRANCH  15  16
ATOM     16  C   LIG    1       24.238 -22.065   6.237  0.00  0.00    -0.026 A 
ATOM     17  C   LIG    1       23.079 -21.295   6.434  0.00  0.00    +0.007 A 
ATOM     18  C   LIG    1       22.755 -20.257   5.553  0.00  0.00    +0.020 A 
ATOM     19  C   LIG    1       23.587 -19.980   4.471  0.00  0.00    +0.041 A 
ATOM     20 CL   LIG    1       23.196 -18.690   3.400  0.00  0.00    -0.084 Cl
ATOM     21  C   LIG    1       24.731 -20.740   4.248  0.00  0.00    +0.020 A 
ATOM     22  C   LIG    1       25.045 -21.788   5.118  0.00  0.00    +0.007 A 
ENDBRANCH  15  16
BRANCH  15  23
ATOM     23  C   LIG    1       25.027 -24.424   6.377  0.00  0.00    -0.026 A 
ATOM     24  C   LIG    1       24.711 -24.491   5.009  0.00  0.00    +0.005 A 
ATOM     25  C   LIG    1       25.129 -25.573   4.231  0.00  0.00    +0.000 A 
ATOM     26  C   LIG    1       25.865 -26.606   4.808  0.00  0.00    +0.000 A 
ATOM     27  C   LIG    1       26.200 -26.550   6.159  0.00  0.00    +0.000 A 
ATOM     28  C   LIG    1       25.797 -25.461   6.934  0.00  0.00    +0.005 A 
ENDBRANCH  15  23
ENDBRANCH   4  15
TORSDOF 5
ENDMDL
MODEL 9
REMARK VINA RESULT:      -6.0      3.485      9.185
REMARK  Name = *****
REMARK                            x       y       z     vdW  Elec       q    Type
REMARK                         _______ _______ _______ _____ _____    ______ ____
ROOT
ATOM      1  N   LIG    1       24.179 -25.567   5.644  0.00  0.00    -0.296 NA
ATOM      2  C   LIG    1       24.295 -26.870   4.963  0.00  0.00    +0.100 C 
ATOM      3  C   LIG    1       25.576 -27.654   5.317  0.00  0.00    +0.100 C 
ATOM      4  N   LIG    1       25.782 -27.911   6.763  0.00  0.00    -0.289 NA
ATOM      5  C   LIG    1       25.576 -26.639   7.501  0.00  0.00    +0.100 C 
ATOM      6  C   LIG    1       24.337 -25.796   7.097  0.00  0.00    +0.100 C 
ENDROOT
BRANCH   1   7
ATOM      7  C   LIG    1       25.164 -24.576   5.163  0.00  0.00    +0.119 C 
BRANCH   7  11
ATOM      8  C   LIG    1       22.927 -20.078   5.704  0.00  0.00    +0.044 C 
ATOM      9  C   LIG    1       23.986 -21.056   6.120  0.00  0.00    -0.050 A 
ATOM     10  C   LIG    1       24.082 -22.303   5.487  0.00  0.00    +0.008 A 
ATOM     11  C   LIG    1       25.077 -23.225   5.849  0.00  0.00    -0.033 A 
ATOM     12  C   LIG    1       25.994 -22.871   6.849  0.00  0.00    +0.005 A 
ATOM     13  C   LIG    1       25.916 -21.629   7.476  0.00  0.00    +0.001 A 
ATOM     14  C   LIG    1       24.916 -20.723   7.110  0.00  0.00    +0.003 A 
ENDBRANCH   7  11
ENDBRANCH   1   7
BRANCH   4  15
ATOM     15  C   LIG    1       24.951 -29.039   7.285  0.00  0.00    +0.117 C 
BRANCH  15  16
ATOM     16  C   LIG    1       24.910 -30.252   6.332  0.00  0.00    -0.026 A 
ATOM     17  C   LIG    1       23.856 -31.178   6.413  0.00  0.00    +0.007 A 
ATOM     18  C   LIG    1       23.812 -32.284   5.558  0.00  0.00    +0.020 A 
ATOM     19  C   LIG    1       24.820 -32.473   4.615  0.00  0.00    +0.041 A 
ATOM     20 CL   LIG    1       24.752 -33.824   3.551  0.00  0.00    -0.084 Cl
ATOM     21  C   LIG    1       25.881 -31.578   4.528  0.00  0.00    +0.020 A 
ATOM     22  C   LIG    1       25.934 -30.482   5.394  0.00  0.00    +0.007 A 
ENDBRANCH  15  16
BRANCH  15  23
ATOM     23  C   LIG    1       25.397 -29.540   8.670  0.00  0.00    -0.026 A 
ATOM     24  C   LIG    1       24.447 -29.731   9.688  0.00  0.00    +0.005 A 
ATOM     25  C   LIG    1       24.831 -30.209  10.944  0.00  0.00    +0.000 A 
ATOM     26  C   LIG    1       26.170 -30.499  11.201  0.00  0.00    +0.000 A 
ATOM     27  C   LIG    1       27.123 -30.330  10.200  0.00  0.00    +0.000 A 
ATOM     28  C   LIG    1       26.738 -29.868   8.939  0.00  0.00    +0.005 A 
ENDBRANCH  15  23
ENDBRANCH   4  15
TORSDOF 5
ENDMDL
