MODEL 1
REMARK VINA RESULT:      -3.8      0.000      0.000
REMARK  Name = *****
REMARK                            x       y       z     vdW  Elec       q    Type
REMARK                         _______ _______ _______ _____ _____    ______ ____
ROOT
ATOM      1  C   LIG    1       27.305 -21.389   7.034  0.00  0.00    +0.042 C 
ATOM      2  C   LIG    1       26.936 -20.379   5.964  0.00  0.00    -0.034 C 
ATOM      3  C   LIG    1       28.124 -19.501   5.606  0.00  0.00    +0.103 C 
ATOM      4  S   LIG    1       27.686 -17.931   4.821  0.00  0.00    -0.131 S 
ATOM      5  C   LIG    1       26.549 -18.726   3.663  0.00  0.00    +0.169 C 
ATOM      6  N   LIG    1       25.483 -19.338   4.434  0.00  0.00    -0.249 N 
ATOM      7  C   LIG    1       24.461 -18.741   3.780  0.00  0.00    +0.244 C 
ATOM      8  O   LIG    1       23.277 -18.930   3.878  0.00  0.00    -0.273 OA
ATOM      9  CA  LIG    1       25.466 -17.814   3.005  0.00  0.00    +0.191 C 
ATOM     10  CA  LIG    1       25.690 -20.267   5.417  0.00  0.00    +0.122 C 
ENDROOT
BRANCH   9  11
ATOM     11  N   LIG    1       25.479 -16.383   3.397  0.00  0.00    -0.300 N 
ATOM     12  H   LIG    1       26.278 -15.790   3.169  0.00  0.00    +0.150 HD
ATOM     13  C   LIG    1       24.369 -15.711   3.869  0.00  0.00    +0.235 C 
ATOM     14  O   LIG    1       23.295 -16.278   4.051  0.00  0.00    -0.274 OA
BRANCH  13  15
ATOM     15  CA  LIG    1       24.596 -14.190   4.122  0.00  0.00    +0.168 C 
BRANCH  15  16
ATOM     16  C   LIG    1       26.053 -13.749   4.121  0.00  0.00    -0.022 A 
ATOM     17  C   LIG    1       26.753 -13.674   2.901  0.00  0.00    +0.006 A 
ATOM     18  C   LIG    1       28.087 -13.252   2.857  0.00  0.00    +0.000 A 
ATOM     19  C   LIG    1       28.750 -12.912   4.031  0.00  0.00    +0.000 A 
ATOM     20  C   LIG    1       28.086 -13.010   5.251  0.00  0.00    +0.000 A 
ATOM     21  C   LIG    1       26.751 -13.432   5.298  0.00  0.00    +0.006 A 
ENDBRANCH  15  16
BRANCH  15  22
ATOM     22  N   LIG    1       23.792 -13.388   3.160  0.00  0.00    -0.316 NA
ATOM     23  H1  LIG    1       24.421 -12.710   2.727  0.00  0.00    +0.119 HD
ATOM     24  H2  LIG    1       23.506 -14.001   2.395  0.00  0.00    +0.119 HD
ENDBRANCH  15  22
ENDBRANCH  13  15
ENDBRANCH   9  11
BRANCH  10  25
ATOM     25  C   LIG    1       24.564 -21.163   5.911  0.00  0.00    +0.351 C 
ATOM     26  O   LIG    1       24.475 -21.572   7.061  0.00  0.00    -0.244 OA
BRANCH  25  27
ATOM     27  OXT LIG    1       23.659 -21.571   5.003  0.00  0.00    -0.476 OA
ATOM     28  HXT LIG    1       23.208 -22.430   5.148  0.00  0.00    +0.295 HD
ENDBRANCH  25  27
ENDBRANCH  10  25
TORSDOF 6
ENDMDL
MODEL 2
REMARK VINA RESULT:      -3.2      2.797      7.341
REMARK  Name = *****
REMARK                            x       y       z     vdW  Elec       q    Type
REMARK                         _______ _______ _______ _____ _____    ______ ____
ROOT
ATOM      1  C   LIG    1       24.497 -12.372   4.161  0.00  0.00    +0.042 C 
ATOM      2  C   LIG    1       24.964 -13.804   3.979  0.00  0.00    -0.034 C 
ATOM      3  C   LIG    1       23.791 -14.734   3.719  0.00  0.00    +0.103 C 
ATOM      4  S   LIG    1       24.125 -16.477   4.071  0.00  0.00    -0.131 S 
ATOM      5  C   LIG    1       25.694 -16.449   3.175  0.00  0.00    +0.169 C 
ATOM      6  N   LIG    1       26.576 -15.514   3.849  0.00  0.00    -0.249 N 
ATOM      7  C   LIG    1       27.608 -16.371   4.016  0.00  0.00    +0.244 C 
ATOM      8  O   LIG    1       28.718 -16.158   4.426  0.00  0.00    -0.273 OA
ATOM      9  CA  LIG    1       26.722 -17.572   3.522  0.00  0.00    +0.191 C 
ATOM     10  CA  LIG    1       26.269 -14.197   4.062  0.00  0.00    +0.122 C 
ENDROOT
BRANCH   9  11
ATOM     11  N   LIG    1       26.306 -18.552   4.556  0.00  0.00    -0.300 N 
ATOM     12  H   LIG    1       25.326 -18.824   4.648  0.00  0.00    +0.150 HD
ATOM     13  C   LIG    1       27.196 -19.315   5.285  0.00  0.00    +0.235 C 
ATOM     14  O   LIG    1       28.411 -19.190   5.164  0.00  0.00    -0.274 OA
BRANCH  13  15
ATOM     15  CA  LIG    1       26.526 -20.347   6.242  0.00  0.00    +0.168 C 
BRANCH  15  16
ATOM     16  C   LIG    1       25.084 -20.699   5.901  0.00  0.00    -0.022 A 
ATOM     17  C   LIG    1       24.201 -21.076   6.931  0.00  0.00    +0.006 A 
ATOM     18  C   LIG    1       22.863 -21.386   6.661  0.00  0.00    +0.000 A 
ATOM     19  C   LIG    1       22.386 -21.338   5.355  0.00  0.00    +0.000 A 
ATOM     20  C   LIG    1       23.252 -20.999   4.318  0.00  0.00    +0.000 A 
ATOM     21  C   LIG    1       24.591 -20.689   4.586  0.00  0.00    +0.006 A 
ENDBRANCH  15  16
BRANCH  15  22
ATOM     22  N   LIG    1       27.367 -21.572   6.341  0.00  0.00    -0.316 NA
ATOM     23  H1  LIG    1       28.269 -21.357   5.915  0.00  0.00    +0.119 HD
ATOM     24  H2  LIG    1       27.578 -21.733   7.327  0.00  0.00    +0.119 HD
ENDBRANCH  15  22
ENDBRANCH  13  15
ENDBRANCH   9  11
BRANCH  10  25
ATOM     25  C   LIG    1       27.346 -13.177   4.397  0.00  0.00    +0.351 C 
ATOM     26  O   LIG    1       28.123 -12.713   3.573  0.00  0.00    -0.244 OA
BRANCH  25  27
ATOM     27  OXT LIG    1       27.481 -12.825   5.689  0.00  0.00    -0.476 OA
ATOM     28  HXT LIG    1       28.207 -12.210   5.931  0.00  0.00    +0.295 HD
ENDBRANCH  25  27
ENDBRANCH  10  25
TORSDOF 6
ENDMDL
MODEL 3
REMARK VINA RESULT:      -3.1      1.735      2.539
REMARK  Name = *****
REMARK                            x       y       z     vdW  Elec       q    Type
REMARK                         _______ _______ _______ _____ _____    ______ ____
ROOT
ATOM      1  C   LIG    1       26.849 -21.571   6.970  0.00  0.00    +0.042 C 
ATOM      2  C   LIG    1       26.644 -20.456   5.961  0.00  0.00    -0.034 C 
ATOM      3  C   LIG    1       27.938 -19.702   5.707  0.00  0.00    +0.103 C 
ATOM      4  S   LIG    1       27.715 -18.043   5.019  0.00  0.00    -0.131 S 
ATOM      5  C   LIG    1       26.546 -18.622   3.769  0.00  0.00    +0.169 C 
ATOM      6  N   LIG    1       25.385 -19.155   4.458  0.00  0.00    -0.249 N 
ATOM      7  C   LIG    1       24.466 -18.402   3.812  0.00  0.00    +0.244 C 
ATOM      8  O   LIG    1       23.265 -18.457   3.857  0.00  0.00    -0.273 OA
ATOM      9  CA  LIG    1       25.602 -17.550   3.139  0.00  0.00    +0.191 C 
ATOM     10  CA  LIG    1       25.443 -20.165   5.381  0.00  0.00    +0.122 C 
ENDROOT
BRANCH   9  11
ATOM     11  N   LIG    1       25.761 -16.159   3.631  0.00  0.00    -0.300 N 
ATOM     12  H   LIG    1       25.168 -15.803   4.382  0.00  0.00    +0.150 HD
ATOM     13  C   LIG    1       26.827 -15.348   3.294  0.00  0.00    +0.235 C 
ATOM     14  O   LIG    1       27.697 -15.712   2.507  0.00  0.00    -0.274 OA
BRANCH  13  15
ATOM     15  CA  LIG    1       26.834 -13.963   4.008  0.00  0.00    +0.168 C 
BRANCH  15  16
ATOM     16  C   LIG    1       25.615 -13.092   3.735  0.00  0.00    -0.022 A 
ATOM     17  C   LIG    1       24.868 -12.587   4.817  0.00  0.00    +0.006 A 
ATOM     18  C   LIG    1       23.754 -11.766   4.608  0.00  0.00    +0.000 A 
ATOM     19  C   LIG    1       23.357 -11.447   3.314  0.00  0.00    +0.000 A 
ATOM     20  C   LIG    1       24.062 -11.963   2.230  0.00  0.00    +0.000 A 
ATOM     21  C   LIG    1       25.177 -12.785   2.436  0.00  0.00    +0.006 A 
ENDBRANCH  15  16
BRANCH  15  22
ATOM     22  N   LIG    1       27.046 -14.145   5.470  0.00  0.00    -0.316 NA
ATOM     23  H1  LIG    1       26.807 -13.263   5.926  0.00  0.00    +0.119 HD
ATOM     24  H2  LIG    1       26.352 -14.810   5.812  0.00  0.00    +0.119 HD
ENDBRANCH  15  22
ENDBRANCH  13  15
ENDBRANCH   9  11
BRANCH  10  25
ATOM     25  C   LIG    1       24.202 -20.953   5.772  0.00  0.00    +0.351 C 
ATOM     26  O   LIG    1       23.879 -21.182   6.930  0.00  0.00    -0.244 OA
BRANCH  25  27
ATOM     27  OXT LIG    1       23.466 -21.477   4.774  0.00  0.00    -0.476 OA
ATOM     28  HXT LIG    1       22.598 -21.877   4.997  0.00  0.00    +0.295 HD
ENDBRANCH  25  27
ENDBRANCH  10  25
TORSDOF 6
ENDMDL
MODEL 4
REMARK VINA RESULT:      -2.5      2.935      7.247
REMARK  Name = *****
REMARK                            x       y       z     vdW  Elec       q    Type
REMARK                         _______ _______ _______ _____ _____    ______ ____
ROOT
ATOM      1  C   LIG    1       25.215 -11.740   4.763  0.00  0.00    +0.042 C 
ATOM      2  C   LIG    1       25.294 -13.197   4.348  0.00  0.00    -0.034 C 
ATOM      3  C   LIG    1       23.912 -13.759   4.056  0.00  0.00    +0.103 C 
ATOM      4  S   LIG    1       23.806 -15.564   4.136  0.00  0.00    -0.131 S 
ATOM      5  C   LIG    1       25.291 -15.784   3.130  0.00  0.00    +0.169 C 
ATOM      6  N   LIG    1       26.409 -15.209   3.855  0.00  0.00    -0.249 N 
ATOM      7  C   LIG    1       27.195 -16.309   3.819  0.00  0.00    +0.244 C 
ATOM      8  O   LIG    1       28.339 -16.441   4.164  0.00  0.00    -0.273 OA
ATOM      9  CA  LIG    1       26.013 -17.164   3.236  0.00  0.00    +0.191 C 
ATOM     10  CA  LIG    1       26.457 -13.906   4.272  0.00  0.00    +0.122 C 
ENDROOT
BRANCH   9  11
ATOM     11  N   LIG    1       25.405 -18.160   4.154  0.00  0.00    -0.300 N 
ATOM     12  H   LIG    1       24.397 -18.165   4.319  0.00  0.00    +0.150 HD
ATOM     13  C   LIG    1       26.084 -19.254   4.651  0.00  0.00    +0.235 C 
ATOM     14  O   LIG    1       27.272 -19.447   4.408  0.00  0.00    -0.274 OA
BRANCH  13  15
ATOM     15  CA  LIG    1       25.213 -20.215   5.515  0.00  0.00    +0.168 C 
BRANCH  15  16
ATOM     16  C   LIG    1       23.746 -20.287   5.116  0.00  0.00    -0.022 A 
ATOM     17  C   LIG    1       23.100 -19.130   4.638  0.00  0.00    +0.006 A 
ATOM     18  C   LIG    1       21.759 -19.161   4.241  0.00  0.00    +0.000 A 
ATOM     19  C   LIG    1       21.033 -20.344   4.327  0.00  0.00    +0.000 A 
ATOM     20  C   LIG    1       21.644 -21.492   4.828  0.00  0.00    +0.000 A 
ATOM     21  C   LIG    1       22.986 -21.463   5.226  0.00  0.00    +0.006 A 
ENDBRANCH  15  16
BRANCH  15  22
ATOM     22  N   LIG    1       25.828 -21.570   5.547  0.00  0.00    -0.316 NA
ATOM     23  H1  LIG    1       25.075 -22.243   5.695  0.00  0.00    +0.119 HD
ATOM     24  H2  LIG    1       26.183 -21.780   4.613  0.00  0.00    +0.119 HD
ENDBRANCH  15  22
ENDBRANCH  13  15
ENDBRANCH   9  11
BRANCH  10  25
ATOM     25  C   LIG    1       27.773 -13.246   4.658  0.00  0.00    +0.351 C 
ATOM     26  O   LIG    1       28.705 -13.082   3.882  0.00  0.00    -0.244 OA
BRANCH  25  27
ATOM     27  OXT LIG    1       27.927 -12.888   5.946  0.00  0.00    -0.476 OA
ATOM     28  HXT LIG    1       27.215 -13.116   6.581  0.00  0.00    +0.295 HD
ENDBRANCH  25  27
ENDBRANCH  10  25
TORSDOF 6
ENDMDL
MODEL 5
REMARK VINA RESULT:      -1.0      1.895      2.711
REMARK  Name = *****
REMARK                            x       y       z     vdW  Elec       q    Type
REMARK                         _______ _______ _______ _____ _____    ______ ____
ROOT
ATOM      1  C   LIG    1       26.293 -21.572   7.059  0.00  0.00    +0.042 C 
ATOM      2  C   LIG    1       26.628 -20.432   6.115  0.00  0.00    -0.034 C 
ATOM      3  C   LIG    1       27.949 -19.781   6.492  0.00  0.00    +0.103 C 
ATOM      4  S   LIG    1       28.164 -18.101   5.854  0.00  0.00    -0.131 S 
ATOM      5  C   LIG    1       27.631 -18.569   4.191  0.00  0.00    +0.169 C 
ATOM      6  N   LIG    1       26.253 -19.015   4.275  0.00  0.00    -0.249 N 
ATOM      7  C   LIG    1       25.766 -18.183   3.326  0.00  0.00    +0.244 C 
ATOM      8  O   LIG    1       24.669 -18.142   2.836  0.00  0.00    -0.273 OA
ATOM      9  CA  LIG    1       27.137 -17.417   3.262  0.00  0.00    +0.191 C 
ATOM     10  CA  LIG    1       25.831 -20.038   5.081  0.00  0.00    +0.122 C 
ENDROOT
BRANCH   9  11
ATOM     11  N   LIG    1       27.155 -16.049   3.838  0.00  0.00    -0.300 N 
ATOM     12  H   LIG    1       27.539 -15.883   4.769  0.00  0.00    +0.150 HD
ATOM     13  C   LIG    1       26.884 -14.910   3.106  0.00  0.00    +0.235 C 
ATOM     14  O   LIG    1       26.549 -14.959   1.926  0.00  0.00    -0.274 OA
BRANCH  13  15
ATOM     15  CA  LIG    1       27.061 -13.579   3.897  0.00  0.00    +0.168 C 
BRANCH  15  16
ATOM     16  C   LIG    1       25.766 -12.845   4.218  0.00  0.00    -0.022 A 
ATOM     17  C   LIG    1       25.547 -12.364   5.524  0.00  0.00    +0.006 A 
ATOM     18  C   LIG    1       24.379 -11.667   5.853  0.00  0.00    +0.000 A 
ATOM     19  C   LIG    1       23.402 -11.448   4.887  0.00  0.00    +0.000 A 
ATOM     20  C   LIG    1       23.585 -11.943   3.598  0.00  0.00    +0.000 A 
ATOM     21  C   LIG    1       24.752 -12.642   3.267  0.00  0.00    +0.006 A 
ENDBRANCH  15  16
BRANCH  15  22
ATOM     22  N   LIG    1       27.859 -13.820   5.130  0.00  0.00    -0.316 NA
ATOM     23  H1  LIG    1       27.723 -14.797   5.395  0.00  0.00    +0.119 HD
ATOM     24  H2  LIG    1       28.848 -13.754   4.886  0.00  0.00    +0.119 HD
ENDBRANCH  15  22
ENDBRANCH  13  15
ENDBRANCH   9  11
BRANCH  10  25
ATOM     25  C   LIG    1       24.495 -20.729   4.849  0.00  0.00    +0.351 C 
ATOM     26  O   LIG    1       23.680 -20.948   5.735  0.00  0.00    -0.244 OA
BRANCH  25  27
ATOM     27  OXT LIG    1       24.241 -21.176   3.605  0.00  0.00    -0.476 OA
ATOM     28  HXT LIG    1       23.305 -21.253   3.321  0.00  0.00    +0.295 HD
ENDBRANCH  25  27
ENDBRANCH  10  25
TORSDOF 6
ENDMDL
