MODEL 1
REMARK VINA RESULT:      -5.0      0.000      0.000
REMARK  Name = *****
REMARK                            x       y       z     vdW  Elec       q    Type
REMARK                         _______ _______ _______ _____ _____    ______ ____
ROOT
ATOM      1  C   LIG    1       26.654 -17.509   3.667  0.00  0.00    +0.342 C 
ATOM      2  O   LIG    1       25.712 -18.090   3.145  0.00  0.00    -0.245 OA
ENDROOT
BRANCH   1   3
ATOM      3  C   LIG    1       27.595 -18.168   4.566  0.00  0.00    +0.084 C 
ATOM      4  C   LIG    1       27.367 -19.347   5.357  0.00  0.00    +0.014 C 
ATOM      5  C   LIG    1       28.550 -19.630   6.043  0.00  0.00    +0.047 C 
ATOM      6  C   LIG    1       28.687 -20.730   6.901  0.00  0.00    +0.026 C 
ATOM      7  C   LIG    1       27.584 -21.572   7.062  0.00  0.00    +0.002 C 
ATOM      8  C   LIG    1       26.389 -21.319   6.396  0.00  0.00    +0.001 C 
ATOM      9  N   LIG    1       29.460 -18.659   5.698  0.00  0.00    -0.360 NA
ATOM     10  H   LIG    1       30.408 -18.614   6.049  0.00  0.00    +0.165 HD
ATOM     11  C   LIG    1       26.267 -20.214   5.545  0.00  0.00    +0.011 C 
ATOM     12  C   LIG    1       28.902 -17.780   4.811  0.00  0.00    +0.098 C 
ENDBRANCH   1   3
BRANCH   1  13
ATOM     13  O   LIG    1       26.960 -16.187   3.442  0.00  0.00    -0.458 OA
BRANCH  13  18
ATOM     14  C   LIG    1       24.068 -12.375   2.843  0.00  0.00    +0.105 C 
ATOM     15  N   LIG    1       25.238 -12.576   3.673  0.00  0.00    -0.299 NA
ATOM     16  C   LIG    1       26.488 -12.879   2.976  0.00  0.00    +0.060 C 
ATOM     17  C   LIG    1       26.412 -14.180   2.161  0.00  0.00    +0.063 C 
ATOM     18  C   LIG    1       25.864 -15.387   2.942  0.00  0.00    +0.180 C 
ATOM     19  C   LIG    1       24.929 -15.020   4.107  0.00  0.00    +0.063 C 
ATOM     20  C   LIG    1       27.434 -13.004   4.176  0.00  0.00    +0.020 C 
ATOM     21  C   LIG    1       26.536 -13.469   5.327  0.00  0.00    +0.020 C 
ATOM     22  C   LIG    1       25.151 -13.618   4.696  0.00  0.00    +0.060 C 
ENDBRANCH  13  18
ENDBRANCH   1  13
TORSDOF 3
ENDMDL
MODEL 2
REMARK VINA RESULT:      -5.0      2.652      3.814
REMARK  Name = *****
REMARK                            x       y       z     vdW  Elec       q    Type
REMARK                         _______ _______ _______ _____ _____    ______ ____
ROOT
ATOM      1  C   LIG    1       25.441 -17.437   3.316  0.00  0.00    +0.342 C 
ATOM      2  O   LIG    1       26.396 -18.144   3.026  0.00  0.00    -0.245 OA
ENDROOT
BRANCH   1   3
ATOM      3  C   LIG    1       24.184 -17.970   3.831  0.00  0.00    +0.084 C 
ATOM      4  C   LIG    1       23.954 -19.274   4.392  0.00  0.00    +0.014 C 
ATOM      5  C   LIG    1       22.612 -19.337   4.773  0.00  0.00    +0.047 C 
ATOM      6  C   LIG    1       22.046 -20.470   5.375  0.00  0.00    +0.026 C 
ATOM      7  C   LIG    1       22.875 -21.572   5.599  0.00  0.00    +0.002 C 
ATOM      8  C   LIG    1       24.216 -21.544   5.231  0.00  0.00    +0.001 C 
ATOM      9  N   LIG    1       22.041 -18.130   4.448  0.00  0.00    -0.360 NA
ATOM     10  H   LIG    1       21.071 -17.895   4.611  0.00  0.00    +0.165 HD
ATOM     11  C   LIG    1       24.766 -20.406   4.627  0.00  0.00    +0.011 C 
ATOM     12  C   LIG    1       22.973 -17.301   3.887  0.00  0.00    +0.098 C 
ENDBRANCH   1   3
BRANCH   1  13
ATOM     13  O   LIG    1       25.449 -16.064   3.232  0.00  0.00    -0.458 OA
BRANCH  13  18
ATOM     14  C   LIG    1       28.914 -12.748   3.736  0.00  0.00    +0.105 C 
ATOM     15  N   LIG    1       27.493 -12.706   4.012  0.00  0.00    -0.299 NA
ATOM     16  C   LIG    1       26.994 -13.649   5.012  0.00  0.00    +0.060 C 
ATOM     17  C   LIG    1       27.228 -15.115   4.613  0.00  0.00    +0.063 C 
ATOM     18  C   LIG    1       26.766 -15.466   3.188  0.00  0.00    +0.180 C 
ATOM     19  C   LIG    1       26.754 -14.278   2.212  0.00  0.00    +0.063 C 
ATOM     20  C   LIG    1       25.506 -13.279   5.003  0.00  0.00    +0.020 C 
ATOM     21  C   LIG    1       25.248 -12.755   3.587  0.00  0.00    +0.020 C 
ATOM     22  C   LIG    1       26.594 -12.900   2.874  0.00  0.00    +0.060 C 
ENDBRANCH  13  18
ENDBRANCH   1  13
TORSDOF 3
ENDMDL
MODEL 3
REMARK VINA RESULT:      -4.9      1.683      2.249
REMARK  Name = *****
REMARK                            x       y       z     vdW  Elec       q    Type
REMARK                         _______ _______ _______ _____ _____    ______ ____
ROOT
ATOM      1  C   LIG    1       25.969 -18.134   3.390  0.00  0.00    +0.342 C 
ATOM      2  O   LIG    1       25.773 -18.427   2.218  0.00  0.00    -0.245 OA
ENDROOT
BRANCH   1   3
ATOM      3  C   LIG    1       26.001 -19.123   4.462  0.00  0.00    +0.084 C 
ATOM      4  C   LIG    1       24.886 -19.833   5.028  0.00  0.00    +0.014 C 
ATOM      5  C   LIG    1       25.387 -20.692   6.008  0.00  0.00    +0.047 C 
ATOM      6  C   LIG    1       24.571 -21.551   6.756  0.00  0.00    +0.026 C 
ATOM      7  C   LIG    1       23.198 -21.537   6.494  0.00  0.00    +0.002 C 
ATOM      8  C   LIG    1       22.663 -20.692   5.527  0.00  0.00    +0.001 C 
ATOM      9  N   LIG    1       26.749 -20.508   6.049  0.00  0.00    -0.360 NA
ATOM     10  H   LIG    1       27.373 -21.004   6.673  0.00  0.00    +0.165 HD
ATOM     11  C   LIG    1       23.493 -19.837   4.791  0.00  0.00    +0.011 C 
ATOM     12  C   LIG    1       27.129 -19.575   5.126  0.00  0.00    +0.098 C 
ENDBRANCH   1   3
BRANCH   1  13
ATOM     13  O   LIG    1       26.220 -16.856   3.829  0.00  0.00    -0.458 OA
BRANCH  13  18
ATOM     14  C   LIG    1       24.824 -12.430   2.518  0.00  0.00    +0.105 C 
ATOM     15  N   LIG    1       25.766 -12.885   3.519  0.00  0.00    -0.299 NA
ATOM     16  C   LIG    1       26.915 -13.651   3.034  0.00  0.00    +0.060 C 
ATOM     17  C   LIG    1       26.504 -14.950   2.325  0.00  0.00    +0.063 C 
ATOM     18  C   LIG    1       25.509 -15.818   3.115  0.00  0.00    +0.180 C 
ATOM     19  C   LIG    1       24.625 -15.035   4.101  0.00  0.00    +0.063 C 
ATOM     20  C   LIG    1       27.631 -13.919   4.363  0.00  0.00    +0.020 C 
ATOM     21  C   LIG    1       26.511 -13.933   5.408  0.00  0.00    +0.020 C 
ATOM     22  C   LIG    1       25.231 -13.713   4.601  0.00  0.00    +0.060 C 
ENDBRANCH  13  18
ENDBRANCH   1  13
TORSDOF 3
ENDMDL
MODEL 4
REMARK VINA RESULT:      -4.5      2.344      3.413
REMARK  Name = *****
REMARK                            x       y       z     vdW  Elec       q    Type
REMARK                         _______ _______ _______ _____ _____    ______ ____
ROOT
ATOM      1  C   LIG    1       26.093 -16.978   3.417  0.00  0.00    +0.342 C 
ATOM      2  O   LIG    1       27.262 -16.622   3.366  0.00  0.00    -0.245 OA
ENDROOT
BRANCH   1   3
ATOM      3  C   LIG    1       25.687 -18.318   3.829  0.00  0.00    +0.084 C 
ATOM      4  C   LIG    1       24.352 -18.783   4.092  0.00  0.00    +0.014 C 
ATOM      5  C   LIG    1       24.436 -20.134   4.433  0.00  0.00    +0.047 C 
ATOM      6  C   LIG    1       23.312 -20.913   4.739  0.00  0.00    +0.026 C 
ATOM      7  C   LIG    1       22.059 -20.295   4.691  0.00  0.00    +0.002 C 
ATOM      8  C   LIG    1       21.938 -18.949   4.358  0.00  0.00    +0.001 C 
ATOM      9  N   LIG    1       25.767 -20.479   4.393  0.00  0.00    -0.360 NA
ATOM     10  H   LIG    1       26.122 -21.404   4.599  0.00  0.00    +0.165 HD
ATOM     11  C   LIG    1       23.072 -18.185   4.059  0.00  0.00    +0.011 C 
ATOM     12  C   LIG    1       26.525 -19.402   4.029  0.00  0.00    +0.098 C 
ENDBRANCH   1   3
BRANCH   1  13
ATOM     13  O   LIG    1       25.028 -16.157   3.133  0.00  0.00    -0.458 OA
BRANCH  13  18
ATOM     14  C   LIG    1       24.320 -11.881   5.247  0.00  0.00    +0.105 C 
ATOM     15  N   LIG    1       24.726 -12.235   3.903  0.00  0.00    -0.299 NA
ATOM     16  C   LIG    1       23.774 -13.024   3.120  0.00  0.00    +0.060 C 
ATOM     17  C   LIG    1       23.465 -14.386   3.761  0.00  0.00    +0.063 C 
ATOM     18  C   LIG    1       24.710 -15.194   4.165  0.00  0.00    +0.180 C 
ATOM     19  C   LIG    1       25.954 -14.340   4.465  0.00  0.00    +0.063 C 
ATOM     20  C   LIG    1       24.563 -13.166   1.814  0.00  0.00    +0.020 C 
ATOM     21  C   LIG    1       26.033 -13.104   2.242  0.00  0.00    +0.020 C 
ATOM     22  C   LIG    1       25.982 -12.972   3.765  0.00  0.00    +0.060 C 
ENDBRANCH  13  18
ENDBRANCH   1  13
TORSDOF 3
ENDMDL
MODEL 5
REMARK VINA RESULT:      -4.3      1.792      2.742
REMARK  Name = *****
REMARK                            x       y       z     vdW  Elec       q    Type
REMARK                         _______ _______ _______ _____ _____    ______ ____
ROOT
ATOM      1  C   LIG    1       26.457 -17.054   3.465  0.00  0.00    +0.342 C 
ATOM      2  O   LIG    1       27.664 -16.935   3.622  0.00  0.00    -0.245 OA
ENDROOT
BRANCH   1   3
ATOM      3  C   LIG    1       25.736 -18.292   3.743  0.00  0.00    +0.084 C 
ATOM      4  C   LIG    1       26.085 -19.308   4.699  0.00  0.00    +0.014 C 
ATOM      5  C   LIG    1       25.100 -20.297   4.640  0.00  0.00    +0.047 C 
ATOM      6  C   LIG    1       25.118 -21.437   5.455  0.00  0.00    +0.026 C 
ATOM      7  C   LIG    1       26.172 -21.572   6.364  0.00  0.00    +0.002 C 
ATOM      8  C   LIG    1       27.171 -20.607   6.448  0.00  0.00    +0.001 C 
ATOM      9  N   LIG    1       24.195 -19.910   3.681  0.00  0.00    -0.360 NA
ATOM     10  H   LIG    1       23.373 -20.442   3.424  0.00  0.00    +0.165 HD
ATOM     11  C   LIG    1       27.140 -19.476   5.623  0.00  0.00    +0.011 C 
ATOM     12  C   LIG    1       24.563 -18.710   3.139  0.00  0.00    +0.098 C 
ENDBRANCH   1   3
BRANCH   1  13
ATOM     13  O   LIG    1       25.634 -16.034   3.049  0.00  0.00    -0.458 OA
BRANCH  13  18
ATOM     14  C   LIG    1       24.167 -12.019   5.281  0.00  0.00    +0.105 C 
ATOM     15  N   LIG    1       24.630 -12.255   3.929  0.00  0.00    -0.299 NA
ATOM     16  C   LIG    1       23.835 -13.180   3.119  0.00  0.00    +0.060 C 
ATOM     17  C   LIG    1       23.778 -14.593   3.720  0.00  0.00    +0.063 C 
ATOM     18  C   LIG    1       25.148 -15.175   4.107  0.00  0.00    +0.180 C 
ATOM     19  C   LIG    1       26.218 -14.120   4.437  0.00  0.00    +0.063 C 
ATOM     20  C   LIG    1       24.636 -13.140   1.813  0.00  0.00    +0.020 C 
ATOM     21  C   LIG    1       26.071 -12.826   2.250  0.00  0.00    +0.020 C 
ATOM     22  C   LIG    1       25.998 -12.750   3.776  0.00  0.00    +0.060 C 
ENDBRANCH  13  18
ENDBRANCH   1  13
TORSDOF 3
ENDMDL
MODEL 6
REMARK VINA RESULT:      -3.7      0.855      1.634
REMARK  Name = *****
REMARK                            x       y       z     vdW  Elec       q    Type
REMARK                         _______ _______ _______ _____ _____    ______ ____
ROOT
ATOM      1  C   LIG    1       26.222 -17.575   3.618  0.00  0.00    +0.342 C 
ATOM      2  O   LIG    1       25.339 -18.336   3.247  0.00  0.00    -0.245 OA
ENDROOT
BRANCH   1   3
ATOM      3  C   LIG    1       27.360 -18.008   4.421  0.00  0.00    +0.084 C 
ATOM      4  C   LIG    1       27.429 -19.152   5.290  0.00  0.00    +0.014 C 
ATOM      5  C   LIG    1       28.715 -19.190   5.834  0.00  0.00    +0.047 C 
ATOM      6  C   LIG    1       29.137 -20.191   6.719  0.00  0.00    +0.026 C 
ATOM      7  C   LIG    1       28.219 -21.189   7.059  0.00  0.00    +0.002 C 
ATOM      8  C   LIG    1       26.929 -21.181   6.539  0.00  0.00    +0.001 C 
ATOM      9  N   LIG    1       29.400 -18.110   5.330  0.00  0.00    -0.360 NA
ATOM     10  H   LIG    1       30.361 -17.887   5.556  0.00  0.00    +0.165 HD
ATOM     11  C   LIG    1       26.523 -20.171   5.658  0.00  0.00    +0.011 C 
ATOM     12  C   LIG    1       28.601 -17.397   4.480  0.00  0.00    +0.098 C 
ENDBRANCH   1   3
BRANCH   1  13
ATOM     13  O   LIG    1       26.269 -16.239   3.295  0.00  0.00    -0.458 OA
BRANCH  13  18
ATOM     14  C   LIG    1       24.308 -12.269   5.205  0.00  0.00    +0.105 C 
ATOM     15  N   LIG    1       24.740 -12.577   3.857  0.00  0.00    -0.299 NA
ATOM     16  C   LIG    1       24.061 -13.689   3.192  0.00  0.00    +0.060 C 
ATOM     17  C   LIG    1       24.246 -15.023   3.931  0.00  0.00    +0.063 C 
ATOM     18  C   LIG    1       25.706 -15.353   4.290  0.00  0.00    +0.180 C 
ATOM     19  C   LIG    1       26.615 -14.123   4.450  0.00  0.00    +0.063 C 
ATOM     20  C   LIG    1       24.787 -13.671   1.842  0.00  0.00    +0.020 C 
ATOM     21  C   LIG    1       26.175 -13.105   2.159  0.00  0.00    +0.020 C 
ATOM     22  C   LIG    1       26.160 -12.878   3.672  0.00  0.00    +0.060 C 
ENDBRANCH  13  18
ENDBRANCH   1  13
TORSDOF 3
ENDMDL
MODEL 7
REMARK VINA RESULT:      -3.6      1.767      2.743
REMARK  Name = *****
REMARK                            x       y       z     vdW  Elec       q    Type
REMARK                         _______ _______ _______ _____ _____    ______ ____
ROOT
ATOM      1  C   LIG    1       25.722 -18.013   3.184  0.00  0.00    +0.342 C 
ATOM      2  O   LIG    1       26.088 -18.285   2.049  0.00  0.00    -0.245 OA
ENDROOT
BRANCH   1   3
ATOM      3  C   LIG    1       25.325 -19.027   4.156  0.00  0.00    +0.084 C 
ATOM      4  C   LIG    1       26.176 -19.746   5.064  0.00  0.00    +0.014 C 
ATOM      5  C   LIG    1       25.365 -20.595   5.820  0.00  0.00    +0.047 C 
ATOM      6  C   LIG    1       25.869 -21.436   6.821  0.00  0.00    +0.026 C 
ATOM      7  C   LIG    1       27.246 -21.410   7.062  0.00  0.00    +0.002 C 
ATOM      8  C   LIG    1       28.084 -20.578   6.327  0.00  0.00    +0.001 C 
ATOM      9  N   LIG    1       24.073 -20.413   5.385  0.00  0.00    -0.360 NA
ATOM     10  H   LIG    1       23.271 -20.904   5.758  0.00  0.00    +0.165 HD
ATOM     11  C   LIG    1       27.564 -19.746   5.328  0.00  0.00    +0.011 C 
ATOM     12  C   LIG    1       24.036 -19.475   4.392  0.00  0.00    +0.098 C 
ENDBRANCH   1   3
BRANCH   1  13
ATOM     13  O   LIG    1       25.677 -16.736   3.691  0.00  0.00    -0.458 OA
BRANCH  13  18
ATOM     14  C   LIG    1       28.528 -12.855   3.416  0.00  0.00    +0.105 C 
ATOM     15  N   LIG    1       27.148 -13.010   3.830  0.00  0.00    -0.299 NA
ATOM     16  C   LIG    1       26.906 -13.872   4.987  0.00  0.00    +0.060 C 
ATOM     17  C   LIG    1       27.364 -15.320   4.752  0.00  0.00    +0.063 C 
ATOM     18  C   LIG    1       26.859 -15.941   3.437  0.00  0.00    +0.180 C 
ATOM     19  C   LIG    1       26.558 -14.920   2.327  0.00  0.00    +0.063 C 
ATOM     20  C   LIG    1       25.381 -13.758   5.085  0.00  0.00    +0.020 C 
ATOM     21  C   LIG    1       24.921 -13.488   3.649  0.00  0.00    +0.020 C 
ATOM     22  C   LIG    1       26.209 -13.508   2.824  0.00  0.00    +0.060 C 
ENDBRANCH  13  18
ENDBRANCH   1  13
TORSDOF 3
ENDMDL
MODEL 8
REMARK VINA RESULT:      -3.4      2.405      3.373
REMARK  Name = *****
REMARK                            x       y       z     vdW  Elec       q    Type
REMARK                         _______ _______ _______ _____ _____    ______ ____
ROOT
ATOM      1  C   LIG    1       24.567 -16.715   3.587  0.00  0.00    +0.342 C 
ATOM      2  O   LIG    1       23.573 -16.186   4.066  0.00  0.00    -0.245 OA
ENDROOT
BRANCH   1   3
ATOM      3  C   LIG    1       24.888 -18.125   3.779  0.00  0.00    +0.084 C 
ATOM      4  C   LIG    1       24.026 -19.154   4.294  0.00  0.00    +0.014 C 
ATOM      5  C   LIG    1       24.743 -20.352   4.278  0.00  0.00    +0.047 C 
ATOM      6  C   LIG    1       24.197 -21.571   4.702  0.00  0.00    +0.026 C 
ATOM      7  C   LIG    1       22.874 -21.571   5.153  0.00  0.00    +0.002 C 
ATOM      8  C   LIG    1       22.130 -20.395   5.185  0.00  0.00    +0.001 C 
ATOM      9  N   LIG    1       25.995 -20.067   3.786  0.00  0.00    -0.360 NA
ATOM     10  H   LIG    1       26.730 -20.752   3.665  0.00  0.00    +0.165 HD
ATOM     11  C   LIG    1       22.693 -19.185   4.762  0.00  0.00    +0.011 C 
ATOM     12  C   LIG    1       26.093 -18.739   3.480  0.00  0.00    +0.098 C 
ENDBRANCH   1   3
BRANCH   1  13
ATOM     13  O   LIG    1       25.473 -16.061   2.786  0.00  0.00    -0.458 OA
BRANCH  13  18
ATOM     14  C   LIG    1       28.110 -12.588   4.846  0.00  0.00    +0.105 C 
ATOM     15  N   LIG    1       26.843 -12.548   4.147  0.00  0.00    -0.299 NA
ATOM     16  C   LIG    1       25.748 -13.319   4.735  0.00  0.00    +0.060 C 
ATOM     17  C   LIG    1       26.057 -14.823   4.811  0.00  0.00    +0.063 C 
ATOM     18  C   LIG    1       26.568 -15.434   3.495  0.00  0.00    +0.180 C 
ATOM     19  C   LIG    1       27.273 -14.435   2.562  0.00  0.00    +0.063 C 
ATOM     20  C   LIG    1       24.636 -13.009   3.726  0.00  0.00    +0.020 C 
ATOM     21  C   LIG    1       25.373 -12.749   2.408  0.00  0.00    +0.020 C 
ATOM     22  C   LIG    1       26.849 -12.969   2.745  0.00  0.00    +0.060 C 
ENDBRANCH  13  18
ENDBRANCH   1  13
TORSDOF 3
ENDMDL
MODEL 9
REMARK VINA RESULT:      -3.3      3.065      6.948
REMARK  Name = *****
REMARK                            x       y       z     vdW  Elec       q    Type
REMARK                         _______ _______ _______ _____ _____    ______ ____
ROOT
ATOM      1  C   LIG    1       23.089 -15.883   4.660  0.00  0.00    +0.342 C 
ATOM      2  O   LIG    1       22.257 -15.710   5.539  0.00  0.00    -0.245 OA
ENDROOT
BRANCH   1   3
ATOM      3  C   LIG    1       23.755 -14.784   3.969  0.00  0.00    +0.084 C 
ATOM      4  C   LIG    1       25.170 -14.589   3.800  0.00  0.00    +0.014 C 
ATOM      5  C   LIG    1       25.348 -13.420   3.055  0.00  0.00    +0.047 C 
ATOM      6  C   LIG    1       26.612 -12.937   2.691  0.00  0.00    +0.026 C 
ATOM      7  C   LIG    1       27.731 -13.670   3.095  0.00  0.00    +0.002 C 
ATOM      8  C   LIG    1       27.591 -14.836   3.839  0.00  0.00    +0.001 C 
ATOM      9  N   LIG    1       24.097 -12.915   2.791  0.00  0.00    -0.360 NA
ATOM     10  H   LIG    1       23.924 -12.068   2.265  0.00  0.00    +0.165 HD
ATOM     11  C   LIG    1       26.321 -15.304   4.198  0.00  0.00    +0.011 C 
ATOM     12  C   LIG    1       23.136 -13.724   3.329  0.00  0.00    +0.098 C 
ENDBRANCH   1   3
BRANCH   1  13
ATOM     13  O   LIG    1       23.524 -17.120   4.247  0.00  0.00    -0.458 OA
BRANCH  13  18
ATOM     14  C   LIG    1       21.725 -21.571   4.709  0.00  0.00    +0.105 C 
ATOM     15  N   LIG    1       23.088 -21.086   4.634  0.00  0.00    -0.299 NA
ATOM     16  C   LIG    1       23.515 -20.170   5.692  0.00  0.00    +0.060 C 
ATOM     17  C   LIG    1       22.685 -18.876   5.725  0.00  0.00    +0.063 C 
ATOM     18  C   LIG    1       22.543 -18.177   4.362  0.00  0.00    +0.180 C 
ATOM     19  C   LIG    1       22.662 -19.117   3.150  0.00  0.00    +0.063 C 
ATOM     20  C   LIG    1       24.961 -19.917   5.252  0.00  0.00    +0.020 C 
ATOM     21  C   LIG    1       24.939 -20.096   3.731  0.00  0.00    +0.020 C 
ATOM     22  C   LIG    1       23.475 -20.397   3.402  0.00  0.00    +0.060 C 
ENDBRANCH  13  18
ENDBRANCH   1  13
TORSDOF 3
ENDMDL
