MODEL 1
REMARK VINA RESULT:       7.9      0.000      0.000
REMARK  Name = *****
REMARK                            x       y       z     vdW  Elec       q    Type
REMARK                         _______ _______ _______ _____ _____    ______ ____
ROOT
ATOM      1  C   LIG    1       25.047 -19.567   3.938  0.00  0.00    +0.169 C 
ATOM      2  C   LIG    1       26.470 -19.451   3.218  0.00  0.00    +0.175 C 
ATOM      3  C   LIG    1       27.348 -18.463   3.936  0.00  0.00    +0.169 C 
ATOM      4  C   LIG    1       27.585 -19.337   5.330  0.00  0.00    +0.084 C 
ATOM      5  C   LIG    1       26.331 -20.054   5.964  0.00  0.00    +0.042 C 
ATOM      6  C   LIG    1       25.361 -20.669   4.971  0.00  0.00    +0.084 C 
ENDROOT
BRANCH   4   7
ATOM      7  N   LIG    1       28.435 -18.821   6.427  0.00  0.00    -0.325 NA
ATOM      8  H   LIG    1       28.419 -19.437   7.240  0.00  0.00    +0.118 HD
ATOM      9  H   LIG    1       29.428 -18.756   6.127  0.00  0.00    +0.118 HD
ENDBRANCH   4   7
BRANCH   6  10
ATOM     10  N   LIG    1       24.234 -21.337   5.612  0.00  0.00    -0.325 NA
ATOM     11  H   LIG    1       23.873 -22.072   5.002  0.00  0.00    +0.118 HD
ATOM     12  H   LIG    1       23.470 -20.669   5.753  0.00  0.00    +0.118 HD
ENDBRANCH   6  10
BRANCH   2  13
ATOM     13  O   LIG    1       26.493 -19.324   1.812  0.00  0.00    -0.387 OA
ATOM     14  H   LIG    1       26.294 -20.200   1.422  0.00  0.00    +0.210 HD
ENDBRANCH   2  13
BRANCH   1  15
ATOM     15  O   LIG    1       24.228 -18.430   4.356  0.00  0.00    -0.342 OA
BRANCH  15  18
ATOM     16  C   LIG    1       22.967 -14.972   4.222  0.00  0.00    +0.138 C 
ATOM     17  O   LIG    1       23.633 -16.094   3.535  0.00  0.00    -0.345 OA
ATOM     18  C   LIG    1       23.197 -17.454   3.910  0.00  0.00    +0.268 C 
ATOM     19  C   LIG    1       21.664 -17.406   4.343  0.00  0.00    +0.107 C 
ATOM     20  C   LIG    1       21.389 -16.434   5.511  0.00  0.00    +0.026 C 
ATOM     21  C   LIG    1       22.532 -15.452   5.586  0.00  0.00    +0.035 C 
BRANCH  19  22
ATOM     22  N   LIG    1       20.836 -18.611   4.460  0.00  0.00    -0.323 NA
ATOM     23  H   LIG    1       21.055 -19.235   3.679  0.00  0.00    +0.119 HD
ATOM     24  H   LIG    1       19.862 -18.348   4.311  0.00  0.00    +0.119 HD
ENDBRANCH  19  22
BRANCH  16  25
ATOM     25  C   LIG    1       23.898 -13.712   4.332  0.00  0.00    +0.079 C 
ATOM     26  C   LIG    1       23.825 -12.864   3.042  0.00  0.00    +0.026 C 
BRANCH  25  28
ATOM     27  C   LIG    1       23.522 -11.479   5.235  0.00  0.00    +0.101 C 
ATOM     28  N   LIG    1       23.862 -12.873   5.544  0.00  0.00    -0.314 NA
ATOM     29  H   LIG    1       23.206 -13.247   6.233  0.00  0.00    +0.122 HD
ENDBRANCH  25  28
ENDBRANCH  16  25
ENDBRANCH  15  18
ENDBRANCH   1  15
BRANCH   3  30
ATOM     30  O   LIG    1       26.655 -17.218   3.933  0.00  0.00    -0.341 OA
BRANCH  30  31
ATOM     31  C   LIG    1       27.226 -15.900   3.657  0.00  0.00    +0.281 C 
ATOM     32  C   LIG    1       27.718 -14.932   4.788  0.00  0.00    +0.190 C 
ATOM     33  C   LIG    1       28.345 -13.604   4.257  0.00  0.00    +0.121 C 
ATOM     34  C   LIG    1       27.530 -13.084   3.015  0.00  0.00    +0.104 C 
ATOM     35  C   LIG    1       26.087 -12.646   3.314  0.00  0.00    +0.045 C 
ATOM     36  C   LIG    1       27.429 -14.241   1.996  0.00  0.00    +0.199 C 
ATOM     37  O   LIG    1       26.610 -15.286   2.527  0.00  0.00    -0.346 OA
BRANCH  33  38
ATOM     38  N   LIG    1       28.434 -12.778   5.494  0.00  0.00    -0.311 NA
ATOM     39  H   LIG    1       27.462 -12.526   5.726  0.00  0.00    +0.122 HD
ATOM     40  C   LIG    1       29.310 -11.642   5.614  0.00  0.00    +0.101 C 
ENDBRANCH  33  38
BRANCH  32  41
ATOM     41  O   LIG    1       26.715 -14.449   5.687  0.00  0.00    -0.385 OA
ATOM     42  H   LIG    1       27.114 -14.475   6.568  0.00  0.00    +0.210 HD
ENDBRANCH  32  41
BRANCH  34  43
ATOM     43  O   LIG    1       28.227 -12.010   2.378  0.00  0.00    -0.385 OA
ATOM     44  H   LIG    1       28.177 -11.236   2.964  0.00  0.00    +0.210 HD
ENDBRANCH  34  43
ENDBRANCH  30  31
ENDBRANCH   3  30
TORSDOF 13
ENDMDL
MODEL 2
REMARK VINA RESULT:       8.1      2.228      5.750
REMARK  Name = *****
REMARK                            x       y       z     vdW  Elec       q    Type
REMARK                         _______ _______ _______ _____ _____    ______ ____
ROOT
ATOM      1  C   LIG    1       23.152 -18.511   5.230  0.00  0.00    +0.169 C 
ATOM      2  C   LIG    1       22.015 -17.440   5.570  0.00  0.00    +0.175 C 
ATOM      3  C   LIG    1       21.525 -16.772   4.315  0.00  0.00    +0.169 C 
ATOM      4  C   LIG    1       20.760 -18.085   3.640  0.00  0.00    +0.084 C 
ATOM      5  C   LIG    1       21.512 -19.471   3.688  0.00  0.00    +0.042 C 
ATOM      6  C   LIG    1       22.276 -19.754   4.969  0.00  0.00    +0.084 C 
ENDROOT
BRANCH   4   7
ATOM      7  N   LIG    1       20.050 -17.980   2.346  0.00  0.00    -0.325 NA
ATOM      8  H   LIG    1       19.465 -18.797   2.168  0.00  0.00    +0.118 HD
ATOM      9  H   LIG    1       19.415 -17.157   2.337  0.00  0.00    +0.118 HD
ENDBRANCH   4   7
BRANCH   6  10
ATOM     10  N   LIG    1       22.932 -21.058   4.966  0.00  0.00    -0.325 NA
ATOM     11  H   LIG    1       22.338 -21.745   5.432  0.00  0.00    +0.118 HD
ATOM     12  H   LIG    1       23.803 -21.008   5.504  0.00  0.00    +0.118 HD
ENDBRANCH   6  10
BRANCH   2  13
ATOM     13  O   LIG    1       22.244 -16.550   6.643  0.00  0.00    -0.387 OA
ATOM     14  H   LIG    1       21.375 -16.252   6.984  0.00  0.00    +0.210 HD
ENDBRANCH   2  13
BRANCH   1  15
ATOM     15  O   LIG    1       24.296 -18.266   4.353  0.00  0.00    -0.342 OA
BRANCH  15  18
ATOM     16  C   LIG    1       27.374 -20.129   5.136  0.00  0.00    +0.138 C 
ATOM     17  O   LIG    1       26.073 -20.087   4.445  0.00  0.00    -0.345 OA
ATOM     18  C   LIG    1       25.633 -18.772   3.939  0.00  0.00    +0.268 C 
ATOM     19  C   LIG    1       26.916 -17.905   3.560  0.00  0.00    +0.107 C 
ATOM     20  C   LIG    1       27.889 -17.706   4.743  0.00  0.00    +0.026 C 
ATOM     21  C   LIG    1       27.612 -18.778   5.768  0.00  0.00    +0.035 C 
BRANCH  19  22
ATOM     22  N   LIG    1       26.839 -16.694   2.737  0.00  0.00    -0.323 NA
ATOM     23  H   LIG    1       26.722 -15.886   3.354  0.00  0.00    +0.119 HD
ATOM     24  H   LIG    1       25.976 -16.728   2.194  0.00  0.00    +0.119 HD
ENDBRANCH  19  22
BRANCH  16  25
ATOM     25  C   LIG    1       27.437 -21.277   6.205  0.00  0.00    +0.079 C 
ATOM     26  C   LIG    1       28.726 -21.169   7.050  0.00  0.00    +0.026 C 
BRANCH  25  28
ATOM     27  C   LIG    1       25.308 -20.452   7.062  0.00  0.00    +0.101 C 
ATOM     28  N   LIG    1       26.256 -21.571   7.040  0.00  0.00    -0.314 NA
ATOM     29  H   LIG    1       25.785 -22.422   6.725  0.00  0.00    +0.122 HD
ENDBRANCH  25  28
ENDBRANCH  16  25
ENDBRANCH  15  18
ENDBRANCH   1  15
BRANCH   3  30
ATOM     30  O   LIG    1       22.657 -16.160   3.704  0.00  0.00    -0.341 OA
BRANCH  30  31
ATOM     31  C   LIG    1       23.214 -14.844   4.015  0.00  0.00    +0.281 C 
ATOM     32  C   LIG    1       23.708 -13.847   2.912  0.00  0.00    +0.190 C 
ATOM     33  C   LIG    1       24.209 -12.478   3.472  0.00  0.00    +0.121 C 
ATOM     34  C   LIG    1       25.015 -12.707   4.805  0.00  0.00    +0.104 C 
ATOM     35  C   LIG    1       26.335 -13.479   4.650  0.00  0.00    +0.045 C 
ATOM     36  C   LIG    1       24.131 -13.545   5.755  0.00  0.00    +0.199 C 
ATOM     37  O   LIG    1       23.967 -14.864   5.227  0.00  0.00    -0.346 OA
BRANCH  33  38
ATOM     38  N   LIG    1       24.880 -11.875   2.286  0.00  0.00    -0.311 NA
ATOM     39  H   LIG    1       24.388 -12.260   1.466  0.00  0.00    +0.122 HD
ATOM     40  C   LIG    1       26.306 -11.902   2.097  0.00  0.00    +0.101 C 
ENDBRANCH  33  38
BRANCH  32  41
ATOM     41  O   LIG    1       24.826 -14.275   2.127  0.00  0.00    -0.385 OA
ATOM     42  H   LIG    1       25.090 -13.507   1.601  0.00  0.00    +0.210 HD
ENDBRANCH  32  41
BRANCH  34  43
ATOM     43  O   LIG    1       25.272 -11.456   5.450  0.00  0.00    -0.385 OA
ATOM     44  H   LIG    1       26.043 -11.053   5.017  0.00  0.00    +0.210 HD
ENDBRANCH  34  43
ENDBRANCH  30  31
ENDBRANCH   3  30
TORSDOF 13
ENDMDL
MODEL 3
REMARK VINA RESULT:       8.1      2.000      5.339
REMARK  Name = *****
REMARK                            x       y       z     vdW  Elec       q    Type
REMARK                         _______ _______ _______ _____ _____    ______ ____
ROOT
ATOM      1  C   LIG    1       22.766 -19.042   5.928  0.00  0.00    +0.169 C 
ATOM      2  C   LIG    1       21.872 -17.721   5.826  0.00  0.00    +0.175 C 
ATOM      3  C   LIG    1       22.023 -17.082   4.473  0.00  0.00    +0.169 C 
ATOM      4  C   LIG    1       21.253 -18.253   3.578  0.00  0.00    +0.084 C 
ATOM      5  C   LIG    1       21.588 -19.760   3.906  0.00  0.00    +0.042 C 
ATOM      6  C   LIG    1       21.767 -20.082   5.379  0.00  0.00    +0.084 C 
ENDROOT
BRANCH   4   7
ATOM      7  N   LIG    1       21.085 -18.118   2.114  0.00  0.00    -0.325 NA
ATOM      8  H   LIG    1       21.270 -18.995   1.629  0.00  0.00    +0.118 HD
ATOM      9  H   LIG    1       20.108 -17.851   1.877  0.00  0.00    +0.118 HD
ENDBRANCH   4   7
BRANCH   6  10
ATOM     10  N   LIG    1       22.053 -21.492   5.624  0.00  0.00    -0.325 NA
ATOM     11  H   LIG    1       21.203 -22.044   5.503  0.00  0.00    +0.118 HD
ATOM     12  H   LIG    1       22.352 -21.620   6.596  0.00  0.00    +0.118 HD
ENDBRANCH   6  10
BRANCH   2  13
ATOM     13  O   LIG    1       21.916 -16.806   6.901  0.00  0.00    -0.387 OA
ATOM     14  H   LIG    1       22.671 -16.199   6.755  0.00  0.00    +0.210 HD
ENDBRANCH   2  13
BRANCH   1  15
ATOM     15  O   LIG    1       24.167 -19.136   5.520  0.00  0.00    -0.342 OA
BRANCH  15  18
ATOM     16  C   LIG    1       27.697 -19.882   4.782  0.00  0.00    +0.138 C 
ATOM     17  O   LIG    1       26.498 -20.157   5.595  0.00  0.00    -0.345 OA
ATOM     18  C   LIG    1       25.194 -20.029   4.916  0.00  0.00    +0.268 C 
ATOM     19  C   LIG    1       25.374 -20.384   3.373  0.00  0.00    +0.107 C 
ATOM     20  C   LIG    1       26.418 -19.498   2.659  0.00  0.00    +0.026 C 
ATOM     21  C   LIG    1       27.317 -18.890   3.709  0.00  0.00    +0.035 C 
BRANCH  19  22
ATOM     22  N   LIG    1       24.240 -20.670   2.488  0.00  0.00    -0.323 NA
ATOM     23  H   LIG    1       24.476 -20.360   1.542  0.00  0.00    +0.119 HD
ATOM     24  H   LIG    1       23.459 -20.074   2.764  0.00  0.00    +0.119 HD
ENDBRANCH  19  22
BRANCH  16  25
ATOM     25  C   LIG    1       28.889 -19.349   5.654  0.00  0.00    +0.079 C 
ATOM     26  C   LIG    1       28.973 -17.807   5.584  0.00  0.00    +0.026 C 
BRANCH  25  28
ATOM     27  C   LIG    1       29.348 -21.288   7.058  0.00  0.00    +0.101 C 
ATOM     28  N   LIG    1       29.077 -19.847   7.029  0.00  0.00    -0.314 NA
ATOM     29  H   LIG    1       29.827 -19.342   7.506  0.00  0.00    +0.122 HD
ENDBRANCH  25  28
ENDBRANCH  16  25
ENDBRANCH  15  18
ENDBRANCH   1  15
BRANCH   3  30
ATOM     30  O   LIG    1       23.408 -16.793   4.306  0.00  0.00    -0.341 OA
BRANCH  30  31
ATOM     31  C   LIG    1       23.985 -15.567   3.756  0.00  0.00    +0.281 C 
ATOM     32  C   LIG    1       25.458 -15.483   3.226  0.00  0.00    +0.190 C 
ATOM     33  C   LIG    1       25.839 -14.091   2.629  0.00  0.00    +0.121 C 
ATOM     34  C   LIG    1       25.202 -12.943   3.498  0.00  0.00    +0.104 C 
ATOM     35  C   LIG    1       25.747 -12.824   4.931  0.00  0.00    +0.045 C 
ATOM     36  C   LIG    1       23.691 -13.233   3.631  0.00  0.00    +0.199 C 
ATOM     37  O   LIG    1       23.489 -14.407   4.422  0.00  0.00    -0.346 OA
BRANCH  33  38
ATOM     38  N   LIG    1       27.320 -14.196   2.497  0.00  0.00    -0.311 NA
ATOM     39  H   LIG    1       27.541 -15.189   2.665  0.00  0.00    +0.122 HD
ATOM     40  C   LIG    1       28.230 -13.333   3.201  0.00  0.00    +0.101 C 
ENDBRANCH  33  38
BRANCH  32  41
ATOM     41  O   LIG    1       26.491 -15.684   4.196  0.00  0.00    -0.385 OA
ATOM     42  H   LIG    1       27.096 -14.935   4.098  0.00  0.00    +0.210 HD
ENDBRANCH  32  41
BRANCH  34  43
ATOM     43  O   LIG    1       25.341 -11.684   2.834  0.00  0.00    -0.385 OA
ATOM     44  H   LIG    1       24.468 -11.433   2.489  0.00  0.00    +0.210 HD
ENDBRANCH  34  43
ENDBRANCH  30  31
ENDBRANCH   3  30
TORSDOF 13
ENDMDL
MODEL 4
REMARK VINA RESULT:       8.1      1.754      7.232
REMARK  Name = *****
REMARK                            x       y       z     vdW  Elec       q    Type
REMARK                         _______ _______ _______ _____ _____    ______ ____
ROOT
ATOM      1  C   LIG    1       24.199 -13.857   2.148  0.00  0.00    +0.169 C 
ATOM      2  C   LIG    1       22.897 -14.372   2.920  0.00  0.00    +0.175 C 
ATOM      3  C   LIG    1       23.253 -14.844   4.303  0.00  0.00    +0.169 C 
ATOM      4  C   LIG    1       23.644 -13.366   4.956  0.00  0.00    +0.084 C 
ATOM      5  C   LIG    1       24.526 -12.392   4.081  0.00  0.00    +0.042 C 
ATOM      6  C   LIG    1       24.207 -12.381   2.597  0.00  0.00    +0.084 C 
ENDROOT
BRANCH   4   7
ATOM      7  N   LIG    1       24.062 -13.235   6.369  0.00  0.00    -0.325 NA
ATOM      8  H   LIG    1       24.482 -14.095   6.722  0.00  0.00    +0.118 HD
ATOM      9  H   LIG    1       24.782 -12.492   6.476  0.00  0.00    +0.118 HD
ENDBRANCH   4   7
BRANCH   6  10
ATOM     10  N   LIG    1       25.036 -11.447   1.842  0.00  0.00    -0.325 NA
ATOM     11  H   LIG    1       25.850 -11.180   2.397  0.00  0.00    +0.118 HD
ATOM     12  H   LIG    1       24.509 -10.588   1.658  0.00  0.00    +0.118 HD
ENDBRANCH   6  10
BRANCH   2  13
ATOM     13  O   LIG    1       22.015 -15.232   2.229  0.00  0.00    -0.387 OA
ATOM     14  H   LIG    1       21.396 -15.622   2.880  0.00  0.00    +0.210 HD
ENDBRANCH   2  13
BRANCH   1  15
ATOM     15  O   LIG    1       25.471 -14.575   2.085  0.00  0.00    -0.342 OA
BRANCH  15  18
ATOM     16  C   LIG    1       28.199 -15.781   4.245  0.00  0.00    +0.138 C 
ATOM     17  O   LIG    1       27.543 -15.793   2.925  0.00  0.00    -0.345 OA
ATOM     18  C   LIG    1       26.903 -14.536   2.491  0.00  0.00    +0.268 C 
ATOM     19  C   LIG    1       27.691 -13.306   3.128  0.00  0.00    +0.107 C 
ATOM     20  C   LIG    1       27.751 -13.350   4.670  0.00  0.00    +0.026 C 
ATOM     21  C   LIG    1       27.487 -14.769   5.111  0.00  0.00    +0.035 C 
BRANCH  19  22
ATOM     22  N   LIG    1       27.527 -11.928   2.651  0.00  0.00    -0.323 NA
ATOM     23  H   LIG    1       28.374 -11.653   2.148  0.00  0.00    +0.119 HD
ATOM     24  H   LIG    1       27.499 -11.309   3.462  0.00  0.00    +0.119 HD
ENDBRANCH  19  22
BRANCH  16  25
ATOM     25  C   LIG    1       28.202 -17.202   4.914  0.00  0.00    +0.079 C 
ATOM     26  C   LIG    1       27.335 -18.192   4.104  0.00  0.00    +0.026 C 
BRANCH  25  28
ATOM     27  C   LIG    1       29.260 -18.996   6.182  0.00  0.00    +0.101 C 
ATOM     28  N   LIG    1       29.475 -17.811   5.344  0.00  0.00    -0.314 NA
ATOM     29  H   LIG    1       30.058 -18.054   4.540  0.00  0.00    +0.122 HD
ENDBRANCH  25  28
ENDBRANCH  16  25
ENDBRANCH  15  18
ENDBRANCH   1  15
BRANCH   3  30
ATOM     30  O   LIG    1       24.217 -15.881   4.149  0.00  0.00    -0.341 OA
BRANCH  30  31
ATOM     31  C   LIG    1       23.952 -17.280   3.813  0.00  0.00    +0.281 C 
ATOM     32  C   LIG    1       22.765 -18.094   4.435  0.00  0.00    +0.190 C 
ATOM     33  C   LIG    1       22.639 -19.550   3.887  0.00  0.00    +0.121 C 
ATOM     34  C   LIG    1       24.070 -20.179   3.700  0.00  0.00    +0.104 C 
ATOM     35  C   LIG    1       24.862 -20.406   4.999  0.00  0.00    +0.045 C 
ATOM     36  C   LIG    1       24.909 -19.203   2.846  0.00  0.00    +0.199 C 
ATOM     37  O   LIG    1       25.159 -18.004   3.583  0.00  0.00    -0.346 OA
BRANCH  33  38
ATOM     38  N   LIG    1       21.669 -20.165   4.836  0.00  0.00    -0.311 NA
ATOM     39  H   LIG    1       22.218 -20.398   5.677  0.00  0.00    +0.122 HD
ATOM     40  C   LIG    1       20.795 -21.247   4.469  0.00  0.00    +0.101 C 
ENDBRANCH  33  38
BRANCH  32  41
ATOM     41  O   LIG    1       22.821 -18.312   5.849  0.00  0.00    -0.385 OA
ATOM     42  H   LIG    1       23.758 -18.425   6.063  0.00  0.00    +0.210 HD
ENDBRANCH  32  41
BRANCH  34  43
ATOM     43  O   LIG    1       23.980 -21.412   2.980  0.00  0.00    -0.385 OA
ATOM     44  H   LIG    1       24.870 -21.801   2.947  0.00  0.00    +0.210 HD
ENDBRANCH  34  43
ENDBRANCH  30  31
ENDBRANCH   3  30
TORSDOF 13
ENDMDL
MODEL 5
REMARK VINA RESULT:       9.0      1.956      7.394
REMARK  Name = *****
REMARK                            x       y       z     vdW  Elec       q    Type
REMARK                         _______ _______ _______ _____ _____    ______ ____
ROOT
ATOM      1  C   LIG    1       24.282 -14.151   3.569  0.00  0.00    +0.169 C 
ATOM      2  C   LIG    1       22.731 -14.458   3.331  0.00  0.00    +0.175 C 
ATOM      3  C   LIG    1       22.294 -15.642   4.148  0.00  0.00    +0.169 C 
ATOM      4  C   LIG    1       22.419 -14.944   5.651  0.00  0.00    +0.084 C 
ATOM      5  C   LIG    1       23.700 -14.070   5.945  0.00  0.00    +0.042 C 
ATOM      6  C   LIG    1       24.182 -13.212   4.789  0.00  0.00    +0.084 C 
ENDROOT
BRANCH   4   7
ATOM      7  N   LIG    1       22.070 -15.693   6.879  0.00  0.00    -0.325 NA
ATOM      8  H   LIG    1       22.681 -16.497   7.020  0.00  0.00    +0.118 HD
ATOM      9  H   LIG    1       22.176 -15.092   7.722  0.00  0.00    +0.118 HD
ENDBRANCH   4   7
BRANCH   6  10
ATOM     10  N   LIG    1       25.354 -12.409   5.125  0.00  0.00    -0.325 NA
ATOM     11  H   LIG    1       25.896 -12.874   5.854  0.00  0.00    +0.118 HD
ATOM     12  H   LIG    1       25.056 -11.507   5.508  0.00  0.00    +0.118 HD
ENDBRANCH   6  10
BRANCH   2  13
ATOM     13  O   LIG    1       22.255 -14.470   2.002  0.00  0.00    -0.387 OA
ATOM     14  H   LIG    1       22.323 -13.560   1.644  0.00  0.00    +0.210 HD
ENDBRANCH   2  13
BRANCH   1  15
ATOM     15  O   LIG    1       25.345 -15.154   3.544  0.00  0.00    -0.342 OA
BRANCH  15  18
ATOM     16  C   LIG    1       28.510 -16.874   4.309  0.00  0.00    +0.138 C 
ATOM     17  O   LIG    1       27.334 -16.740   3.431  0.00  0.00    -0.345 OA
ATOM     18  C   LIG    1       26.788 -15.380   3.256  0.00  0.00    +0.268 C 
ATOM     19  C   LIG    1       27.974 -14.324   3.390  0.00  0.00    +0.107 C 
ATOM     20  C   LIG    1       28.722 -14.412   4.739  0.00  0.00    +0.026 C 
ATOM     21  C   LIG    1       28.454 -15.771   5.338  0.00  0.00    +0.035 C 
BRANCH  19  22
ATOM     22  N   LIG    1       27.846 -12.929   2.955  0.00  0.00    -0.323 NA
ATOM     23  H   LIG    1       27.039 -12.854   2.330  0.00  0.00    +0.119 HD
ATOM     24  H   LIG    1       28.647 -12.701   2.366  0.00  0.00    +0.119 HD
ENDBRANCH  19  22
BRANCH  16  25
ATOM     25  C   LIG    1       28.579 -18.287   4.991  0.00  0.00    +0.079 C 
ATOM     26  C   LIG    1       29.393 -18.223   6.303  0.00  0.00    +0.026 C 
BRANCH  25  28
ATOM     27  C   LIG    1       27.604 -20.342   5.869  0.00  0.00    +0.101 C 
ATOM     28  N   LIG    1       27.352 -19.091   5.144  0.00  0.00    -0.314 NA
ATOM     29  H   LIG    1       26.617 -18.558   5.613  0.00  0.00    +0.122 HD
ENDBRANCH  25  28
ENDBRANCH  16  25
ENDBRANCH  15  18
ENDBRANCH   1  15
BRANCH   3  30
ATOM     30  O   LIG    1       23.113 -16.739   3.753  0.00  0.00    -0.341 OA
BRANCH  30  31
ATOM     31  C   LIG    1       23.310 -17.992   4.483  0.00  0.00    +0.281 C 
ATOM     32  C   LIG    1       24.134 -19.193   3.906  0.00  0.00    +0.190 C 
ATOM     33  C   LIG    1       24.261 -20.404   4.884  0.00  0.00    +0.121 C 
ATOM     34  C   LIG    1       22.901 -20.620   5.648  0.00  0.00    +0.104 C 
ATOM     35  C   LIG    1       21.717 -21.055   4.769  0.00  0.00    +0.045 C 
ATOM     36  C   LIG    1       22.497 -19.273   6.286  0.00  0.00    +0.199 C 
ATOM     37  O   LIG    1       22.164 -18.331   5.262  0.00  0.00    -0.346 OA
BRANCH  33  38
ATOM     38  N   LIG    1       24.800 -21.474   3.998  0.00  0.00    -0.311 NA
ATOM     39  H   LIG    1       25.821 -21.459   4.140  0.00  0.00    +0.122 HD
ATOM     40  C   LIG    1       24.469 -21.572   2.601  0.00  0.00    +0.101 C 
ENDBRANCH  33  38
BRANCH  32  41
ATOM     41  O   LIG    1       23.607 -19.815   2.729  0.00  0.00    -0.385 OA
ATOM     42  H   LIG    1       22.648 -19.691   2.772  0.00  0.00    +0.210 HD
ENDBRANCH  32  41
BRANCH  34  43
ATOM     43  O   LIG    1       23.074 -21.563   6.709  0.00  0.00    -0.385 OA
ATOM     44  H   LIG    1       23.741 -22.211   6.424  0.00  0.00    +0.210 HD
ENDBRANCH  34  43
ENDBRANCH  30  31
ENDBRANCH   3  30
TORSDOF 13
ENDMDL
MODEL 6
REMARK VINA RESULT:      10.7      2.024      4.249
REMARK  Name = *****
REMARK                            x       y       z     vdW  Elec       q    Type
REMARK                         _______ _______ _______ _____ _____    ______ ____
ROOT
ATOM      1  C   LIG    1       25.967 -17.455   3.345  0.00  0.00    +0.169 C 
ATOM      2  C   LIG    1       27.292 -16.643   2.965  0.00  0.00    +0.175 C 
ATOM      3  C   LIG    1       27.959 -16.110   4.202  0.00  0.00    +0.169 C 
ATOM      4  C   LIG    1       28.453 -17.562   4.842  0.00  0.00    +0.084 C 
ATOM      5  C   LIG    1       27.424 -18.758   4.818  0.00  0.00    +0.042 C 
ATOM      6  C   LIG    1       26.570 -18.857   3.567  0.00  0.00    +0.084 C 
ENDROOT
BRANCH   4   7
ATOM      7  N   LIG    1       29.217 -17.626   6.107  0.00  0.00    -0.325 NA
ATOM      8  H   LIG    1       29.947 -18.337   6.074  0.00  0.00    +0.118 HD
ATOM      9  H   LIG    1       29.695 -16.723   6.298  0.00  0.00    +0.118 HD
ENDBRANCH   4   7
BRANCH   6  10
ATOM     10  N   LIG    1       25.653 -19.993   3.590  0.00  0.00    -0.325 NA
ATOM     11  H   LIG    1       25.963 -20.702   2.923  0.00  0.00    +0.118 HD
ATOM     12  H   LIG    1       24.722 -19.692   3.288  0.00  0.00    +0.118 HD
ENDBRANCH   6  10
BRANCH   2  13
ATOM     13  O   LIG    1       27.217 -15.713   1.905  0.00  0.00    -0.387 OA
ATOM     14  H   LIG    1       26.502 -15.074   2.109  0.00  0.00    +0.210 HD
ENDBRANCH   2  13
BRANCH   1  15
ATOM     15  O   LIG    1       24.935 -16.984   4.267  0.00  0.00    -0.342 OA
BRANCH  15  18
ATOM     16  C   LIG    1       22.425 -19.523   5.168  0.00  0.00    +0.138 C 
ATOM     17  O   LIG    1       23.558 -18.675   5.581  0.00  0.00    -0.345 OA
ATOM     18  C   LIG    1       23.660 -17.348   4.943  0.00  0.00    +0.268 C 
ATOM     19  C   LIG    1       22.196 -16.832   4.581  0.00  0.00    +0.107 C 
ATOM     20  C   LIG    1       21.421 -17.794   3.653  0.00  0.00    +0.026 C 
ATOM     21  C   LIG    1       22.060 -19.158   3.749  0.00  0.00    +0.035 C 
BRANCH  19  22
ATOM     22  N   LIG    1       21.910 -15.435   4.240  0.00  0.00    -0.323 NA
ATOM     23  H   LIG    1       21.858 -15.350   3.222  0.00  0.00    +0.119 HD
ATOM     24  H   LIG    1       22.717 -14.868   4.502  0.00  0.00    +0.119 HD
ENDBRANCH  19  22
BRANCH  16  25
ATOM     25  C   LIG    1       22.755 -21.052   5.296  0.00  0.00    +0.079 C 
ATOM     26  C   LIG    1       23.450 -21.572   4.017  0.00  0.00    +0.026 C 
BRANCH  25  28
ATOM     27  C   LIG    1       24.858 -21.409   6.477  0.00  0.00    +0.101 C 
ATOM     28  N   LIG    1       23.400 -21.567   6.519  0.00  0.00    -0.314 NA
ATOM     29  H   LIG    1       23.024 -21.113   7.354  0.00  0.00    +0.122 HD
ENDBRANCH  25  28
ENDBRANCH  16  25
ENDBRANCH  15  18
ENDBRANCH   1  15
BRANCH   3  30
ATOM     30  O   LIG    1       27.005 -15.280   4.859  0.00  0.00    -0.341 OA
BRANCH  30  31
ATOM     31  C   LIG    1       26.254 -14.173   4.268  0.00  0.00    +0.281 C 
ATOM     32  C   LIG    1       25.035 -13.494   4.981  0.00  0.00    +0.190 C 
ATOM     33  C   LIG    1       24.424 -12.294   4.190  0.00  0.00    +0.121 C 
ATOM     34  C   LIG    1       24.410 -12.619   2.650  0.00  0.00    +0.104 C 
ATOM     35  C   LIG    1       23.481 -13.770   2.230  0.00  0.00    +0.045 C 
ATOM     36  C   LIG    1       25.838 -13.043   2.242  0.00  0.00    +0.199 C 
ATOM     37  O   LIG    1       26.164 -14.296   2.850  0.00  0.00    -0.346 OA
BRANCH  33  38
ATOM     38  N   LIG    1       23.146 -12.052   4.916  0.00  0.00    -0.311 NA
ATOM     39  H   LIG    1       22.540 -11.553   4.247  0.00  0.00    +0.122 HD
ATOM     40  C   LIG    1       23.090 -11.447   6.220  0.00  0.00    +0.101 C 
ENDBRANCH  33  38
BRANCH  32  41
ATOM     41  O   LIG    1       23.887 -14.323   5.197  0.00  0.00    -0.385 OA
ATOM     42  H   LIG    1       23.821 -14.439   6.155  0.00  0.00    +0.210 HD
ENDBRANCH  32  41
BRANCH  34  43
ATOM     43  O   LIG    1       24.080 -11.447   1.899  0.00  0.00    -0.385 OA
ATOM     44  H   LIG    1       24.780 -10.790   2.052  0.00  0.00    +0.210 HD
ENDBRANCH  34  43
ENDBRANCH  30  31
ENDBRANCH   3  30
TORSDOF 13
ENDMDL
