MODEL 1
REMARK VINA RESULT:      -4.7      0.000      0.000
REMARK  Name = *****
REMARK                            x       y       z     vdW  Elec       q    Type
REMARK                         _______ _______ _______ _____ _____    ______ ____
ROOT
ATOM      1  C   LIG    1       25.042 -12.154   3.301  0.00  0.00    +0.019 C 
ATOM      2  C   LIG    1       25.142 -13.608   3.807  0.00  0.00    +0.029 C 
ATOM      3  C   LIG    1       26.278 -13.651   4.826  0.00  0.00    +0.140 C 
ATOM      4  O   LIG    1       26.155 -13.367   6.009  0.00  0.00    -0.297 OA
ATOM      5  C   LIG    1       27.587 -14.056   4.202  0.00  0.00    +0.075 C 
ATOM      6  C   LIG    1       27.209 -14.257   2.733  0.00  0.00    +0.012 C 
ATOM      7  C   LIG    1       25.694 -14.574   2.722  0.00  0.00    +0.006 C 
ATOM      8  C   LIG    1       25.330 -16.099   2.870  0.00  0.00    +0.001 C 
ATOM      9  C   LIG    1       23.926 -16.344   3.497  0.00  0.00    +0.023 C 
ATOM     10  C   LIG    1       23.634 -17.786   3.899  0.00  0.00    -0.041 A 
ATOM     11  C   LIG    1       24.644 -18.759   3.953  0.00  0.00    -0.041 A 
ATOM     12  C   LIG    1       26.026 -18.469   3.449  0.00  0.00    +0.036 C 
ATOM     13  C   LIG    1       24.348 -20.038   4.454  0.00  0.00    +0.049 A 
ATOM     14  C   LIG    1       23.073 -20.332   4.922  0.00  0.00    +0.117 A 
ATOM     15  C   LIG    1       22.058 -19.390   4.855  0.00  0.00    +0.045 A 
ATOM     16  C   LIG    1       22.336 -18.129   4.326  0.00  0.00    +0.008 A 
ATOM     17  C   LIG    1       23.713 -15.467   4.740  0.00  0.00    +0.009 C 
ATOM     18  C   LIG    1       26.386 -16.986   3.555  0.00  0.00    +0.009 C 
ATOM     19  C   LIG    1       23.798 -13.998   4.389  0.00  0.00    +0.015 C 
ENDROOT
BRANCH  14  20
ATOM     20  O   LIG    1       22.856 -21.570   5.451  0.00  0.00    -0.507 OA
ATOM     21  H   LIG    1       22.509 -22.145   4.750  0.00  0.00    +0.292 HD
ENDBRANCH  14  20
TORSDOF 1
ENDMDL
MODEL 2
REMARK VINA RESULT:      -4.0      1.235      6.269
REMARK  Name = *****
REMARK                            x       y       z     vdW  Elec       q    Type
REMARK                         _______ _______ _______ _____ _____    ______ ____
ROOT
ATOM      1  C   LIG    1       24.074 -21.527   3.401  0.00  0.00    +0.019 C 
ATOM      2  C   LIG    1       24.287 -20.120   3.996  0.00  0.00    +0.029 C 
ATOM      3  C   LIG    1       23.837 -20.177   5.454  0.00  0.00    +0.140 C 
ATOM      4  O   LIG    1       24.544 -20.552   6.380  0.00  0.00    -0.297 OA
ATOM      5  C   LIG    1       22.406 -19.744   5.626  0.00  0.00    +0.075 C 
ATOM      6  C   LIG    1       21.981 -19.421   4.192  0.00  0.00    +0.012 C 
ATOM      7  C   LIG    1       23.283 -19.080   3.427  0.00  0.00    +0.006 C 
ATOM      8  C   LIG    1       23.713 -17.565   3.484  0.00  0.00    +0.001 C 
ATOM      9  C   LIG    1       25.245 -17.349   3.316  0.00  0.00    +0.023 C 
ATOM     10  C   LIG    1       25.741 -15.939   3.620  0.00  0.00    -0.041 A 
ATOM     11  C   LIG    1       24.929 -14.990   4.260  0.00  0.00    -0.041 A 
ATOM     12  C   LIG    1       23.477 -15.261   4.517  0.00  0.00    +0.036 C 
ATOM     13  C   LIG    1       25.475 -13.750   4.633  0.00  0.00    +0.049 A 
ATOM     14  C   LIG    1       26.817 -13.473   4.400  0.00  0.00    +0.117 A 
ATOM     15  C   LIG    1       27.627 -14.391   3.750  0.00  0.00    +0.045 A 
ATOM     16  C   LIG    1       27.083 -15.610   3.344  0.00  0.00    +0.008 A 
ATOM     17  C   LIG    1       26.043 -18.318   4.202  0.00  0.00    +0.009 C 
ATOM     18  C   LIG    1       23.183 -16.753   4.680  0.00  0.00    +0.009 C 
ATOM     19  C   LIG    1       25.750 -19.756   3.832  0.00  0.00    +0.015 C 
ENDROOT
BRANCH  14  20
ATOM     20  O   LIG    1       27.308 -12.278   4.836  0.00  0.00    -0.507 OA
ATOM     21  H   LIG    1       28.093 -12.060   4.308  0.00  0.00    +0.292 HD
ENDBRANCH  14  20
TORSDOF 1
ENDMDL
MODEL 3
REMARK VINA RESULT:      -3.2      1.245      1.629
REMARK  Name = *****
REMARK                            x       y       z     vdW  Elec       q    Type
REMARK                         _______ _______ _______ _____ _____    ______ ____
ROOT
ATOM      1  C   LIG    1       25.748 -11.912   2.765  0.00  0.00    +0.019 C 
ATOM      2  C   LIG    1       25.852 -13.274   3.482  0.00  0.00    +0.029 C 
ATOM      3  C   LIG    1       26.249 -12.990   4.929  0.00  0.00    +0.140 C 
ATOM      4  O   LIG    1       25.458 -12.709   5.819  0.00  0.00    -0.297 OA
ATOM      5  C   LIG    1       27.738 -13.065   5.136  0.00  0.00    +0.075 C 
ATOM      6  C   LIG    1       28.253 -13.404   3.735  0.00  0.00    +0.012 C 
ATOM      7  C   LIG    1       27.079 -14.100   3.006  0.00  0.00    +0.006 C 
ATOM      8  C   LIG    1       27.006 -15.662   3.196  0.00  0.00    +0.001 C 
ATOM      9  C   LIG    1       25.568 -16.240   3.051  0.00  0.00    +0.023 C 
ATOM     10  C   LIG    1       25.403 -17.694   3.478  0.00  0.00    -0.041 A 
ATOM     11  C   LIG    1       26.398 -18.372   4.198  0.00  0.00    -0.041 A 
ATOM     12  C   LIG    1       27.745 -17.753   4.429  0.00  0.00    +0.036 C 
ATOM     13  C   LIG    1       26.144 -19.667   4.680  0.00  0.00    +0.049 A 
ATOM     14  C   LIG    1       24.907 -20.264   4.474  0.00  0.00    +0.117 A 
ATOM     15  C   LIG    1       23.920 -19.617   3.746  0.00  0.00    +0.045 A 
ATOM     16  C   LIG    1       24.178 -18.345   3.234  0.00  0.00    +0.008 A 
ATOM     17  C   LIG    1       24.553 -15.407   3.848  0.00  0.00    +0.009 C 
ATOM     18  C   LIG    1       27.685 -16.225   4.459  0.00  0.00    +0.009 C 
ATOM     19  C   LIG    1       24.515 -13.977   3.353  0.00  0.00    +0.015 C 
ENDROOT
BRANCH  14  20
ATOM     20  O   LIG    1       24.694 -21.499   5.014  0.00  0.00    -0.507 OA
ATOM     21  H   LIG    1       25.527 -21.996   4.976  0.00  0.00    +0.292 HD
ENDBRANCH  14  20
TORSDOF 1
ENDMDL
