MODEL 1
REMARK VINA RESULT:      -4.7      0.000      0.000
REMARK  Name = *****
REMARK                            x       y       z     vdW  Elec       q    Type
REMARK                         _______ _______ _______ _____ _____    ______ ____
ROOT
ATOM      1  C   LIG    1       25.646 -21.345   6.081  0.00  0.00    +0.282 C 
ENDROOT
BRANCH   1   2
ATOM      2  O   LIG    1       25.176 -20.716   7.288  0.00  0.00    -0.459 OA
BRANCH   2   4
ATOM      3  C   LIG    1       27.491 -20.465   7.643  0.00  0.00    +0.136 C 
ATOM      4  C   LIG    1       26.121 -20.545   8.255  0.00  0.00    +0.304 C 
ATOM      5  O   LIG    1       25.874 -20.469   9.438  0.00  0.00    -0.251 OA
ENDBRANCH   2   4
ENDBRANCH   1   2
BRANCH   1   6
ATOM      6  C   LIG    1       24.653 -22.353   5.476  0.00  0.00    +0.174 C 
BRANCH   6   7
ATOM      7  N   LIG    1       24.767 -23.815   6.001  0.00  0.00    +0.239 N 
ATOM      8  C   LIG    1       25.886 -23.965   7.021  0.00  0.00    +0.192 C 
ATOM      9  C   LIG    1       25.014 -24.817   4.879  0.00  0.00    +0.192 C 
ATOM     10  C   LIG    1       23.446 -24.159   6.705  0.00  0.00    +0.192 C 
ENDBRANCH   6   7
ENDBRANCH   1   6
TORSDOF 4
ENDMDL
MODEL 2
REMARK VINA RESULT:      -4.6      3.161      4.443
REMARK  Name = *****
REMARK                            x       y       z     vdW  Elec       q    Type
REMARK                         _______ _______ _______ _____ _____    ______ ____
ROOT
ATOM      1  C   LIG    1       28.875 -20.074   7.656  0.00  0.00    +0.282 C 
ENDROOT
BRANCH   1   2
ATOM      2  O   LIG    1       29.778 -20.111   8.777  0.00  0.00    -0.459 OA
BRANCH   2   4
ATOM      3  C   LIG    1       31.200 -19.275   7.095  0.00  0.00    +0.136 C 
ATOM      4  C   LIG    1       31.082 -19.855   8.476  0.00  0.00    +0.304 C 
ATOM      5  O   LIG    1       32.006 -20.070   9.228  0.00  0.00    -0.251 OA
ENDBRANCH   2   4
ENDBRANCH   1   2
BRANCH   1   6
ATOM      6  C   LIG    1       28.176 -21.415   7.373  0.00  0.00    +0.174 C 
BRANCH   6   7
ATOM      7  N   LIG    1       26.620 -21.372   7.325  0.00  0.00    +0.239 N 
ATOM      8  C   LIG    1       26.112 -20.647   6.088  0.00  0.00    +0.192 C 
ATOM      9  C   LIG    1       26.020 -20.693   8.550  0.00  0.00    +0.192 C 
ATOM     10  C   LIG    1       26.119 -22.823   7.254  0.00  0.00    +0.192 C 
ENDBRANCH   6   7
ENDBRANCH   1   6
TORSDOF 4
ENDMDL
MODEL 3
REMARK VINA RESULT:      -4.6      3.202      4.409
REMARK  Name = *****
REMARK                            x       y       z     vdW  Elec       q    Type
REMARK                         _______ _______ _______ _____ _____    ______ ____
ROOT
ATOM      1  C   LIG    1       28.930 -20.048   7.636  0.00  0.00    +0.282 C 
ENDROOT
BRANCH   1   2
ATOM      2  O   LIG    1       29.784 -19.904   8.788  0.00  0.00    -0.459 OA
BRANCH   2   4
ATOM      3  C   LIG    1       31.319 -19.230   7.132  0.00  0.00    +0.136 C 
ATOM      4  C   LIG    1       31.113 -19.796   8.509  0.00  0.00    +0.304 C 
ATOM      5  O   LIG    1       31.994 -20.115   9.276  0.00  0.00    -0.251 OA
ENDBRANCH   2   4
ENDBRANCH   1   2
BRANCH   1   6
ATOM      6  C   LIG    1       28.224 -21.413   7.551  0.00  0.00    +0.174 C 
BRANCH   6   7
ATOM      7  N   LIG    1       26.674 -21.367   7.411  0.00  0.00    +0.239 N 
ATOM      8  C   LIG    1       26.018 -20.669   8.594  0.00  0.00    +0.192 C 
ATOM      9  C   LIG    1       26.061 -22.756   7.283  0.00  0.00    +0.192 C 
ATOM     10  C   LIG    1       26.347 -20.551   6.150  0.00  0.00    +0.192 C 
ENDBRANCH   6   7
ENDBRANCH   1   6
TORSDOF 4
ENDMDL
MODEL 4
REMARK VINA RESULT:      -4.5      3.474      5.630
REMARK  Name = *****
REMARK                            x       y       z     vdW  Elec       q    Type
REMARK                         _______ _______ _______ _____ _____    ______ ____
ROOT
ATOM      1  C   LIG    1       28.458 -20.919   7.450  0.00  0.00    +0.282 C 
ENDROOT
BRANCH   1   2
ATOM      2  O   LIG    1       27.477 -21.552   8.294  0.00  0.00    -0.459 OA
BRANCH   2   4
ATOM      3  C   LIG    1       25.639 -20.706   7.087  0.00  0.00    +0.136 C 
ATOM      4  C   LIG    1       26.305 -20.870   8.425  0.00  0.00    +0.304 C 
ATOM      5  O   LIG    1       25.872 -20.461   9.479  0.00  0.00    -0.251 OA
ENDBRANCH   2   4
ENDBRANCH   1   2
BRANCH   1   6
ATOM      6  C   LIG    1       29.047 -19.626   8.040  0.00  0.00    +0.174 C 
BRANCH   6   7
ATOM      7  N   LIG    1       30.585 -19.631   8.287  0.00  0.00    +0.239 N 
ATOM      8  C   LIG    1       30.983 -18.671   9.398  0.00  0.00    +0.192 C 
ATOM      9  C   LIG    1       31.375 -19.262   7.037  0.00  0.00    +0.192 C 
ATOM     10  C   LIG    1       30.977 -21.048   8.734  0.00  0.00    +0.192 C 
ENDBRANCH   6   7
ENDBRANCH   1   6
TORSDOF 4
ENDMDL
MODEL 5
REMARK VINA RESULT:      -4.5      3.613      5.748
REMARK  Name = *****
REMARK                            x       y       z     vdW  Elec       q    Type
REMARK                         _______ _______ _______ _____ _____    ______ ____
ROOT
ATOM      1  C   LIG    1       28.677 -21.108   7.462  0.00  0.00    +0.282 C 
ENDROOT
BRANCH   1   2
ATOM      2  O   LIG    1       27.708 -21.479   8.462  0.00  0.00    -0.459 OA
BRANCH   2   4
ATOM      3  C   LIG    1       26.156 -20.495   6.988  0.00  0.00    +0.136 C 
ATOM      4  C   LIG    1       26.535 -20.788   8.412  0.00  0.00    +0.304 C 
ATOM      5  O   LIG    1       25.898 -20.463   9.389  0.00  0.00    -0.251 OA
ENDBRANCH   2   4
ENDBRANCH   1   2
BRANCH   1   6
ATOM      6  C   LIG    1       30.013 -20.613   8.043  0.00  0.00    +0.174 C 
BRANCH   6   7
ATOM      7  N   LIG    1       30.313 -19.096   7.858  0.00  0.00    +0.239 N 
ATOM      8  C   LIG    1       31.806 -18.822   7.760  0.00  0.00    +0.192 C 
ATOM      9  C   LIG    1       29.751 -18.251   8.994  0.00  0.00    +0.192 C 
ATOM     10  C   LIG    1       29.670 -18.655   6.534  0.00  0.00    +0.192 C 
ENDBRANCH   6   7
ENDBRANCH   1   6
TORSDOF 4
ENDMDL
MODEL 6
REMARK VINA RESULT:      -4.4      1.254      1.974
REMARK  Name = *****
REMARK                            x       y       z     vdW  Elec       q    Type
REMARK                         _______ _______ _______ _____ _____    ______ ____
ROOT
ATOM      1  C   LIG    1       26.052 -23.000   7.028  0.00  0.00    +0.282 C 
ENDROOT
BRANCH   1   2
ATOM      2  O   LIG    1       25.967 -22.466   8.363  0.00  0.00    -0.459 OA
BRANCH   2   4
ATOM      3  C   LIG    1       26.512 -20.536   7.126  0.00  0.00    +0.136 C 
ATOM      4  C   LIG    1       26.100 -21.112   8.451  0.00  0.00    +0.304 C 
ATOM      5  O   LIG    1       25.907 -20.477   9.463  0.00  0.00    -0.251 OA
ENDBRANCH   2   4
ENDBRANCH   1   2
BRANCH   1   6
ATOM      6  C   LIG    1       25.904 -24.531   6.959  0.00  0.00    +0.174 C 
BRANCH   6   7
ATOM      7  N   LIG    1       24.665 -25.057   6.175  0.00  0.00    +0.239 N 
ATOM      8  C   LIG    1       23.386 -24.350   6.596  0.00  0.00    +0.192 C 
ATOM      9  C   LIG    1       24.458 -26.556   6.357  0.00  0.00    +0.192 C 
ATOM     10  C   LIG    1       24.897 -24.755   4.687  0.00  0.00    +0.192 C 
ENDBRANCH   6   7
ENDBRANCH   1   6
TORSDOF 4
ENDMDL
MODEL 7
REMARK VINA RESULT:      -4.4      2.895      4.834
REMARK  Name = *****
REMARK                            x       y       z     vdW  Elec       q    Type
REMARK                         _______ _______ _______ _____ _____    ______ ____
ROOT
ATOM      1  C   LIG    1       24.068 -23.776   6.846  0.00  0.00    +0.282 C 
ENDROOT
BRANCH   1   2
ATOM      2  O   LIG    1       23.520 -25.032   6.403  0.00  0.00    -0.459 OA
BRANCH   2   4
ATOM      3  C   LIG    1       24.351 -27.212   6.074  0.00  0.00    +0.136 C 
ATOM      4  C   LIG    1       24.350 -25.779   5.622  0.00  0.00    +0.304 C 
ATOM      5  O   LIG    1       24.989 -25.334   4.694  0.00  0.00    -0.251 OA
ENDBRANCH   2   4
ENDBRANCH   1   2
BRANCH   1   6
ATOM      6  C   LIG    1       23.145 -22.570   6.598  0.00  0.00    +0.174 C 
BRANCH   6   7
ATOM      7  N   LIG    1       23.832 -21.297   6.022  0.00  0.00    +0.239 N 
ATOM      8  C   LIG    1       24.926 -20.778   6.942  0.00  0.00    +0.192 C 
ATOM      9  C   LIG    1       22.842 -20.164   5.778  0.00  0.00    +0.192 C 
ATOM     10  C   LIG    1       24.490 -21.689   4.690  0.00  0.00    +0.192 C 
ENDBRANCH   6   7
ENDBRANCH   1   6
TORSDOF 4
ENDMDL
MODEL 8
REMARK VINA RESULT:      -4.3      2.301      3.541
REMARK  Name = *****
REMARK                            x       y       z     vdW  Elec       q    Type
REMARK                         _______ _______ _______ _____ _____    ______ ____
ROOT
ATOM      1  C   LIG    1       24.693 -20.880   5.561  0.00  0.00    +0.282 C 
ENDROOT
BRANCH   1   2
ATOM      2  O   LIG    1       23.447 -20.389   6.091  0.00  0.00    -0.459 OA
BRANCH   2   4
ATOM      3  C   LIG    1       22.460 -18.845   4.611  0.00  0.00    +0.136 C 
ATOM      4  C   LIG    1       22.451 -20.238   5.174  0.00  0.00    +0.304 C 
ATOM      5  O   LIG    1       21.675 -21.115   4.867  0.00  0.00    -0.251 OA
ENDBRANCH   2   4
ENDBRANCH   1   2
BRANCH   1   6
ATOM      6  C   LIG    1       24.613 -22.312   5.004  0.00  0.00    +0.174 C 
BRANCH   6   7
ATOM      7  N   LIG    1       24.753 -23.456   6.051  0.00  0.00    +0.239 N 
ATOM      8  C   LIG    1       23.430 -23.759   6.739  0.00  0.00    +0.192 C 
ATOM      9  C   LIG    1       25.782 -23.134   7.128  0.00  0.00    +0.192 C 
ATOM     10  C   LIG    1       25.187 -24.723   5.298  0.00  0.00    +0.192 C 
ENDBRANCH   6   7
ENDBRANCH   1   6
TORSDOF 4
ENDMDL
MODEL 9
REMARK VINA RESULT:      -4.3      4.610      6.134
REMARK  Name = *****
REMARK                            x       y       z     vdW  Elec       q    Type
REMARK                         _______ _______ _______ _____ _____    ______ ____
ROOT
ATOM      1  C   LIG    1       30.730 -19.154   8.911  0.00  0.00    +0.282 C 
ENDROOT
BRANCH   1   2
ATOM      2  O   LIG    1       30.800 -18.657  10.261  0.00  0.00    -0.459 OA
BRANCH   2   4
ATOM      3  C   LIG    1       32.200 -16.863   9.650  0.00  0.00    +0.136 C 
ATOM      4  C   LIG    1       30.958 -17.307  10.370  0.00  0.00    +0.304 C 
ATOM      5  O   LIG    1       30.195 -16.582  10.967  0.00  0.00    -0.251 OA
ENDBRANCH   2   4
ENDBRANCH   1   2
BRANCH   1   6
ATOM      6  C   LIG    1       29.381 -18.892   8.219  0.00  0.00    +0.174 C 
BRANCH   6   7
ATOM      7  N   LIG    1       28.715 -20.125   7.541  0.00  0.00    +0.239 N 
ATOM      8  C   LIG    1       28.774 -20.038   6.023  0.00  0.00    +0.192 C 
ATOM      9  C   LIG    1       27.256 -20.293   7.948  0.00  0.00    +0.192 C 
ATOM     10  C   LIG    1       29.506 -21.371   7.967  0.00  0.00    +0.192 C 
ENDBRANCH   6   7
ENDBRANCH   1   6
TORSDOF 4
ENDMDL
