MODEL 1
REMARK VINA RESULT:      -8.2      0.000      0.000
REMARK  Name = *****
REMARK                            x       y       z     vdW  Elec       q    Type
REMARK                         _______ _______ _______ _____ _____    ______ ____
ROOT
ATOM      1  C   LIG    1       24.743 -22.167   5.357  0.00  0.00    +0.137 A 
ATOM      2  C   LIG    1       25.337 -21.446   6.386  0.00  0.00    +0.052 A 
ATOM      3  C   LIG    1       26.128 -22.083   7.354  0.00  0.00    -0.011 A 
ATOM      4  C   LIG    1       26.295 -23.471   7.283  0.00  0.00    +0.052 A 
ATOM      5  C   LIG    1       25.659 -24.191   6.274  0.00  0.00    +0.137 A 
ATOM      6  C   LIG    1       24.887 -23.552   5.301  0.00  0.00    +0.092 A 
ENDROOT
BRANCH   1   7
ATOM      7  O   LIG    1       23.988 -21.556   4.332  0.00  0.00    -0.411 OA
BRANCH   7  10
ATOM      8  C   LIG    1       24.480 -18.986   3.667  0.00  0.00    +0.135 C 
ATOM      9  N   LIG    1       23.213 -19.368   4.253  0.00  0.00    -0.273 N 
ATOM     10  C   LIG    1       22.917 -20.682   4.579  0.00  0.00    +0.408 C 
ATOM     11  O   LIG    1       21.830 -21.012   5.047  0.00  0.00    -0.226 OA
ATOM     12  C   LIG    1       22.140 -18.390   4.247  0.00  0.00    +0.135 C 
ENDBRANCH   7  10
ENDBRANCH   1   7
BRANCH   3  13
ATOM     13  C   LIG    1       26.874 -21.272   8.397  0.00  0.00    +0.158 C 
BRANCH  13  14
ATOM     14  O   LIG    1       25.936 -20.663   9.284  0.00  0.00    -0.386 OA
ATOM     15  H   LIG    1       25.915 -21.206  10.090  0.00  0.00    +0.210 HD
ENDBRANCH  13  14
BRANCH  13  16
ATOM     16  C   LIG    1       27.768 -20.224   7.686  0.00  0.00    +0.117 C 
BRANCH  16  17
ATOM     17  N   LIG    1       28.681 -19.471   8.572  0.00  0.00    -0.308 NA
ATOM     18  H   LIG    1       28.794 -19.996   9.442  0.00  0.00    +0.122 HD
BRANCH  17  19
ATOM     19  C   LIG    1       30.016 -19.209   7.982  0.00  0.00    +0.011 C 
ATOM     20  C   LIG    1       30.982 -20.376   8.248  0.00  0.00    +0.027 C 
ATOM     21  C   LIG    1       30.611 -17.945   8.643  0.00  0.00    +0.027 C 
ATOM     22  C   LIG    1       29.919 -18.962   6.465  0.00  0.00    +0.027 C 
ENDBRANCH  17  19
ENDBRANCH  16  17
ENDBRANCH  13  16
ENDBRANCH   3  13
BRANCH   5  23
ATOM     23  O   LIG    1       25.831 -25.579   6.105  0.00  0.00    -0.411 OA
BRANCH  23  24
ATOM     24  C   LIG    1       24.767 -26.485   6.076  0.00  0.00    +0.408 C 
ATOM     25  N   LIG    1       25.106 -27.662   6.738  0.00  0.00    -0.273 N 
ATOM     26  C   LIG    1       26.162 -27.725   7.732  0.00  0.00    +0.135 C 
ATOM     27  C   LIG    1       24.271 -28.835   6.576  0.00  0.00    +0.135 C 
ATOM     28  O   LIG    1       23.710 -26.303   5.508  0.00  0.00    -0.226 OA
ENDBRANCH  23  24
ENDBRANCH   5  23
TORSDOF 9
ENDMDL
MODEL 2
REMARK VINA RESULT:      -8.2      0.761      5.716
REMARK  Name = *****
REMARK                            x       y       z     vdW  Elec       q    Type
REMARK                         _______ _______ _______ _____ _____    ______ ____
ROOT
ATOM      1  C   LIG    1       25.046 -24.439   6.309  0.00  0.00    +0.137 A 
ATOM      2  C   LIG    1       25.871 -23.861   7.267  0.00  0.00    +0.052 A 
ATOM      3  C   LIG    1       26.121 -22.480   7.269  0.00  0.00    -0.011 A 
ATOM      4  C   LIG    1       25.542 -21.687   6.270  0.00  0.00    +0.052 A 
ATOM      5  C   LIG    1       24.754 -22.283   5.288  0.00  0.00    +0.137 A 
ATOM      6  C   LIG    1       24.492 -23.655   5.299  0.00  0.00    +0.092 A 
ENDROOT
BRANCH   1   7
ATOM      7  O   LIG    1       24.724 -25.814   6.307  0.00  0.00    -0.411 OA
BRANCH   7  10
ATOM      8  C   LIG    1       24.456 -28.379   7.104  0.00  0.00    +0.135 C 
ATOM      9  N   LIG    1       25.205 -28.052   5.909  0.00  0.00    -0.273 N 
ATOM     10  C   LIG    1       25.337 -26.749   5.457  0.00  0.00    +0.408 C 
ATOM     11  O   LIG    1       25.945 -26.472   4.426  0.00  0.00    -0.226 OA
ATOM     12  C   LIG    1       25.593 -29.140   5.031  0.00  0.00    +0.135 C 
ENDBRANCH   7  10
ENDBRANCH   1   7
BRANCH   3  13
ATOM     13  C   LIG    1       26.917 -21.842   8.391  0.00  0.00    +0.158 C 
BRANCH  13  14
ATOM     14  O   LIG    1       26.077 -20.949   9.121  0.00  0.00    -0.386 OA
ATOM     15  H   LIG    1       25.185 -21.024   8.740  0.00  0.00    +0.210 HD
ENDBRANCH  13  14
BRANCH  13  16
ATOM     16  C   LIG    1       28.154 -21.121   7.794  0.00  0.00    +0.117 C 
BRANCH  16  17
ATOM     17  N   LIG    1       28.464 -19.805   8.392  0.00  0.00    -0.308 NA
ATOM     18  H   LIG    1       28.445 -19.899   9.410  0.00  0.00    +0.122 HD
BRANCH  17  19
ATOM     19  C   LIG    1       29.773 -19.246   7.977  0.00  0.00    +0.011 C 
ATOM     20  C   LIG    1       30.147 -18.015   8.821  0.00  0.00    +0.027 C 
ATOM     21  C   LIG    1       29.675 -18.794   6.503  0.00  0.00    +0.027 C 
ATOM     22  C   LIG    1       30.892 -20.299   8.087  0.00  0.00    +0.027 C 
ENDBRANCH  17  19
ENDBRANCH  16  17
ENDBRANCH  13  16
ENDBRANCH   3  13
BRANCH   5  23
ATOM     23  O   LIG    1       24.091 -21.541   4.290  0.00  0.00    -0.411 OA
BRANCH  23  24
ATOM     24  C   LIG    1       22.960 -20.760   4.543  0.00  0.00    +0.408 C 
ATOM     25  N   LIG    1       23.228 -19.415   4.301  0.00  0.00    -0.273 N 
ATOM     26  C   LIG    1       24.306 -18.975   3.435  0.00  0.00    +0.135 C 
ATOM     27  C   LIG    1       22.301 -18.408   4.777  0.00  0.00    +0.135 C 
ATOM     28  O   LIG    1       21.903 -21.179   4.969  0.00  0.00    -0.226 OA
ENDBRANCH  23  24
ENDBRANCH   5  23
TORSDOF 9
ENDMDL
MODEL 3
REMARK VINA RESULT:      -7.7      1.914      7.010
REMARK  Name = *****
REMARK                            x       y       z     vdW  Elec       q    Type
REMARK                         _______ _______ _______ _____ _____    ______ ____
ROOT
ATOM      1  C   LIG    1       25.539 -22.261   7.075  0.00  0.00    +0.137 A 
ATOM      2  C   LIG    1       25.230 -21.710   5.837  0.00  0.00    +0.052 A 
ATOM      3  C   LIG    1       25.911 -20.582   5.357  0.00  0.00    -0.011 A 
ATOM      4  C   LIG    1       26.901 -19.998   6.157  0.00  0.00    +0.052 A 
ATOM      5  C   LIG    1       27.172 -20.530   7.416  0.00  0.00    +0.137 A 
ATOM      6  C   LIG    1       26.505 -21.665   7.884  0.00  0.00    +0.092 A 
ENDROOT
BRANCH   1   7
ATOM      7  O   LIG    1       24.917 -23.429   7.570  0.00  0.00    -0.411 OA
BRANCH   7  10
ATOM      8  C   LIG    1       26.234 -25.443   6.347  0.00  0.00    +0.135 C 
ATOM      9  N   LIG    1       24.811 -25.264   6.150  0.00  0.00    -0.273 N 
ATOM     10  C   LIG    1       24.100 -24.258   6.785  0.00  0.00    +0.408 C 
ATOM     11  O   LIG    1       22.887 -24.125   6.643  0.00  0.00    -0.226 OA
ATOM     12  C   LIG    1       24.079 -26.325   5.484  0.00  0.00    +0.135 C 
ENDBRANCH   7  10
ENDBRANCH   1   7
BRANCH   3  13
ATOM     13  C   LIG    1       25.655 -20.065   3.954  0.00  0.00    +0.158 C 
BRANCH  13  14
ATOM     14  O   LIG    1       26.165 -18.737   3.837  0.00  0.00    -0.386 OA
ATOM     15  H   LIG    1       26.989 -18.704   4.353  0.00  0.00    +0.210 HD
ENDBRANCH  13  14
BRANCH  13  16
ATOM     16  C   LIG    1       24.136 -20.134   3.653  0.00  0.00    +0.117 C 
BRANCH  16  17
ATOM     17  N   LIG    1       23.482 -18.830   3.413  0.00  0.00    -0.308 NA
ATOM     18  H   LIG    1       23.162 -18.802   2.443  0.00  0.00    +0.122 HD
BRANCH  17  19
ATOM     19  C   LIG    1       22.336 -18.555   4.314  0.00  0.00    +0.011 C 
ATOM     20  C   LIG    1       22.364 -17.103   4.823  0.00  0.00    +0.027 C 
ATOM     21  C   LIG    1       22.434 -19.487   5.542  0.00  0.00    +0.027 C 
ATOM     22  C   LIG    1       20.994 -18.823   3.609  0.00  0.00    +0.027 C 
ENDBRANCH  17  19
ENDBRANCH  16  17
ENDBRANCH  13  16
ENDBRANCH   3  13
BRANCH   5  23
ATOM     23  O   LIG    1       28.194 -20.034   8.248  0.00  0.00    -0.411 OA
BRANCH  23  24
ATOM     24  C   LIG    1       29.553 -20.262   8.011  0.00  0.00    +0.408 C 
ATOM     25  N   LIG    1       30.291 -19.102   8.227  0.00  0.00    -0.273 N 
ATOM     26  C   LIG    1       29.814 -18.014   9.061  0.00  0.00    +0.135 C 
ATOM     27  C   LIG    1       31.660 -19.032   7.758  0.00  0.00    +0.135 C 
ATOM     28  O   LIG    1       30.026 -21.308   7.616  0.00  0.00    -0.226 OA
ENDBRANCH  23  24
ENDBRANCH   5  23
TORSDOF 9
ENDMDL
MODEL 4
REMARK VINA RESULT:      -7.6      1.535      6.992
REMARK  Name = *****
REMARK                            x       y       z     vdW  Elec       q    Type
REMARK                         _______ _______ _______ _____ _____    ______ ____
ROOT
ATOM      1  C   LIG    1       25.780 -23.979   6.823  0.00  0.00    +0.137 A 
ATOM      2  C   LIG    1       24.442 -23.643   6.653  0.00  0.00    +0.052 A 
ATOM      3  C   LIG    1       24.003 -22.319   6.804  0.00  0.00    -0.011 A 
ATOM      4  C   LIG    1       24.935 -21.334   7.155  0.00  0.00    +0.052 A 
ATOM      5  C   LIG    1       26.265 -21.689   7.368  0.00  0.00    +0.137 A 
ATOM      6  C   LIG    1       26.703 -23.005   7.198  0.00  0.00    +0.092 A 
ENDROOT
BRANCH   1   7
ATOM      7  O   LIG    1       26.271 -25.288   6.623  0.00  0.00    -0.411 OA
BRANCH   7  10
ATOM      8  C   LIG    1       25.723 -27.798   7.453  0.00  0.00    +0.135 C 
ATOM      9  N   LIG    1       25.560 -27.428   6.063  0.00  0.00    -0.273 N 
ATOM     10  C   LIG    1       25.805 -26.141   5.610  0.00  0.00    +0.408 C 
ATOM     11  O   LIG    1       25.637 -25.817   4.437  0.00  0.00    -0.226 OA
ATOM     12  C   LIG    1       24.871 -28.358   5.188  0.00  0.00    +0.135 C 
ENDBRANCH   7  10
ENDBRANCH   1   7
BRANCH   3  13
ATOM     13  C   LIG    1       22.567 -21.942   6.493  0.00  0.00    +0.158 C 
BRANCH  13  14
ATOM     14  O   LIG    1       21.804 -23.127   6.267  0.00  0.00    -0.386 OA
ATOM     15  H   LIG    1       22.246 -23.845   6.751  0.00  0.00    +0.210 HD
ENDBRANCH  13  14
BRANCH  13  16
ATOM     16  C   LIG    1       22.542 -20.991   5.269  0.00  0.00    +0.117 C 
BRANCH  16  17
ATOM     17  N   LIG    1       22.476 -19.550   5.593  0.00  0.00    -0.308 NA
ATOM     18  H   LIG    1       23.296 -19.306   6.152  0.00  0.00    +0.122 HD
BRANCH  17  19
ATOM     19  C   LIG    1       22.415 -18.665   4.404  0.00  0.00    +0.011 C 
ATOM     20  C   LIG    1       23.663 -18.833   3.520  0.00  0.00    +0.027 C 
ATOM     21  C   LIG    1       22.368 -17.196   4.880  0.00  0.00    +0.027 C 
ATOM     22  C   LIG    1       21.154 -18.942   3.564  0.00  0.00    +0.027 C 
ENDBRANCH  17  19
ENDBRANCH  16  17
ENDBRANCH  13  16
ENDBRANCH   3  13
BRANCH   5  23
ATOM     23  O   LIG    1       27.267 -20.743   7.662  0.00  0.00    -0.411 OA
BRANCH  23  24
ATOM     24  C   LIG    1       28.097 -20.179   6.687  0.00  0.00    +0.408 C 
ATOM     25  N   LIG    1       29.407 -20.095   7.149  0.00  0.00    -0.273 N 
ATOM     26  C   LIG    1       29.915 -20.928   8.223  0.00  0.00    +0.135 C 
ATOM     27  C   LIG    1       30.364 -19.281   6.427  0.00  0.00    +0.135 C 
ATOM     28  O   LIG    1       27.725 -19.765   5.609  0.00  0.00    -0.226 OA
ENDBRANCH  23  24
ENDBRANCH   5  23
TORSDOF 9
ENDMDL
MODEL 5
REMARK VINA RESULT:      -7.4      2.041      6.184
REMARK  Name = *****
REMARK                            x       y       z     vdW  Elec       q    Type
REMARK                         _______ _______ _______ _____ _____    ______ ____
ROOT
ATOM      1  C   LIG    1       27.532 -20.375   7.235  0.00  0.00    +0.137 A 
ATOM      2  C   LIG    1       27.227 -19.892   5.968  0.00  0.00    +0.052 A 
ATOM      3  C   LIG    1       26.212 -20.477   5.195  0.00  0.00    -0.011 A 
ATOM      4  C   LIG    1       25.519 -21.579   5.712  0.00  0.00    +0.052 A 
ATOM      5  C   LIG    1       25.863 -22.084   6.964  0.00  0.00    +0.137 A 
ATOM      6  C   LIG    1       26.861 -21.488   7.739  0.00  0.00    +0.092 A 
ENDROOT
BRANCH   1   7
ATOM      7  O   LIG    1       28.506 -19.780   8.067  0.00  0.00    -0.411 OA
BRANCH   7  10
ATOM      8  C   LIG    1       29.810 -17.998   9.620  0.00  0.00    +0.135 C 
ATOM      9  N   LIG    1       30.443 -18.554   8.443  0.00  0.00    -0.273 N 
ATOM     10  C   LIG    1       29.812 -19.492   7.641  0.00  0.00    +0.408 C 
ATOM     11  O   LIG    1       30.360 -19.988   6.659  0.00  0.00    -0.226 OA
ATOM     12  C   LIG    1       31.863 -18.319   8.260  0.00  0.00    +0.135 C 
ENDBRANCH   7  10
ENDBRANCH   1   7
BRANCH   3  13
ATOM     13  C   LIG    1       25.802 -19.865   3.870  0.00  0.00    +0.158 C 
BRANCH  13  14
ATOM     14  O   LIG    1       26.169 -18.485   3.851  0.00  0.00    -0.386 OA
ATOM     15  H   LIG    1       26.573 -18.288   4.713  0.00  0.00    +0.210 HD
ENDBRANCH  13  14
BRANCH  13  16
ATOM     16  C   LIG    1       24.278 -20.064   3.665  0.00  0.00    +0.117 C 
BRANCH  16  17
ATOM     17  N   LIG    1       23.510 -18.826   3.412  0.00  0.00    -0.308 NA
ATOM     18  H   LIG    1       23.162 -18.851   2.451  0.00  0.00    +0.122 HD
BRANCH  17  19
ATOM     19  C   LIG    1       22.370 -18.623   4.339  0.00  0.00    +0.011 C 
ATOM     20  C   LIG    1       21.027 -18.892   3.639  0.00  0.00    +0.027 C 
ATOM     21  C   LIG    1       22.370 -17.151   4.811  0.00  0.00    +0.027 C 
ATOM     22  C   LIG    1       22.489 -19.528   5.580  0.00  0.00    +0.027 C 
ENDBRANCH  17  19
ENDBRANCH  16  17
ENDBRANCH  13  16
ENDBRANCH   3  13
BRANCH   5  23
ATOM     23  O   LIG    1       25.169 -23.149   7.572  0.00  0.00    -0.411 OA
BRANCH  23  24
ATOM     24  C   LIG    1       24.210 -23.917   6.905  0.00  0.00    +0.408 C 
ATOM     25  N   LIG    1       24.788 -25.060   6.361  0.00  0.00    -0.273 N 
ATOM     26  C   LIG    1       26.033 -25.620   6.855  0.00  0.00    +0.135 C 
ATOM     27  C   LIG    1       24.048 -25.837   5.387  0.00  0.00    +0.135 C 
ATOM     28  O   LIG    1       23.044 -23.609   6.765  0.00  0.00    -0.226 OA
ENDBRANCH  23  24
ENDBRANCH   5  23
TORSDOF 9
ENDMDL
MODEL 6
REMARK VINA RESULT:      -7.4      2.535      5.775
REMARK  Name = *****
REMARK                            x       y       z     vdW  Elec       q    Type
REMARK                         _______ _______ _______ _____ _____    ______ ____
ROOT
ATOM      1  C   LIG    1       27.298 -21.523   7.518  0.00  0.00    +0.137 A 
ATOM      2  C   LIG    1       28.599 -21.277   7.942  0.00  0.00    +0.052 A 
ATOM      3  C   LIG    1       29.421 -20.364   7.266  0.00  0.00    -0.011 A 
ATOM      4  C   LIG    1       28.919 -19.713   6.132  0.00  0.00    +0.052 A 
ATOM      5  C   LIG    1       27.630 -20.000   5.688  0.00  0.00    +0.137 A 
ATOM      6  C   LIG    1       26.806 -20.896   6.374  0.00  0.00    +0.092 A 
ENDROOT
BRANCH   1   7
ATOM      7  O   LIG    1       26.420 -22.390   8.204  0.00  0.00    -0.411 OA
BRANCH   7  10
ATOM      8  C   LIG    1       25.960 -24.567   6.675  0.00  0.00    +0.135 C 
ATOM      9  N   LIG    1       24.877 -23.677   7.038  0.00  0.00    -0.273 N 
ATOM     10  C   LIG    1       25.074 -22.568   7.845  0.00  0.00    +0.408 C 
ATOM     11  O   LIG    1       24.151 -21.830   8.179  0.00  0.00    -0.226 OA
ATOM     12  C   LIG    1       23.520 -24.114   6.767  0.00  0.00    +0.135 C 
ENDBRANCH   7  10
ENDBRANCH   1   7
BRANCH   3  13
ATOM     13  C   LIG    1       30.792 -20.010   7.810  0.00  0.00    +0.158 C 
BRANCH  13  14
ATOM     14  O   LIG    1       31.556 -21.203   7.986  0.00  0.00    -0.386 OA
ATOM     15  H   LIG    1       32.150 -21.274   7.219  0.00  0.00    +0.210 HD
ENDBRANCH  13  14
BRANCH  13  16
ATOM     16  C   LIG    1       30.627 -19.223   9.136  0.00  0.00    +0.117 C 
BRANCH  16  17
ATOM     17  N   LIG    1       31.863 -18.602   9.656  0.00  0.00    -0.308 NA
ATOM     18  H   LIG    1       32.571 -18.622   8.919  0.00  0.00    +0.122 HD
BRANCH  17  19
ATOM     19  C   LIG    1       31.687 -17.205  10.126  0.00  0.00    +0.011 C 
ATOM     20  C   LIG    1       32.703 -16.261   9.461  0.00  0.00    +0.027 C 
ATOM     21  C   LIG    1       31.928 -17.160  11.651  0.00  0.00    +0.027 C 
ATOM     22  C   LIG    1       30.260 -16.698   9.847  0.00  0.00    +0.027 C 
ENDBRANCH  17  19
ENDBRANCH  16  17
ENDBRANCH  13  16
ENDBRANCH   3  13
BRANCH   5  23
ATOM     23  O   LIG    1       27.038 -19.339   4.593  0.00  0.00    -0.411 OA
BRANCH  23  24
ATOM     24  C   LIG    1       25.754 -19.635   4.124  0.00  0.00    +0.408 C 
ATOM     25  N   LIG    1       25.106 -18.477   3.705  0.00  0.00    -0.273 N 
ATOM     26  C   LIG    1       25.821 -17.273   3.323  0.00  0.00    +0.135 C 
ATOM     27  C   LIG    1       23.678 -18.509   3.463  0.00  0.00    +0.135 C 
ATOM     28  O   LIG    1       25.246 -20.737   4.130  0.00  0.00    -0.226 OA
ENDBRANCH  23  24
ENDBRANCH   5  23
TORSDOF 9
ENDMDL
MODEL 7
REMARK VINA RESULT:      -7.4      1.813      6.600
REMARK  Name = *****
REMARK                            x       y       z     vdW  Elec       q    Type
REMARK                         _______ _______ _______ _____ _____    ______ ____
ROOT
ATOM      1  C   LIG    1       25.114 -21.020   4.773  0.00  0.00    +0.137 A 
ATOM      2  C   LIG    1       24.769 -22.305   5.174  0.00  0.00    +0.052 A 
ATOM      3  C   LIG    1       25.374 -22.903   6.290  0.00  0.00    -0.011 A 
ATOM      4  C   LIG    1       26.356 -22.190   6.989  0.00  0.00    +0.052 A 
ATOM      5  C   LIG    1       26.728 -20.920   6.553  0.00  0.00    +0.137 A 
ATOM      6  C   LIG    1       26.111 -20.320   5.452  0.00  0.00    +0.092 A 
ENDROOT
BRANCH   1   7
ATOM      7  O   LIG    1       24.489 -20.362   3.692  0.00  0.00    -0.411 OA
BRANCH   7  10
ATOM      8  C   LIG    1       22.005 -20.090   4.712  0.00  0.00    +0.135 C 
ATOM      9  N   LIG    1       22.746 -18.933   4.257  0.00  0.00    -0.273 N 
ATOM     10  C   LIG    1       24.034 -19.035   3.755  0.00  0.00    +0.408 C 
ATOM     11  O   LIG    1       24.677 -18.051   3.397  0.00  0.00    -0.226 OA
ATOM     12  C   LIG    1       22.225 -17.619   4.585  0.00  0.00    +0.135 C 
ENDBRANCH   7  10
ENDBRANCH   1   7
BRANCH   3  13
ATOM     13  C   LIG    1       24.900 -24.253   6.794  0.00  0.00    +0.158 C 
BRANCH  13  14
ATOM     14  O   LIG    1       25.919 -24.841   7.602  0.00  0.00    -0.386 OA
ATOM     15  H   LIG    1       25.661 -24.701   8.530  0.00  0.00    +0.210 HD
ENDBRANCH  13  14
BRANCH  13  16
ATOM     16  C   LIG    1       24.527 -25.148   5.584  0.00  0.00    +0.117 C 
BRANCH  16  17
ATOM     17  N   LIG    1       23.976 -26.475   5.930  0.00  0.00    -0.308 NA
ATOM     18  H   LIG    1       23.172 -26.659   5.326  0.00  0.00    +0.122 HD
BRANCH  17  19
ATOM     19  C   LIG    1       24.950 -27.587   5.798  0.00  0.00    +0.011 C 
ATOM     20  C   LIG    1       26.176 -27.159   4.973  0.00  0.00    +0.027 C 
ATOM     21  C   LIG    1       24.268 -28.758   5.056  0.00  0.00    +0.027 C 
ATOM     22  C   LIG    1       25.413 -28.091   7.177  0.00  0.00    +0.027 C 
ENDBRANCH  17  19
ENDBRANCH  16  17
ENDBRANCH  13  16
ENDBRANCH   3  13
BRANCH   5  23
ATOM     23  O   LIG    1       27.662 -20.122   7.242  0.00  0.00    -0.411 OA
BRANCH  23  24
ATOM     24  C   LIG    1       28.835 -19.637   6.654  0.00  0.00    +0.408 C 
ATOM     25  N   LIG    1       29.950 -20.034   7.387  0.00  0.00    -0.273 N 
ATOM     26  C   LIG    1       29.936 -21.180   8.276  0.00  0.00    +0.135 C 
ATOM     27  C   LIG    1       31.230 -19.403   7.131  0.00  0.00    +0.135 C 
ATOM     28  O   LIG    1       28.881 -18.922   5.675  0.00  0.00    -0.226 OA
ENDBRANCH  23  24
ENDBRANCH   5  23
TORSDOF 9
ENDMDL
MODEL 8
REMARK VINA RESULT:      -7.3      4.459      8.861
REMARK  Name = *****
REMARK                            x       y       z     vdW  Elec       q    Type
REMARK                         _______ _______ _______ _____ _____    ______ ____
ROOT
ATOM      1  C   LIG    1       25.216 -30.817   6.128  0.00  0.00    +0.137 A 
ATOM      2  C   LIG    1       25.231 -29.689   5.315  0.00  0.00    +0.052 A 
ATOM      3  C   LIG    1       25.230 -28.399   5.867  0.00  0.00    -0.011 A 
ATOM      4  C   LIG    1       25.188 -28.260   7.260  0.00  0.00    +0.052 A 
ATOM      5  C   LIG    1       25.126 -29.396   8.064  0.00  0.00    +0.137 A 
ATOM      6  C   LIG    1       25.147 -30.680   7.513  0.00  0.00    +0.092 A 
ENDROOT
BRANCH   1   7
ATOM      7  O   LIG    1       25.275 -32.131   5.613  0.00  0.00    -0.411 OA
BRANCH   7  10
ATOM      8  C   LIG    1       25.461 -33.092   3.097  0.00  0.00    +0.135 C 
ATOM      9  N   LIG    1       26.530 -33.303   4.050  0.00  0.00    -0.273 N 
ATOM     10  C   LIG    1       26.479 -32.798   5.339  0.00  0.00    +0.408 C 
ATOM     11  O   LIG    1       27.400 -32.950   6.139  0.00  0.00    -0.226 OA
ATOM     12  C   LIG    1       27.790 -33.824   3.552  0.00  0.00    +0.135 C 
ENDBRANCH   7  10
ENDBRANCH   1   7
BRANCH   3  13
ATOM     13  C   LIG    1       25.375 -27.179   4.978  0.00  0.00    +0.158 C 
BRANCH  13  14
ATOM     14  O   LIG    1       26.742 -26.768   4.956  0.00  0.00    -0.386 OA
ATOM     15  H   LIG    1       26.937 -26.483   4.047  0.00  0.00    +0.210 HD
ENDBRANCH  13  14
BRANCH  13  16
ATOM     16  C   LIG    1       24.438 -26.056   5.493  0.00  0.00    +0.117 C 
BRANCH  16  17
ATOM     17  N   LIG    1       24.734 -24.704   4.976  0.00  0.00    -0.308 NA
ATOM     18  H   LIG    1       24.077 -24.494   4.221  0.00  0.00    +0.122 HD
BRANCH  17  19
ATOM     19  C   LIG    1       24.658 -23.635   6.001  0.00  0.00    +0.011 C 
ATOM     20  C   LIG    1       23.328 -23.694   6.771  0.00  0.00    +0.027 C 
ATOM     21  C   LIG    1       24.734 -22.263   5.295  0.00  0.00    +0.027 C 
ATOM     22  C   LIG    1       25.829 -23.731   6.998  0.00  0.00    +0.027 C 
ENDBRANCH  17  19
ENDBRANCH  16  17
ENDBRANCH  13  16
ENDBRANCH   3  13
BRANCH   5  23
ATOM     23  O   LIG    1       25.145 -29.334   9.472  0.00  0.00    -0.411 OA
BRANCH  23  24
ATOM     24  C   LIG    1       26.272 -28.954  10.207  0.00  0.00    +0.408 C 
ATOM     25  N   LIG    1       25.908 -28.538  11.484  0.00  0.00    -0.273 N 
ATOM     26  C   LIG    1       24.662 -28.936  12.112  0.00  0.00    +0.135 C 
ATOM     27  C   LIG    1       26.871 -27.829  12.302  0.00  0.00    +0.135 C 
ATOM     28  O   LIG    1       27.408 -28.933   9.780  0.00  0.00    -0.226 OA
ENDBRANCH  23  24
ENDBRANCH   5  23
TORSDOF 9
ENDMDL
MODEL 9
REMARK VINA RESULT:      -7.3      4.413      8.710
REMARK  Name = *****
REMARK                            x       y       z     vdW  Elec       q    Type
REMARK                         _______ _______ _______ _____ _____    ______ ____
ROOT
ATOM      1  C   LIG    1       24.444 -29.923   7.825  0.00  0.00    +0.137 A 
ATOM      2  C   LIG    1       24.393 -29.107   6.701  0.00  0.00    +0.052 A 
ATOM      3  C   LIG    1       25.230 -27.988   6.580  0.00  0.00    -0.011 A 
ATOM      4  C   LIG    1       26.109 -27.685   7.627  0.00  0.00    +0.052 A 
ATOM      5  C   LIG    1       26.120 -28.482   8.769  0.00  0.00    +0.137 A 
ATOM      6  C   LIG    1       25.299 -29.608   8.879  0.00  0.00    +0.092 A 
ENDROOT
BRANCH   1   7
ATOM      7  O   LIG    1       23.660 -31.090   7.959  0.00  0.00    -0.411 OA
BRANCH   7  10
ATOM      8  C   LIG    1       24.503 -33.419   9.034  0.00  0.00    +0.135 C 
ATOM      9  N   LIG    1       23.440 -32.659   9.658  0.00  0.00    -0.273 N 
ATOM     10  C   LIG    1       23.005 -31.446   9.149  0.00  0.00    +0.408 C 
ATOM     11  O   LIG    1       22.125 -30.786   9.695  0.00  0.00    -0.226 OA
ATOM     12  C   LIG    1       23.016 -33.052  10.989  0.00  0.00    +0.135 C 
ENDBRANCH   7  10
ENDBRANCH   1   7
BRANCH   3  13
ATOM     13  C   LIG    1       25.257 -27.179   5.297  0.00  0.00    +0.158 C 
BRANCH  13  14
ATOM     14  O   LIG    1       26.592 -26.747   5.037  0.00  0.00    -0.386 OA
ATOM     15  H   LIG    1       26.531 -25.854   4.655  0.00  0.00    +0.210 HD
ENDBRANCH  13  14
BRANCH  13  16
ATOM     16  C   LIG    1       24.273 -25.987   5.423  0.00  0.00    +0.117 C 
BRANCH  16  17
ATOM     17  N   LIG    1       24.807 -24.682   4.981  0.00  0.00    -0.308 NA
ATOM     18  H   LIG    1       24.313 -24.400   4.132  0.00  0.00    +0.122 HD
BRANCH  17  19
ATOM     19  C   LIG    1       24.688 -23.606   5.996  0.00  0.00    +0.011 C 
ATOM     20  C   LIG    1       25.803 -23.708   7.051  0.00  0.00    +0.027 C 
ATOM     21  C   LIG    1       23.334 -23.758   6.724  0.00  0.00    +0.027 C 
ATOM     22  C   LIG    1       24.731 -22.212   5.341  0.00  0.00    +0.027 C 
ENDBRANCH  17  19
ENDBRANCH  16  17
ENDBRANCH  13  16
ENDBRANCH   3  13
BRANCH   5  23
ATOM     23  O   LIG    1       27.020 -28.275   9.834  0.00  0.00    -0.411 OA
BRANCH  23  24
ATOM     24  C   LIG    1       27.386 -29.280  10.734  0.00  0.00    +0.408 C 
ATOM     25  N   LIG    1       27.064 -28.913  12.037  0.00  0.00    -0.273 N 
ATOM     26  C   LIG    1       26.053 -27.918  12.344  0.00  0.00    +0.135 C 
ATOM     27  C   LIG    1       27.618 -29.665  13.145  0.00  0.00    +0.135 C 
ATOM     28  O   LIG    1       27.958 -30.309  10.436  0.00  0.00    -0.226 OA
ENDBRANCH  23  24
ENDBRANCH   5  23
TORSDOF 9
ENDMDL
