MODEL 1
REMARK VINA RESULT:      -5.5      0.000      0.000
REMARK  Name = *****
REMARK                            x       y       z     vdW  Elec       q    Type
REMARK                         _______ _______ _______ _____ _____    ______ ____
ROOT
ATOM      1  C   LIG    1       22.806 -31.059  12.796  0.00  0.00    +0.112 C 
ATOM      2  C   LIG    1       24.343 -31.126  13.002  0.00  0.00    +0.217 C 
ATOM      3  O   LIG    1       25.236 -31.962  13.768  0.00  0.00    -0.481 OA
ATOM      4  C   LIG    1       26.412 -31.216  13.512  0.00  0.00    +0.166 A 
ATOM      5  C   LIG    1       26.276 -30.490  12.323  0.00  0.00    +0.011 A 
ATOM      6  C   LIG    1       27.081 -29.476  11.882  0.00  0.00    -0.038 A 
ATOM      7  C   LIG    1       28.190 -29.224  12.690  0.00  0.00    +0.008 A 
ATOM      8  C   LIG    1       28.403 -29.977  13.884  0.00  0.00    +0.049 A 
ATOM      9  C   LIG    1       26.612 -28.700  10.666  0.00  0.00    +0.055 C 
ATOM     10  C   LIG    1       25.344 -29.317   9.870  0.00  0.00    +0.068 C 
ATOM     11  N   LIG    1       25.863 -30.342   8.916  0.00  0.00    -0.298 NA
ATOM     12  C   LIG    1       26.286 -31.602   9.549  0.00  0.00    +0.086 C 
ATOM     13  C   LIG    1       25.456 -32.100  10.758  0.00  0.00    +0.031 C 
ATOM     14  C   LIG    1       24.256 -29.882  10.853  0.00  0.00    +0.000 C 
ATOM     15  C   LIG    1       23.578 -28.815  11.781  0.00  0.00    +0.018 C 
ATOM     16  C   LIG    1       23.021 -30.622  10.263  0.00  0.00    +0.012 C 
ATOM     17  C   LIG    1       27.500 -30.969  14.314  0.00  0.00    +0.159 A 
ATOM     18  C   LIG    1       25.028 -30.915  11.663  0.00  0.00    +0.047 C 
ATOM     19  C   LIG    1       22.479 -29.469  12.780  0.00  0.00    +0.057 C 
ATOM     20  C   LIG    1       22.370 -31.495  11.362  0.00  0.00    +0.039 C 
ENDROOT
BRANCH   1  22
ATOM     21  C   LIG    1       20.772 -32.210  13.344  0.00  0.00    +0.195 C 
ATOM     22  O   LIG    1       22.057 -31.762  13.759  0.00  0.00    -0.372 OA
ENDBRANCH   1  22
BRANCH  17  23
ATOM     23  O   LIG    1       27.646 -31.612  15.500  0.00  0.00    -0.503 OA
ATOM     24  H   LIG    1       28.102 -32.454  15.341  0.00  0.00    +0.292 HD
ENDBRANCH  17  23
BRANCH  19  25
ATOM     25  C   LIG    1       22.332 -28.564  14.104  0.00  0.00    +0.074 C 
ATOM     26  C   LIG    1       23.773 -28.485  14.709  0.00  0.00    +0.042 C 
BRANCH  25  27
ATOM     27  C   LIG    1       21.733 -27.077  14.012  0.00  0.00    -0.009 C 
ATOM     28  C   LIG    1       21.128 -26.531  15.329  0.00  0.00    +0.013 C 
ATOM     29  C   LIG    1       20.657 -26.971  12.910  0.00  0.00    +0.013 C 
ATOM     30  C   LIG    1       22.856 -26.051  13.663  0.00  0.00    +0.013 C 
ENDBRANCH  25  27
BRANCH  25  31
ATOM     31  O   LIG    1       21.595 -29.291  15.101  0.00  0.00    -0.388 OA
ATOM     32  H   LIG    1       21.993 -30.169  15.213  0.00  0.00    +0.210 HD
ENDBRANCH  25  31
ENDBRANCH  19  25
BRANCH  11  33
ATOM     33  C   LIG    1       25.101 -30.505   7.675  0.00  0.00    +0.088 C 
BRANCH  33  34
ATOM     34  C   LIG    1       24.439 -29.221   7.237  0.00  0.00    +0.003 C 
ATOM     35  C   LIG    1       25.199 -28.235   6.372  0.00  0.00    +0.005 C 
ATOM     36  C   LIG    1       24.060 -29.018   5.787  0.00  0.00    +0.005 C 
ENDBRANCH  33  34
ENDBRANCH  11  33
TORSDOF 7
ENDMDL
MODEL 2
REMARK VINA RESULT:      -5.4      2.209      6.108
REMARK  Name = *****
REMARK                            x       y       z     vdW  Elec       q    Type
REMARK                         _______ _______ _______ _____ _____    ______ ____
ROOT
ATOM      1  C   LIG    1       24.177 -31.652  11.465  0.00  0.00    +0.112 C 
ATOM      2  C   LIG    1       23.400 -30.534  12.210  0.00  0.00    +0.217 C 
ATOM      3  O   LIG    1       22.079 -30.413  12.779  0.00  0.00    -0.481 OA
ATOM      4  C   LIG    1       22.162 -29.032  13.082  0.00  0.00    +0.166 A 
ATOM      5  C   LIG    1       23.500 -28.647  13.226  0.00  0.00    +0.011 A 
ATOM      6  C   LIG    1       23.989 -27.370  13.267  0.00  0.00    -0.038 A 
ATOM      7  C   LIG    1       23.011 -26.375  13.242  0.00  0.00    +0.008 A 
ATOM      8  C   LIG    1       21.629 -26.720  13.154  0.00  0.00    +0.049 A 
ATOM      9  C   LIG    1       25.495 -27.205  13.217  0.00  0.00    +0.055 C 
ATOM     10  C   LIG    1       26.369 -28.559  13.379  0.00  0.00    +0.068 C 
ATOM     11  N   LIG    1       26.527 -28.823  14.840  0.00  0.00    -0.298 NA
ATOM     12  C   LIG    1       25.313 -29.333  15.500  0.00  0.00    +0.086 C 
ATOM     13  C   LIG    1       24.419 -30.301  14.686  0.00  0.00    +0.031 C 
ATOM     14  C   LIG    1       25.730 -29.763  12.598  0.00  0.00    +0.000 C 
ATOM     15  C   LIG    1       25.671 -29.590  11.041  0.00  0.00    +0.018 C 
ATOM     16  C   LIG    1       26.369 -31.174  12.738  0.00  0.00    +0.012 C 
ATOM     17  C   LIG    1       21.195 -28.056  13.053  0.00  0.00    +0.159 A 
ATOM     18  C   LIG    1       24.336 -29.862  13.200  0.00  0.00    +0.047 C 
ATOM     19  C   LIG    1       24.985 -30.862  10.300  0.00  0.00    +0.057 C 
ATOM     20  C   LIG    1       25.339 -32.250  12.318  0.00  0.00    +0.039 C 
ENDROOT
BRANCH   1  22
ATOM     21  C   LIG    1       22.988 -33.693  11.898  0.00  0.00    +0.195 C 
ATOM     22  O   LIG    1       23.369 -32.689  10.963  0.00  0.00    -0.372 OA
ENDBRANCH   1  22
BRANCH  17  23
ATOM     23  O   LIG    1       19.891 -28.379  12.864  0.00  0.00    -0.503 OA
ATOM     24  H   LIG    1       19.691 -29.173  13.385  0.00  0.00    +0.292 HD
ENDBRANCH  17  23
BRANCH  19  25
ATOM     25  C   LIG    1       24.332 -30.398   8.903  0.00  0.00    +0.074 C 
ATOM     26  C   LIG    1       24.869 -28.948   8.661  0.00  0.00    +0.042 C 
BRANCH  25  27
ATOM     27  C   LIG    1       24.563 -31.259   7.568  0.00  0.00    -0.009 C 
ATOM     28  C   LIG    1       23.666 -32.515   7.434  0.00  0.00    +0.013 C 
ATOM     29  C   LIG    1       26.035 -31.706   7.436  0.00  0.00    +0.013 C 
ATOM     30  C   LIG    1       24.219 -30.416   6.301  0.00  0.00    +0.013 C 
ENDBRANCH  25  27
BRANCH  25  31
ATOM     31  O   LIG    1       22.919 -30.199   9.078  0.00  0.00    -0.388 OA
ATOM     32  H   LIG    1       22.770 -29.661   9.873  0.00  0.00    +0.210 HD
ENDBRANCH  25  31
ENDBRANCH  19  25
BRANCH  11  33
ATOM     33  C   LIG    1       27.769 -29.492  15.238  0.00  0.00    +0.088 C 
BRANCH  33  34
ATOM     34  C   LIG    1       28.985 -28.866  14.603  0.00  0.00    +0.003 C 
ATOM     35  C   LIG    1       30.372 -29.295  15.040  0.00  0.00    +0.005 C 
ATOM     36  C   LIG    1       29.866 -29.680  13.680  0.00  0.00    +0.005 C 
ENDBRANCH  33  34
ENDBRANCH  11  33
TORSDOF 7
ENDMDL
MODEL 3
REMARK VINA RESULT:      -5.4      2.966      6.588
REMARK  Name = *****
REMARK                            x       y       z     vdW  Elec       q    Type
REMARK                         _______ _______ _______ _____ _____    ______ ____
ROOT
ATOM      1  C   LIG    1       26.356 -31.129   8.744  0.00  0.00    +0.112 C 
ATOM      2  C   LIG    1       24.995 -31.658   9.271  0.00  0.00    +0.217 C 
ATOM      3  O   LIG    1       24.283 -32.910   9.182  0.00  0.00    -0.481 OA
ATOM      4  C   LIG    1       23.082 -32.452   9.778  0.00  0.00    +0.166 A 
ATOM      5  C   LIG    1       23.339 -31.346  10.597  0.00  0.00    +0.011 A 
ATOM      6  C   LIG    1       22.418 -30.486  11.130  0.00  0.00    -0.038 A 
ATOM      7  C   LIG    1       21.090 -30.829  10.874  0.00  0.00    +0.008 A 
ATOM      8  C   LIG    1       20.777 -31.981  10.092  0.00  0.00    +0.049 A 
ATOM      9  C   LIG    1       22.950 -29.241  11.811  0.00  0.00    +0.055 C 
ATOM     10  C   LIG    1       24.549 -29.190  12.061  0.00  0.00    +0.068 C 
ATOM     11  N   LIG    1       24.831 -29.911  13.338  0.00  0.00    -0.298 NA
ATOM     12  C   LIG    1       24.729 -31.377  13.242  0.00  0.00    +0.086 C 
ATOM     13  C   LIG    1       25.204 -32.035  11.923  0.00  0.00    +0.031 C 
ATOM     14  C   LIG    1       25.349 -29.762  10.837  0.00  0.00    +0.000 C 
ATOM     15  C   LIG    1       25.195 -28.952   9.503  0.00  0.00    +0.018 C 
ATOM     16  C   LIG    1       26.895 -29.902  10.948  0.00  0.00    +0.012 C 
ATOM     17  C   LIG    1       21.776 -32.792   9.519  0.00  0.00    +0.159 A 
ATOM     18  C   LIG    1       24.800 -31.175  10.697  0.00  0.00    +0.047 C 
ATOM     19  C   LIG    1       26.035 -29.608   8.277  0.00  0.00    +0.057 C 
ATOM     20  C   LIG    1       27.399 -30.906   9.884  0.00  0.00    +0.039 C 
ENDROOT
BRANCH   1  22
ATOM     21  C   LIG    1       27.512 -33.140   8.122  0.00  0.00    +0.195 C 
ATOM     22  O   LIG    1       26.927 -31.906   7.718  0.00  0.00    -0.372 OA
ENDBRANCH   1  22
BRANCH  17  23
ATOM     23  O   LIG    1       21.481 -33.824   8.690  0.00  0.00    -0.503 OA
ATOM     24  H   LIG    1       21.744 -33.581   7.788  0.00  0.00    +0.292 HD
ENDBRANCH  17  23
BRANCH  19  25
ATOM     25  C   LIG    1       25.350 -29.219   6.873  0.00  0.00    +0.074 C 
ATOM     26  C   LIG    1       23.834 -29.565   7.046  0.00  0.00    +0.042 C 
BRANCH  25  27
ATOM     27  C   LIG    1       25.472 -27.728   6.291  0.00  0.00    -0.009 C 
ATOM     28  C   LIG    1       26.258 -26.737   7.186  0.00  0.00    +0.013 C 
ATOM     29  C   LIG    1       24.082 -27.119   6.009  0.00  0.00    +0.013 C 
ATOM     30  C   LIG    1       26.261 -27.723   4.946  0.00  0.00    +0.013 C 
ENDBRANCH  25  27
BRANCH  25  31
ATOM     31  O   LIG    1       25.783 -30.140   5.858  0.00  0.00    -0.388 OA
ATOM     32  H   LIG    1       25.693 -31.048   6.193  0.00  0.00    +0.210 HD
ENDBRANCH  25  31
ENDBRANCH  19  25
BRANCH  11  33
ATOM     33  C   LIG    1       25.981 -29.426  14.106  0.00  0.00    +0.088 C 
BRANCH  33  34
ATOM     34  C   LIG    1       25.993 -27.922  14.229  0.00  0.00    +0.003 C 
ATOM     35  C   LIG    1       27.154 -27.229  14.913  0.00  0.00    +0.005 C 
ATOM     36  C   LIG    1       26.980 -27.101  13.428  0.00  0.00    +0.005 C 
ENDBRANCH  33  34
ENDBRANCH  11  33
TORSDOF 7
ENDMDL
MODEL 4
REMARK VINA RESULT:      -5.3      1.697      2.271
REMARK  Name = *****
REMARK                            x       y       z     vdW  Elec       q    Type
REMARK                         _______ _______ _______ _____ _____    ______ ____
ROOT
ATOM      1  C   LIG    1       22.995 -31.171  13.585  0.00  0.00    +0.112 C 
ATOM      2  C   LIG    1       24.424 -30.853  13.068  0.00  0.00    +0.217 C 
ATOM      3  O   LIG    1       25.759 -31.011  13.593  0.00  0.00    -0.481 OA
ATOM      4  C   LIG    1       26.421 -30.308  12.558  0.00  0.00    +0.166 A 
ATOM      5  C   LIG    1       25.651 -30.326  11.389  0.00  0.00    +0.011 A 
ATOM      6  C   LIG    1       25.830 -29.556  10.273  0.00  0.00    -0.038 A 
ATOM      7  C   LIG    1       26.959 -28.737  10.310  0.00  0.00    +0.008 A 
ATOM      8  C   LIG    1       27.808 -28.726  11.458  0.00  0.00    +0.049 A 
ATOM      9  C   LIG    1       24.743 -29.604   9.218  0.00  0.00    +0.055 C 
ATOM     10  C   LIG    1       23.616 -30.752   9.405  0.00  0.00    +0.068 C 
ATOM     11  N   LIG    1       24.146 -32.011   8.801  0.00  0.00    -0.298 NA
ATOM     12  C   LIG    1       25.189 -32.676   9.601  0.00  0.00    +0.086 C 
ATOM     13  C   LIG    1       25.039 -32.624  11.142  0.00  0.00    +0.031 C 
ATOM     14  C   LIG    1       23.195 -30.917  10.909  0.00  0.00    +0.000 C 
ATOM     15  C   LIG    1       22.502 -29.664  11.548  0.00  0.00    +0.018 C 
ATOM     16  C   LIG    1       22.209 -32.057  11.293  0.00  0.00    +0.012 C 
ATOM     17  C   LIG    1       27.532 -29.500  12.602  0.00  0.00    +0.159 A 
ATOM     18  C   LIG    1       24.512 -31.239  11.601  0.00  0.00    +0.047 C 
ATOM     19  C   LIG    1       22.109 -29.898  13.107  0.00  0.00    +0.057 C 
ATOM     20  C   LIG    1       22.320 -32.347  12.810  0.00  0.00    +0.039 C 
ENDROOT
BRANCH   1  22
ATOM     21  C   LIG    1       21.691 -31.959  15.440  0.00  0.00    +0.195 C 
ATOM     22  O   LIG    1       22.914 -31.404  14.971  0.00  0.00    -0.372 OA
ENDBRANCH   1  22
BRANCH  17  23
ATOM     23  O   LIG    1       28.279 -29.411  13.731  0.00  0.00    -0.503 OA
ATOM     24  H   LIG    1       29.135 -29.013  13.505  0.00  0.00    +0.292 HD
ENDBRANCH  17  23
BRANCH  19  25
ATOM     25  C   LIG    1       22.065 -28.487  13.880  0.00  0.00    +0.074 C 
ATOM     26  C   LIG    1       23.000 -27.539  13.057  0.00  0.00    +0.042 C 
BRANCH  25  27
ATOM     27  C   LIG    1       20.668 -27.737  14.129  0.00  0.00    -0.009 C 
ATOM     28  C   LIG    1       20.590 -26.912  15.439  0.00  0.00    +0.013 C 
ATOM     29  C   LIG    1       19.487 -28.730  14.118  0.00  0.00    +0.013 C 
ATOM     30  C   LIG    1       20.399 -26.684  13.009  0.00  0.00    +0.013 C 
ENDBRANCH  25  27
BRANCH  25  31
ATOM     31  O   LIG    1       22.748 -28.609  15.138  0.00  0.00    -0.388 OA
ATOM     32  H   LIG    1       23.377 -27.875  15.232  0.00  0.00    +0.210 HD
ENDBRANCH  25  31
ENDBRANCH  19  25
BRANCH  11  33
ATOM     33  C   LIG    1       23.147 -32.914   8.224  0.00  0.00    +0.088 C 
BRANCH  33  34
ATOM     34  C   LIG    1       23.643 -33.587   6.967  0.00  0.00    +0.003 C 
ATOM     35  C   LIG    1       22.851 -33.462   5.681  0.00  0.00    +0.005 C 
ATOM     36  C   LIG    1       24.168 -32.756   5.817  0.00  0.00    +0.005 C 
ENDBRANCH  33  34
ENDBRANCH  11  33
TORSDOF 7
ENDMDL
MODEL 5
REMARK VINA RESULT:      -5.3      2.554      4.850
REMARK  Name = *****
REMARK                            x       y       z     vdW  Elec       q    Type
REMARK                         _______ _______ _______ _____ _____    ______ ____
ROOT
ATOM      1  C   LIG    1       25.098 -31.352  13.385  0.00  0.00    +0.112 C 
ATOM      2  C   LIG    1       25.330 -31.934  11.965  0.00  0.00    +0.217 C 
ATOM      3  O   LIG    1       25.965 -33.119  11.439  0.00  0.00    -0.481 OA
ATOM      4  C   LIG    1       25.872 -32.756  10.073  0.00  0.00    +0.166 A 
ATOM      5  C   LIG    1       24.822 -31.849   9.883  0.00  0.00    +0.011 A 
ATOM      6  C   LIG    1       24.583 -31.088   8.772  0.00  0.00    -0.038 A 
ATOM      7  C   LIG    1       25.452 -31.330   7.707  0.00  0.00    +0.008 A 
ATOM      8  C   LIG    1       26.504 -32.287   7.833  0.00  0.00    +0.049 A 
ATOM      9  C   LIG    1       23.507 -30.026   8.880  0.00  0.00    +0.055 C 
ATOM     10  C   LIG    1       22.583 -30.077  10.209  0.00  0.00    +0.068 C 
ATOM     11  N   LIG    1       21.481 -31.053   9.957  0.00  0.00    -0.298 NA
ATOM     12  C   LIG    1       21.900 -32.465   9.996  0.00  0.00    +0.086 C 
ATOM     13  C   LIG    1       22.982 -32.853  11.033  0.00  0.00    +0.031 C 
ATOM     14  C   LIG    1       23.424 -30.411  11.492  0.00  0.00    +0.000 C 
ATOM     15  C   LIG    1       24.504 -29.341  11.879  0.00  0.00    +0.018 C 
ATOM     16  C   LIG    1       22.684 -30.620  12.844  0.00  0.00    +0.012 C 
ATOM     17  C   LIG    1       26.734 -32.995   9.029  0.00  0.00    +0.159 A 
ATOM     18  C   LIG    1       24.065 -31.748  11.145  0.00  0.00    +0.047 C 
ATOM     19  C   LIG    1       25.346 -29.758  13.203  0.00  0.00    +0.057 C 
ATOM     20  C   LIG    1       23.599 -31.400  13.819  0.00  0.00    +0.039 C 
ENDROOT
BRANCH   1  22
ATOM     21  C   LIG    1       25.339 -33.016  15.098  0.00  0.00    +0.195 C 
ATOM     22  O   LIG    1       25.904 -31.920  14.389  0.00  0.00    -0.372 OA
ENDBRANCH   1  22
BRANCH  17  23
ATOM     23  O   LIG    1       27.794 -33.825   9.184  0.00  0.00    -0.503 OA
ATOM     24  H   LIG    1       28.214 -33.956   8.318  0.00  0.00    +0.292 HD
ENDBRANCH  17  23
BRANCH  19  25
ATOM     25  C   LIG    1       26.801 -29.069  13.168  0.00  0.00    +0.074 C 
ATOM     26  C   LIG    1       26.950 -28.499  11.718  0.00  0.00    +0.042 C 
BRANCH  25  27
ATOM     27  C   LIG    1       27.180 -27.911  14.214  0.00  0.00    -0.009 C 
ATOM     28  C   LIG    1       26.317 -27.880  15.500  0.00  0.00    +0.013 C 
ATOM     29  C   LIG    1       27.112 -26.516  13.557  0.00  0.00    +0.013 C 
ATOM     30  C   LIG    1       28.635 -28.103  14.746  0.00  0.00    +0.013 C 
ENDBRANCH  25  27
BRANCH  25  31
ATOM     31  O   LIG    1       27.814 -30.086  13.228  0.00  0.00    -0.388 OA
ATOM     32  H   LIG    1       27.504 -30.810  13.796  0.00  0.00    +0.210 HD
ENDBRANCH  25  31
ENDBRANCH  19  25
BRANCH  11  33
ATOM     33  C   LIG    1       20.211 -30.772  10.631  0.00  0.00    +0.088 C 
BRANCH  33  34
ATOM     34  C   LIG    1       19.117 -31.723  10.210  0.00  0.00    +0.003 C 
ATOM     35  C   LIG    1       17.778 -31.695  10.919  0.00  0.00    +0.005 C 
ATOM     36  C   LIG    1       17.885 -31.200   9.506  0.00  0.00    +0.005 C 
ENDBRANCH  33  34
ENDBRANCH  11  33
TORSDOF 7
ENDMDL
MODEL 6
REMARK VINA RESULT:      -4.9      2.339      6.408
REMARK  Name = *****
REMARK                            x       y       z     vdW  Elec       q    Type
REMARK                         _______ _______ _______ _____ _____    ______ ____
ROOT
ATOM      1  C   LIG    1       25.488 -30.961   9.152  0.00  0.00    +0.112 C 
ATOM      2  C   LIG    1       24.638 -30.423  10.333  0.00  0.00    +0.217 C 
ATOM      3  O   LIG    1       23.413 -30.830  10.978  0.00  0.00    -0.481 OA
ATOM      4  C   LIG    1       23.288 -29.693  11.813  0.00  0.00    +0.166 A 
ATOM      5  C   LIG    1       24.541 -29.105  12.023  0.00  0.00    +0.011 A 
ATOM      6  C   LIG    1       24.792 -27.870  12.553  0.00  0.00    -0.038 A 
ATOM      7  C   LIG    1       23.657 -27.189  12.995  0.00  0.00    +0.008 A 
ATOM      8  C   LIG    1       22.362 -27.772  12.855  0.00  0.00    +0.049 A 
ATOM      9  C   LIG    1       26.220 -27.366  12.486  0.00  0.00    +0.055 C 
ATOM     10  C   LIG    1       27.338 -28.445  12.029  0.00  0.00    +0.068 C 
ATOM     11  N   LIG    1       27.750 -29.211  13.243  0.00  0.00    -0.298 NA
ATOM     12  C   LIG    1       26.757 -30.194  13.707  0.00  0.00    +0.086 C 
ATOM     13  C   LIG    1       25.944 -30.945  12.623  0.00  0.00    +0.031 C 
ATOM     14  C   LIG    1       26.822 -29.362  10.864  0.00  0.00    +0.000 C 
ATOM     15  C   LIG    1       26.508 -28.619   9.519  0.00  0.00    +0.018 C 
ATOM     16  C   LIG    1       27.718 -30.537  10.377  0.00  0.00    +0.012 C 
ATOM     17  C   LIG    1       22.166 -29.025  12.243  0.00  0.00    +0.159 A 
ATOM     18  C   LIG    1       25.570 -29.996  11.454  0.00  0.00    +0.047 C 
ATOM     19  C   LIG    1       25.964 -29.623   8.365  0.00  0.00    +0.057 C 
ATOM     20  C   LIG    1       26.851 -31.567   9.616  0.00  0.00    +0.039 C 
ENDROOT
BRANCH   1  22
ATOM     21  C   LIG    1       24.862 -33.239   8.724  0.00  0.00    +0.195 C 
ATOM     22  O   LIG    1       24.818 -31.876   8.318  0.00  0.00    -0.372 OA
ENDBRANCH   1  22
BRANCH  17  23
ATOM     23  O   LIG    1       20.929 -29.532  12.016  0.00  0.00    -0.503 OA
ATOM     24  H   LIG    1       20.999 -30.229  11.342  0.00  0.00    +0.292 HD
ENDBRANCH  17  23
BRANCH  19  25
ATOM     25  C   LIG    1       25.044 -28.814   7.322  0.00  0.00    +0.074 C 
ATOM     26  C   LIG    1       25.331 -27.302   7.608  0.00  0.00    +0.042 C 
BRANCH  25  27
ATOM     27  C   LIG    1       25.182 -29.071   5.743  0.00  0.00    -0.009 C 
ATOM     28  C   LIG    1       25.696 -30.478   5.349  0.00  0.00    +0.013 C 
ATOM     29  C   LIG    1       26.100 -28.022   5.081  0.00  0.00    +0.013 C 
ATOM     30  C   LIG    1       23.789 -28.974   5.045  0.00  0.00    +0.013 C 
ENDBRANCH  25  27
BRANCH  25  31
ATOM     31  O   LIG    1       23.662 -28.961   7.688  0.00  0.00    -0.388 OA
ATOM     32  H   LIG    1       23.523 -29.850   8.053  0.00  0.00    +0.210 HD
ENDBRANCH  25  31
ENDBRANCH  19  25
BRANCH  11  33
ATOM     33  C   LIG    1       29.136 -29.687  13.259  0.00  0.00    +0.088 C 
BRANCH  33  34
ATOM     34  C   LIG    1       29.751 -29.611  14.635  0.00  0.00    +0.003 C 
ATOM     35  C   LIG    1       30.884 -28.641  14.904  0.00  0.00    +0.005 C 
ATOM     36  C   LIG    1       29.530 -28.389  15.500  0.00  0.00    +0.005 C 
ENDBRANCH  33  34
ENDBRANCH  11  33
TORSDOF 7
ENDMDL
MODEL 7
REMARK VINA RESULT:      -4.8      2.519      5.460
REMARK  Name = *****
REMARK                            x       y       z     vdW  Elec       q    Type
REMARK                         _______ _______ _______ _____ _____    ______ ____
ROOT
ATOM      1  C   LIG    1       26.177 -30.689  13.530  0.00  0.00    +0.112 C 
ATOM      2  C   LIG    1       25.851 -31.021  12.049  0.00  0.00    +0.217 C 
ATOM      3  O   LIG    1       26.518 -31.748  10.995  0.00  0.00    -0.481 OA
ATOM      4  C   LIG    1       25.616 -31.395   9.963  0.00  0.00    +0.166 A 
ATOM      5  C   LIG    1       24.366 -31.066  10.502  0.00  0.00    +0.011 A 
ATOM      6  C   LIG    1       23.332 -30.442   9.861  0.00  0.00    -0.038 A 
ATOM      7  C   LIG    1       23.554 -30.197   8.506  0.00  0.00    +0.008 A 
ATOM      8  C   LIG    1       24.791 -30.566   7.896  0.00  0.00    +0.049 A 
ATOM      9  C   LIG    1       22.156 -30.002  10.711  0.00  0.00    +0.055 C 
ATOM     10  C   LIG    1       22.134 -30.546  12.237  0.00  0.00    +0.068 C 
ATOM     11  N   LIG    1       21.515 -31.905  12.224  0.00  0.00    -0.298 NA
ATOM     12  C   LIG    1       22.385 -32.964  11.687  0.00  0.00    +0.086 C 
ATOM     13  C   LIG    1       23.898 -32.866  12.004  0.00  0.00    +0.031 C 
ATOM     14  C   LIG    1       23.565 -30.524  12.884  0.00  0.00    +0.000 C 
ATOM     15  C   LIG    1       24.200 -29.100  13.048  0.00  0.00    +0.018 C 
ATOM     16  C   LIG    1       23.755 -31.124  14.307  0.00  0.00    +0.012 C 
ATOM     17  C   LIG    1       25.842 -31.153   8.629  0.00  0.00    +0.159 A 
ATOM     18  C   LIG    1       24.383 -31.393  11.940  0.00  0.00    +0.047 C 
ATOM     19  C   LIG    1       25.683 -29.153  13.708  0.00  0.00    +0.057 C 
ATOM     20  C   LIG    1       25.252 -31.446  14.535  0.00  0.00    +0.039 C 
ENDROOT
BRANCH   1  22
ATOM     21  C   LIG    1       27.774 -31.159  15.260  0.00  0.00    +0.195 C 
ATOM     22  O   LIG    1       27.525 -30.875  13.888  0.00  0.00    -0.372 OA
ENDBRANCH   1  22
BRANCH  17  23
ATOM     23  O   LIG    1       27.053 -31.407   8.075  0.00  0.00    -0.503 OA
ATOM     24  H   LIG    1       26.933 -32.035   7.344  0.00  0.00    +0.292 HD
ENDBRANCH  17  23
BRANCH  19  25
ATOM     25  C   LIG    1       26.537 -27.870  13.243  0.00  0.00    +0.074 C 
ATOM     26  C   LIG    1       26.229 -27.703  11.717  0.00  0.00    +0.042 C 
BRANCH  25  27
ATOM     27  C   LIG    1       26.334 -26.450  13.964  0.00  0.00    -0.009 C 
ATOM     28  C   LIG    1       26.534 -26.459  15.500  0.00  0.00    +0.013 C 
ATOM     29  C   LIG    1       24.939 -25.862  13.665  0.00  0.00    +0.013 C 
ATOM     30  C   LIG    1       27.389 -25.418  13.457  0.00  0.00    +0.013 C 
ENDBRANCH  25  27
BRANCH  25  31
ATOM     31  O   LIG    1       27.937 -28.194  13.261  0.00  0.00    -0.388 OA
ATOM     32  H   LIG    1       28.454 -27.383  13.127  0.00  0.00    +0.210 HD
ENDBRANCH  25  31
ENDBRANCH  19  25
BRANCH  11  33
ATOM     33  C   LIG    1       20.767 -32.278  13.428  0.00  0.00    +0.088 C 
BRANCH  33  34
ATOM     34  C   LIG    1       19.964 -31.127  13.983  0.00  0.00    +0.003 C 
ATOM     35  C   LIG    1       18.640 -31.391  14.672  0.00  0.00    +0.005 C 
ATOM     36  C   LIG    1       19.826 -30.948  15.478  0.00  0.00    +0.005 C 
ENDBRANCH  33  34
ENDBRANCH  11  33
TORSDOF 7
ENDMDL
MODEL 8
REMARK VINA RESULT:      -4.7      2.388      5.375
REMARK  Name = *****
REMARK                            x       y       z     vdW  Elec       q    Type
REMARK                         _______ _______ _______ _____ _____    ______ ____
ROOT
ATOM      1  C   LIG    1       25.423 -29.741  11.416  0.00  0.00    +0.112 C 
ATOM      2  C   LIG    1       24.021 -30.142  10.883  0.00  0.00    +0.217 C 
ATOM      3  O   LIG    1       22.728 -29.503  10.830  0.00  0.00    -0.481 OA
ATOM      4  C   LIG    1       22.013 -30.631  10.358  0.00  0.00    +0.166 A 
ATOM      5  C   LIG    1       22.877 -31.507   9.688  0.00  0.00    +0.011 A 
ATOM      6  C   LIG    1       22.616 -32.799   9.322  0.00  0.00    -0.038 A 
ATOM      7  C   LIG    1       21.314 -33.224   9.587  0.00  0.00    +0.008 A 
ATOM      8  C   LIG    1       20.379 -32.347  10.216  0.00  0.00    +0.049 A 
ATOM      9  C   LIG    1       23.779 -33.616   8.796  0.00  0.00    +0.055 C 
ATOM     10  C   LIG    1       25.143 -32.800   8.483  0.00  0.00    +0.068 C 
ATOM     11  N   LIG    1       25.025 -32.230   7.108  0.00  0.00    -0.298 NA
ATOM     12  C   LIG    1       24.117 -31.075   7.004  0.00  0.00    +0.086 C 
ATOM     13  C   LIG    1       24.091 -30.087   8.197  0.00  0.00    +0.031 C 
ATOM     14  C   LIG    1       25.437 -31.714   9.579  0.00  0.00    +0.000 C 
ATOM     15  C   LIG    1       25.708 -32.275  11.018  0.00  0.00    +0.018 C 
ATOM     16  C   LIG    1       26.643 -30.752   9.380  0.00  0.00    +0.012 C 
ATOM     17  C   LIG    1       20.731 -31.046  10.625  0.00  0.00    +0.159 A 
ATOM     18  C   LIG    1       24.187 -30.845   9.547  0.00  0.00    +0.047 C 
ATOM     19  C   LIG    1       25.988 -31.099  12.102  0.00  0.00    +0.057 C 
ATOM     20  C   LIG    1       26.458 -29.500  10.272  0.00  0.00    +0.039 C 
ENDROOT
BRANCH   1  22
ATOM     21  C   LIG    1       26.493 -27.720  12.147  0.00  0.00    +0.195 C 
ATOM     22  O   LIG    1       25.421 -28.643  12.297  0.00  0.00    -0.372 OA
ENDBRANCH   1  22
BRANCH  17  23
ATOM     23  O   LIG    1       19.876 -30.251  11.316  0.00  0.00    -0.503 OA
ATOM     24  H   LIG    1       19.252 -30.816  11.801  0.00  0.00    +0.292 HD
ENDBRANCH  17  23
BRANCH  19  25
ATOM     25  C   LIG    1       25.581 -31.603  13.576  0.00  0.00    +0.074 C 
ATOM     26  C   LIG    1       26.075 -30.478  14.545  0.00  0.00    +0.042 C 
BRANCH  25  27
ATOM     27  C   LIG    1       24.053 -31.946  13.928  0.00  0.00    -0.009 C 
ATOM     28  C   LIG    1       23.361 -32.934  12.955  0.00  0.00    +0.013 C 
ATOM     29  C   LIG    1       23.192 -30.667  14.004  0.00  0.00    +0.013 C 
ATOM     30  C   LIG    1       23.951 -32.656  15.314  0.00  0.00    +0.013 C 
ENDBRANCH  25  27
BRANCH  25  31
ATOM     31  O   LIG    1       26.396 -32.730  13.938  0.00  0.00    -0.388 OA
ATOM     32  H   LIG    1       27.093 -32.436  14.547  0.00  0.00    +0.210 HD
ENDBRANCH  25  31
ENDBRANCH  19  25
BRANCH  11  33
ATOM     33  C   LIG    1       26.279 -32.093   6.363  0.00  0.00    +0.088 C 
BRANCH  33  34
ATOM     34  C   LIG    1       27.042 -33.393   6.281  0.00  0.00    +0.003 C 
ATOM     35  C   LIG    1       27.852 -33.718   5.042  0.00  0.00    +0.005 C 
ATOM     36  C   LIG    1       28.554 -33.391   6.327  0.00  0.00    +0.005 C 
ENDBRANCH  33  34
ENDBRANCH  11  33
TORSDOF 7
ENDMDL
MODEL 9
REMARK VINA RESULT:      -4.6      2.023      5.110
REMARK  Name = *****
REMARK                            x       y       z     vdW  Elec       q    Type
REMARK                         _______ _______ _______ _____ _____    ______ ____
ROOT
ATOM      1  C   LIG    1       26.456 -27.999  12.846  0.00  0.00    +0.112 C 
ATOM      2  C   LIG    1       25.311 -29.028  13.047  0.00  0.00    +0.217 C 
ATOM      3  O   LIG    1       24.046 -29.025  13.743  0.00  0.00    -0.481 OA
ATOM      4  C   LIG    1       23.756 -30.398  13.550  0.00  0.00    +0.166 A 
ATOM      5  C   LIG    1       24.433 -30.884  12.425  0.00  0.00    +0.011 A 
ATOM      6  C   LIG    1       24.606 -32.193  12.070  0.00  0.00    -0.038 A 
ATOM      7  C   LIG    1       23.954 -33.107  12.898  0.00  0.00    +0.008 A 
ATOM      8  C   LIG    1       23.203 -32.657  14.026  0.00  0.00    +0.049 A 
ATOM      9  C   LIG    1       25.554 -32.479  10.923  0.00  0.00    +0.055 C 
ATOM     10  C   LIG    1       26.061 -31.194  10.077  0.00  0.00    +0.068 C 
ATOM     11  N   LIG    1       25.026 -30.897   9.042  0.00  0.00    -0.298 NA
ATOM     12  C   LIG    1       23.801 -30.272   9.569  0.00  0.00    +0.086 C 
ATOM     13  C   LIG    1       23.967 -29.262  10.731  0.00  0.00    +0.031 C 
ATOM     14  C   LIG    1       26.374 -29.969  11.008  0.00  0.00    +0.000 C 
ATOM     15  C   LIG    1       27.552 -30.185  12.020  0.00  0.00    +0.018 C 
ATOM     16  C   LIG    1       26.758 -28.609  10.357  0.00  0.00    +0.012 C 
ATOM     17  C   LIG    1       23.115 -31.295  14.372  0.00  0.00    +0.159 A 
ATOM     18  C   LIG    1       25.054 -29.740  11.730  0.00  0.00    +0.047 C 
ATOM     19  C   LIG    1       27.810 -28.887  12.961  0.00  0.00    +0.057 C 
ATOM     20  C   LIG    1       26.539 -27.468  11.380  0.00  0.00    +0.039 C 
ENDROOT
BRANCH   1  22
ATOM     21  C   LIG    1       25.538 -25.858  13.427  0.00  0.00    +0.195 C 
ATOM     22  O   LIG    1       26.433 -26.917  13.745  0.00  0.00    -0.372 OA
ENDBRANCH   1  22
BRANCH  17  23
ATOM     23  O   LIG    1       22.491 -30.875  15.500  0.00  0.00    -0.503 OA
ATOM     24  H   LIG    1       22.120 -29.992  15.338  0.00  0.00    +0.292 HD
ENDBRANCH  17  23
BRANCH  19  25
ATOM     25  C   LIG    1       28.476 -29.342  14.354  0.00  0.00    +0.074 C 
ATOM     26  C   LIG    1       27.916 -30.778  14.627  0.00  0.00    +0.042 C 
BRANCH  25  27
ATOM     27  C   LIG    1       30.072 -29.374  14.523  0.00  0.00    -0.009 C 
ATOM     28  C   LIG    1       30.692 -28.098  15.145  0.00  0.00    +0.013 C 
ATOM     29  C   LIG    1       30.774 -29.639  13.174  0.00  0.00    +0.013 C 
ATOM     30  C   LIG    1       30.501 -30.513  15.500  0.00  0.00    +0.013 C 
ENDBRANCH  25  27
BRANCH  25  31
ATOM     31  O   LIG    1       27.920 -28.564  15.427  0.00  0.00    -0.388 OA
ATOM     32  H   LIG    1       27.400 -29.145  16.005  0.00  0.00    +0.210 HD
ENDBRANCH  25  31
ENDBRANCH  19  25
BRANCH  11  33
ATOM     33  C   LIG    1       25.521 -30.317   7.790  0.00  0.00    +0.088 C 
BRANCH  33  34
ATOM     34  C   LIG    1       24.524 -29.373   7.164  0.00  0.00    +0.003 C 
ATOM     35  C   LIG    1       24.982 -28.023   6.650  0.00  0.00    +0.005 C 
ATOM     36  C   LIG    1       24.574 -29.091   5.678  0.00  0.00    +0.005 C 
ENDBRANCH  33  34
ENDBRANCH  11  33
TORSDOF 7
ENDMDL
