MODEL 1
REMARK VINA RESULT:      -6.7      0.000      0.000
REMARK  Name = *****
REMARK                            x       y       z     vdW  Elec       q    Type
REMARK                         _______ _______ _______ _____ _____    ______ ____
ROOT
ATOM      1  C   LIG    1       24.711 -22.376   5.555  0.00  0.00    +0.080 C 
ATOM      2  C   LIG    1       25.506 -21.177   5.035  0.00  0.00    +0.097 C 
ATOM      3  C   LIG    1       24.610 -20.040   4.521  0.00  0.00    +0.065 C 
ATOM      4  C   LIG    1       23.327 -19.949   4.949  0.00  0.00    +0.016 C 
ATOM      5  C   LIG    1       22.361 -18.840   4.617  0.00  0.00    +0.061 C 
ATOM      6  N   LIG    1       22.817 -20.951   5.761  0.00  0.00    -0.309 N 
ATOM      7  H   LIG    1       21.824 -20.900   5.992  0.00  0.00    +0.152 HD
ATOM      8  C   LIG    1       23.429 -22.188   5.924  0.00  0.00    +0.120 C 
ENDROOT
BRANCH   2   9
ATOM      9  C   LIG    1       26.467 -20.656   6.126  0.00  0.00    -0.029 A 
ATOM     10  C   LIG    1       27.743 -20.183   5.776  0.00  0.00    +0.088 A 
ATOM     11  C   LIG    1       28.615 -19.699   6.766  0.00  0.00    +0.273 A 
ATOM     12  C   LIG    1       28.238 -19.689   8.114  0.00  0.00    +0.084 A 
ATOM     13  C   LIG    1       26.980 -20.167   8.471  0.00  0.00    +0.007 A 
ATOM     14  C   LIG    1       26.104 -20.644   7.490  0.00  0.00    +0.005 A 
BRANCH  11  15
ATOM     15  N   LIG    1       29.939 -19.192   6.381  0.00  0.00    +0.080 N 
ATOM     16  O   LIG    1       30.929 -19.688   6.937  0.00  0.00    -0.576 OA
ATOM     17  O   LIG    1       29.988 -18.298   5.524  0.00  0.00    +0.041 OA
ENDBRANCH  11  15
ENDBRANCH   2   9
BRANCH   1  18
ATOM     18  C   LIG    1       25.372 -23.704   5.633  0.00  0.00    +0.338 C 
ATOM     19  O   LIG    1       26.113 -24.061   6.530  0.00  0.00    -0.245 OA
BRANCH  18  21
ATOM     20  C   LIG    1       25.234 -25.879   4.748  0.00  0.00    +0.280 C 
ATOM     21  O   LIG    1       24.983 -24.480   4.590  0.00  0.00    -0.465 OA
ENDBRANCH  18  21
ENDBRANCH   1  18
BRANCH   3  22
ATOM     22  C   LIG    1       25.149 -19.126   3.473  0.00  0.00    +0.338 C 
ATOM     23  O   LIG    1       25.673 -19.495   2.435  0.00  0.00    -0.245 OA
BRANCH  22  24
ATOM     24  O   LIG    1       25.071 -17.838   3.888  0.00  0.00    -0.459 OA
BRANCH  24  25
ATOM     25  C   LIG    1       25.939 -16.884   3.245  0.00  0.00    +0.171 C 
ATOM     26  C   LIG    1       27.317 -17.015   3.880  0.00  0.00    +0.051 C 
ATOM     27  C   LIG    1       25.359 -15.496   3.467  0.00  0.00    +0.051 C 
ENDBRANCH  24  25
ENDBRANCH  22  24
ENDBRANCH   3  22
BRANCH   8  28
ATOM     28  C   LIG    1       22.614 -23.100   6.617  0.00  0.00    +0.115 C 
ATOM     29  N   LIG    1       21.948 -23.847   7.185  0.00  0.00    -0.190 NA
ENDBRANCH   8  28
TORSDOF 8
ENDMDL
MODEL 2
REMARK VINA RESULT:      -6.6      2.519      5.178
REMARK  Name = *****
REMARK                            x       y       z     vdW  Elec       q    Type
REMARK                         _______ _______ _______ _____ _____    ______ ____
ROOT
ATOM      1  C   LIG    1       25.981 -20.786   6.866  0.00  0.00    +0.080 C 
ATOM      2  C   LIG    1       24.514 -21.071   6.544  0.00  0.00    +0.097 C 
ATOM      3  C   LIG    1       24.035 -20.382   5.257  0.00  0.00    +0.065 C 
ATOM      4  C   LIG    1       24.941 -20.006   4.320  0.00  0.00    +0.016 C 
ATOM      5  C   LIG    1       24.622 -19.415   2.970  0.00  0.00    +0.061 C 
ATOM      6  N   LIG    1       26.292 -20.156   4.594  0.00  0.00    -0.309 N 
ATOM      7  H   LIG    1       26.948 -19.782   3.907  0.00  0.00    +0.152 HD
ATOM      8  C   LIG    1       26.793 -20.383   5.870  0.00  0.00    +0.120 C 
ENDROOT
BRANCH   2   9
ATOM      9  C   LIG    1       24.268 -22.594   6.463  0.00  0.00    -0.029 A 
ATOM     10  C   LIG    1       25.260 -23.443   5.944  0.00  0.00    +0.088 A 
ATOM     11  C   LIG    1       25.043 -24.830   5.878  0.00  0.00    +0.273 A 
ATOM     12  C   LIG    1       23.837 -25.390   6.315  0.00  0.00    +0.084 A 
ATOM     13  C   LIG    1       22.843 -24.555   6.820  0.00  0.00    +0.007 A 
ATOM     14  C   LIG    1       23.056 -23.174   6.894  0.00  0.00    +0.005 A 
BRANCH  11  15
ATOM     15  N   LIG    1       26.098 -25.705   5.350  0.00  0.00    +0.080 N 
ATOM     16  O   LIG    1       27.073 -25.935   6.079  0.00  0.00    -0.576 OA
ATOM     17  O   LIG    1       25.951 -26.161   4.207  0.00  0.00    +0.041 OA
ENDBRANCH  11  15
ENDBRANCH   2   9
BRANCH   1  18
ATOM     18  C   LIG    1       26.462 -20.956   8.261  0.00  0.00    +0.338 C 
ATOM     19  O   LIG    1       26.036 -20.342   9.223  0.00  0.00    -0.245 OA
BRANCH  18  21
ATOM     20  C   LIG    1       28.700 -21.506   8.733  0.00  0.00    +0.280 C 
ATOM     21  O   LIG    1       27.400 -21.933   8.316  0.00  0.00    -0.465 OA
ENDBRANCH  18  21
ENDBRANCH   1  18
BRANCH   3  22
ATOM     22  C   LIG    1       22.590 -20.044   5.124  0.00  0.00    +0.338 C 
ATOM     23  O   LIG    1       21.734 -20.810   4.714  0.00  0.00    -0.245 OA
BRANCH  22  24
ATOM     24  O   LIG    1       22.383 -18.738   5.423  0.00  0.00    -0.459 OA
BRANCH  24  25
ATOM     25  C   LIG    1       22.215 -17.827   4.318  0.00  0.00    +0.171 C 
ATOM     26  C   LIG    1       22.215 -16.413   4.885  0.00  0.00    +0.051 C 
ATOM     27  C   LIG    1       20.893 -18.149   3.639  0.00  0.00    +0.051 C 
ENDBRANCH  24  25
ENDBRANCH  22  24
ENDBRANCH   3  22
BRANCH   8  28
ATOM     28  C   LIG    1       28.194 -20.283   5.919  0.00  0.00    +0.115 C 
ATOM     29  N   LIG    1       29.342 -20.200   5.961  0.00  0.00    -0.190 NA
ENDBRANCH   8  28
TORSDOF 8
ENDMDL
MODEL 3
REMARK VINA RESULT:      -5.2      8.519     12.667
REMARK  Name = *****
REMARK                            x       y       z     vdW  Elec       q    Type
REMARK                         _______ _______ _______ _____ _____    ______ ____
ROOT
ATOM      1  C   LIG    1       23.786 -29.829  11.699  0.00  0.00    +0.080 C 
ATOM      2  C   LIG    1       23.228 -30.074  10.296  0.00  0.00    +0.097 C 
ATOM      3  C   LIG    1       24.314 -30.445   9.274  0.00  0.00    +0.065 C 
ATOM      4  C   LIG    1       25.493 -30.958   9.703  0.00  0.00    +0.016 C 
ATOM      5  C   LIG    1       26.609 -31.461   8.824  0.00  0.00    +0.061 C 
ATOM      6  N   LIG    1       25.735 -31.036  11.066  0.00  0.00    -0.309 N 
ATOM      7  H   LIG    1       26.666 -31.342  11.355  0.00  0.00    +0.152 HD
ATOM      8  C   LIG    1       24.985 -30.354  12.017  0.00  0.00    +0.120 C 
ENDROOT
BRANCH   2   9
ATOM      9  C   LIG    1       22.131 -31.161  10.337  0.00  0.00    -0.029 A 
ATOM     10  C   LIG    1       20.777 -30.794  10.415  0.00  0.00    +0.088 A 
ATOM     11  C   LIG    1       19.776 -31.781  10.442  0.00  0.00    +0.273 A 
ATOM     12  C   LIG    1       20.107 -33.141  10.403  0.00  0.00    +0.084 A 
ATOM     13  C   LIG    1       21.447 -33.513  10.338  0.00  0.00    +0.007 A 
ATOM     14  C   LIG    1       22.447 -32.535  10.304  0.00  0.00    +0.005 A 
BRANCH  11  15
ATOM     15  N   LIG    1       18.365 -31.381  10.506  0.00  0.00    +0.080 N 
ATOM     16  O   LIG    1       17.795 -31.455  11.604  0.00  0.00    -0.576 OA
ATOM     17  O   LIG    1       17.826 -30.993   9.459  0.00  0.00    +0.041 OA
ENDBRANCH  11  15
ENDBRANCH   2   9
BRANCH   1  18
ATOM     18  C   LIG    1       22.995 -29.020  12.662  0.00  0.00    +0.338 C 
ATOM     19  O   LIG    1       22.123 -29.460  13.389  0.00  0.00    -0.245 OA
BRANCH  18  21
ATOM     20  C   LIG    1       22.557 -26.798  13.300  0.00  0.00    +0.280 C 
ATOM     21  O   LIG    1       23.425 -27.734  12.654  0.00  0.00    -0.465 OA
ENDBRANCH  18  21
ENDBRANCH   1  18
BRANCH   3  22
ATOM     22  C   LIG    1       24.079 -30.124   7.837  0.00  0.00    +0.338 C 
ATOM     23  O   LIG    1       23.498 -30.854   7.051  0.00  0.00    -0.245 OA
BRANCH  22  24
ATOM     24  O   LIG    1       24.693 -28.961   7.510  0.00  0.00    -0.459 OA
BRANCH  24  25
ATOM     25  C   LIG    1       24.390 -28.396   6.218  0.00  0.00    +0.171 C 
ATOM     26  C   LIG    1       25.432 -28.915   5.234  0.00  0.00    +0.051 C 
ATOM     27  C   LIG    1       24.452 -26.882   6.340  0.00  0.00    +0.051 C 
ENDBRANCH  24  25
ENDBRANCH  22  24
ENDBRANCH   3  22
BRANCH   8  28
ATOM     28  C   LIG    1       25.557 -30.422  13.299  0.00  0.00    +0.115 C 
ATOM     29  N   LIG    1       26.025 -30.477  14.349  0.00  0.00    -0.190 NA
ENDBRANCH   8  28
TORSDOF 8
ENDMDL
MODEL 4
REMARK VINA RESULT:      -5.2      7.119     11.498
REMARK  Name = *****
REMARK                            x       y       z     vdW  Elec       q    Type
REMARK                         _______ _______ _______ _____ _____    ______ ____
ROOT
ATOM      1  C   LIG    1       25.413 -31.622   7.160  0.00  0.00    +0.080 C 
ATOM      2  C   LIG    1       24.495 -30.622   7.864  0.00  0.00    +0.097 C 
ATOM      3  C   LIG    1       24.279 -30.947   9.350  0.00  0.00    +0.065 C 
ATOM      4  C   LIG    1       25.183 -31.715  10.008  0.00  0.00    +0.016 C 
ATOM      5  C   LIG    1       25.164 -32.036  11.481  0.00  0.00    +0.061 C 
ATOM      6  N   LIG    1       26.229 -32.281   9.295  0.00  0.00    -0.309 N 
ATOM      7  H   LIG    1       26.839 -32.925   9.800  0.00  0.00    +0.152 HD
ATOM      8  C   LIG    1       26.252 -32.364   7.908  0.00  0.00    +0.120 C 
ENDROOT
BRANCH   2   9
ATOM      9  C   LIG    1       25.039 -29.186   7.700  0.00  0.00    -0.029 A 
ATOM     10  C   LIG    1       24.462 -28.315   6.761  0.00  0.00    +0.088 A 
ATOM     11  C   LIG    1       24.949 -27.004   6.616  0.00  0.00    +0.273 A 
ATOM     12  C   LIG    1       26.021 -26.546   7.392  0.00  0.00    +0.084 A 
ATOM     13  C   LIG    1       26.606 -27.407   8.317  0.00  0.00    +0.007 A 
ATOM     14  C   LIG    1       26.122 -28.710   8.470  0.00  0.00    +0.005 A 
BRANCH  11  15
ATOM     15  N   LIG    1       24.323 -26.101   5.643  0.00  0.00    +0.080 N 
ATOM     16  O   LIG    1       23.410 -25.364   6.045  0.00  0.00    -0.576 OA
ATOM     17  O   LIG    1       24.742 -26.128   4.476  0.00  0.00    +0.041 OA
ENDBRANCH  11  15
ENDBRANCH   2   9
BRANCH   1  18
ATOM     18  C   LIG    1       25.348 -31.747   5.681  0.00  0.00    +0.338 C 
ATOM     19  O   LIG    1       25.810 -30.942   4.894  0.00  0.00    -0.245 OA
BRANCH  18  21
ATOM     20  C   LIG    1       23.340 -32.967   5.560  0.00  0.00    +0.280 C 
ATOM     21  O   LIG    1       24.752 -32.916   5.338  0.00  0.00    -0.465 OA
ENDBRANCH  18  21
ENDBRANCH   1  18
BRANCH   3  22
ATOM     22  C   LIG    1       23.016 -30.497  10.002  0.00  0.00    +0.338 C 
ATOM     23  O   LIG    1       22.955 -29.673  10.900  0.00  0.00    -0.245 OA
BRANCH  22  24
ATOM     24  O   LIG    1       21.965 -31.210   9.530  0.00  0.00    -0.459 OA
BRANCH  24  25
ATOM     25  C   LIG    1       21.130 -31.876  10.498  0.00  0.00    +0.171 C 
ATOM     26  C   LIG    1       21.065 -33.349  10.115  0.00  0.00    +0.051 C 
ATOM     27  C   LIG    1       19.753 -31.234  10.454  0.00  0.00    +0.051 C 
ENDBRANCH  24  25
ENDBRANCH  22  24
ENDBRANCH   3  22
BRANCH   8  28
ATOM     28  C   LIG    1       27.306 -33.167   7.438  0.00  0.00    +0.115 C 
ATOM     29  N   LIG    1       28.170 -33.823   7.054  0.00  0.00    -0.190 NA
ENDBRANCH   8  28
TORSDOF 8
ENDMDL
MODEL 5
REMARK VINA RESULT:      -5.2      8.454     12.040
REMARK  Name = *****
REMARK                            x       y       z     vdW  Elec       q    Type
REMARK                         _______ _______ _______ _____ _____    ______ ____
ROOT
ATOM      1  C   LIG    1       25.944 -29.169  11.106  0.00  0.00    +0.080 C 
ATOM      2  C   LIG    1       24.742 -29.553  10.241  0.00  0.00    +0.097 C 
ATOM      3  C   LIG    1       25.139 -30.275   8.944  0.00  0.00    +0.065 C 
ATOM      4  C   LIG    1       26.340 -30.901   8.866  0.00  0.00    +0.016 C 
ATOM      5  C   LIG    1       26.828 -31.733   7.707  0.00  0.00    +0.061 C 
ATOM      6  N   LIG    1       27.229 -30.784   9.923  0.00  0.00    -0.309 N 
ATOM      7  H   LIG    1       28.157 -31.191   9.796  0.00  0.00    +0.152 HD
ATOM      8  C   LIG    1       27.104 -29.830  10.926  0.00  0.00    +0.120 C 
ENDROOT
BRANCH   2   9
ATOM      9  C   LIG    1       23.748 -30.412  11.053  0.00  0.00    -0.029 A 
ATOM     10  C   LIG    1       22.364 -30.274  10.849  0.00  0.00    +0.088 A 
ATOM     11  C   LIG    1       21.458 -31.061  11.579  0.00  0.00    +0.273 A 
ATOM     12  C   LIG    1       21.911 -31.985  12.529  0.00  0.00    +0.084 A 
ATOM     13  C   LIG    1       23.280 -32.119  12.747  0.00  0.00    +0.007 A 
ATOM     14  C   LIG    1       24.187 -31.342  12.018  0.00  0.00    +0.005 A 
BRANCH  11  15
ATOM     15  N   LIG    1       20.016 -30.918  11.341  0.00  0.00    +0.080 N 
ATOM     16  O   LIG    1       19.637 -30.787  10.168  0.00  0.00    -0.576 OA
ATOM     17  O   LIG    1       19.263 -30.935  12.325  0.00  0.00    +0.041 OA
ENDBRANCH  11  15
ENDBRANCH   2   9
BRANCH   1  18
ATOM     18  C   LIG    1       25.797 -28.083  12.108  0.00  0.00    +0.338 C 
ATOM     19  O   LIG    1       25.081 -28.137  13.092  0.00  0.00    -0.245 OA
BRANCH  18  21
ATOM     20  C   LIG    1       26.824 -26.101  12.850  0.00  0.00    +0.280 C 
ATOM     21  O   LIG    1       26.619 -27.050  11.800  0.00  0.00    -0.465 OA
ENDBRANCH  18  21
ENDBRANCH   1  18
BRANCH   3  22
ATOM     22  C   LIG    1       24.235 -30.171   7.764  0.00  0.00    +0.338 C 
ATOM     23  O   LIG    1       23.687 -31.119   7.226  0.00  0.00    -0.245 OA
BRANCH  22  24
ATOM     24  O   LIG    1       24.194 -28.893   7.315  0.00  0.00    -0.459 OA
BRANCH  24  25
ATOM     25  C   LIG    1       25.236 -28.479   6.409  0.00  0.00    +0.171 C 
ATOM     26  C   LIG    1       25.763 -27.135   6.897  0.00  0.00    +0.051 C 
ATOM     27  C   LIG    1       24.632 -28.362   5.018  0.00  0.00    +0.051 C 
ENDBRANCH  24  25
ENDBRANCH  22  24
ENDBRANCH   3  22
BRANCH   8  28
ATOM     28  C   LIG    1       28.237 -29.774  11.755  0.00  0.00    +0.115 C 
ATOM     29  N   LIG    1       29.166 -29.728  12.433  0.00  0.00    -0.190 NA
ENDBRANCH   8  28
TORSDOF 8
ENDMDL
MODEL 6
REMARK VINA RESULT:      -5.1      9.720     12.550
REMARK  Name = *****
REMARK                            x       y       z     vdW  Elec       q    Type
REMARK                         _______ _______ _______ _____ _____    ______ ____
ROOT
ATOM      1  C   LIG    1       26.319 -29.629  11.998  0.00  0.00    +0.080 C 
ATOM      2  C   LIG    1       25.448 -30.778  11.488  0.00  0.00    +0.097 C 
ATOM      3  C   LIG    1       23.968 -30.628  11.873  0.00  0.00    +0.065 C 
ATOM      4  C   LIG    1       23.474 -29.402  12.176  0.00  0.00    +0.016 C 
ATOM      5  C   LIG    1       22.031 -29.080  12.472  0.00  0.00    +0.061 C 
ATOM      6  N   LIG    1       24.344 -28.324  12.239  0.00  0.00    -0.309 N 
ATOM      7  H   LIG    1       23.957 -27.435  12.557  0.00  0.00    +0.152 HD
ATOM      8  C   LIG    1       25.725 -28.459  12.306  0.00  0.00    +0.120 C 
ENDROOT
BRANCH   2   9
ATOM      9  C   LIG    1       25.596 -30.926   9.958  0.00  0.00    -0.029 A 
ATOM     10  C   LIG    1       24.916 -30.050   9.095  0.00  0.00    +0.088 A 
ATOM     11  C   LIG    1       25.056 -30.175   7.702  0.00  0.00    +0.273 A 
ATOM     12  C   LIG    1       25.862 -31.178   7.149  0.00  0.00    +0.084 A 
ATOM     13  C   LIG    1       26.530 -32.058   7.997  0.00  0.00    +0.007 A 
ATOM     14  C   LIG    1       26.399 -31.934   9.384  0.00  0.00    +0.005 A 
BRANCH  11  15
ATOM     15  N   LIG    1       24.353 -29.240   6.815  0.00  0.00    +0.080 N 
ATOM     16  O   LIG    1       23.477 -29.702   6.069  0.00  0.00    -0.576 OA
ATOM     17  O   LIG    1       24.675 -28.044   6.863  0.00  0.00    +0.041 OA
ENDBRANCH  11  15
ENDBRANCH   2   9
BRANCH   1  18
ATOM     18  C   LIG    1       27.782 -29.838  12.141  0.00  0.00    +0.338 C 
ATOM     19  O   LIG    1       28.600 -29.654  11.259  0.00  0.00    -0.245 OA
BRANCH  18  21
ATOM     20  C   LIG    1       29.292 -29.658  13.936  0.00  0.00    +0.280 C 
ATOM     21  O   LIG    1       28.078 -30.204  13.413  0.00  0.00    -0.465 OA
ENDBRANCH  18  21
ENDBRANCH   1  18
BRANCH   3  22
ATOM     22  C   LIG    1       23.138 -31.859  12.008  0.00  0.00    +0.338 C 
ATOM     23  O   LIG    1       23.239 -32.666  12.918  0.00  0.00    -0.245 OA
BRANCH  22  24
ATOM     24  O   LIG    1       22.336 -32.006  10.925  0.00  0.00    -0.459 OA
BRANCH  24  25
ATOM     25  C   LIG    1       22.309 -33.302  10.295  0.00  0.00    +0.171 C 
ATOM     26  C   LIG    1       22.830 -33.133   8.874  0.00  0.00    +0.051 C 
ATOM     27  C   LIG    1       20.872 -33.799  10.300  0.00  0.00    +0.051 C 
ENDBRANCH  24  25
ENDBRANCH  22  24
ENDBRANCH   3  22
BRANCH   8  28
ATOM     28  C   LIG    1       26.368 -27.239  12.579  0.00  0.00    +0.115 C 
ATOM     29  N   LIG    1       26.896 -26.241  12.802  0.00  0.00    -0.190 NA
ENDBRANCH   8  28
TORSDOF 8
ENDMDL
MODEL 7
REMARK VINA RESULT:      -5.1      2.382      5.609
REMARK  Name = *****
REMARK                            x       y       z     vdW  Elec       q    Type
REMARK                         _______ _______ _______ _____ _____    ______ ____
ROOT
ATOM      1  C   LIG    1       24.583 -21.189   5.116  0.00  0.00    +0.080 C 
ATOM      2  C   LIG    1       25.630 -22.060   5.813  0.00  0.00    +0.097 C 
ATOM      3  C   LIG    1       26.058 -21.506   7.181  0.00  0.00    +0.065 C 
ATOM      4  C   LIG    1       25.240 -20.653   7.846  0.00  0.00    +0.016 C 
ATOM      5  C   LIG    1       25.473 -20.108   9.233  0.00  0.00    +0.061 C 
ATOM      6  N   LIG    1       24.080 -20.214   7.227  0.00  0.00    -0.309 N 
ATOM      7  H   LIG    1       23.533 -19.505   7.717  0.00  0.00    +0.152 HD
ATOM      8  C   LIG    1       23.844 -20.347   5.864  0.00  0.00    +0.120 C 
ENDROOT
BRANCH   2   9
ATOM      9  C   LIG    1       25.114 -23.509   5.956  0.00  0.00    -0.029 A 
ATOM     10  C   LIG    1       25.934 -24.589   5.591  0.00  0.00    +0.088 A 
ATOM     11  C   LIG    1       25.471 -25.909   5.729  0.00  0.00    +0.273 A 
ATOM     12  C   LIG    1       24.185 -26.172   6.219  0.00  0.00    +0.084 A 
ATOM     13  C   LIG    1       23.362 -25.106   6.571  0.00  0.00    +0.007 A 
ATOM     14  C   LIG    1       23.820 -23.791   6.442  0.00  0.00    +0.005 A 
BRANCH  11  15
ATOM     15  N   LIG    1       26.347 -27.028   5.360  0.00  0.00    +0.080 N 
ATOM     16  O   LIG    1       27.565 -26.807   5.293  0.00  0.00    -0.576 OA
ATOM     17  O   LIG    1       25.819 -28.127   5.136  0.00  0.00    +0.041 OA
ENDBRANCH  11  15
ENDBRANCH   2   9
BRANCH   1  18
ATOM     18  C   LIG    1       24.419 -21.294   3.644  0.00  0.00    +0.338 C 
ATOM     19  O   LIG    1       24.070 -22.300   3.053  0.00  0.00    -0.245 OA
BRANCH  18  21
ATOM     20  C   LIG    1       25.784 -19.380   3.575  0.00  0.00    +0.280 C 
ATOM     21  O   LIG    1       24.656 -20.092   3.061  0.00  0.00    -0.465 OA
ENDBRANCH  18  21
ENDBRANCH   1  18
BRANCH   3  22
ATOM     22  C   LIG    1       27.419 -21.838   7.689  0.00  0.00    +0.338 C 
ATOM     23  O   LIG    1       27.648 -22.361   8.768  0.00  0.00    -0.245 OA
BRANCH  22  24
ATOM     24  O   LIG    1       28.365 -21.382   6.832  0.00  0.00    -0.459 OA
BRANCH  24  25
ATOM     25  C   LIG    1       28.866 -20.048   7.052  0.00  0.00    +0.171 C 
ATOM     26  C   LIG    1       28.820 -19.314   5.717  0.00  0.00    +0.051 C 
ATOM     27  C   LIG    1       30.290 -20.158   7.572  0.00  0.00    +0.051 C 
ENDBRANCH  24  25
ENDBRANCH  22  24
ENDBRANCH   3  22
BRANCH   8  28
ATOM     28  C   LIG    1       22.705 -19.636   5.447  0.00  0.00    +0.115 C 
ATOM     29  N   LIG    1       21.773 -19.054   5.105  0.00  0.00    -0.190 NA
ENDBRANCH   8  28
TORSDOF 8
ENDMDL
MODEL 8
REMARK VINA RESULT:      -5.1      9.528     11.909
REMARK  Name = *****
REMARK                            x       y       z     vdW  Elec       q    Type
REMARK                         _______ _______ _______ _____ _____    ______ ____
ROOT
ATOM      1  C   LIG    1       23.240 -30.733  11.549  0.00  0.00    +0.080 C 
ATOM      2  C   LIG    1       24.304 -29.777  11.007  0.00  0.00    +0.097 C 
ATOM      3  C   LIG    1       25.438 -29.508  12.008  0.00  0.00    +0.065 C 
ATOM      4  C   LIG    1       25.677 -30.396  13.006  0.00  0.00    +0.016 C 
ATOM      5  C   LIG    1       26.810 -30.324  13.998  0.00  0.00    +0.061 C 
ATOM      6  N   LIG    1       24.821 -31.475  13.164  0.00  0.00    -0.309 N 
ATOM      7  H   LIG    1       24.976 -32.073  13.977  0.00  0.00    +0.152 HD
ATOM      8  C   LIG    1       23.569 -31.552  12.567  0.00  0.00    +0.120 C 
ENDROOT
BRANCH   2   9
ATOM      9  C   LIG    1       24.876 -30.310   9.675  0.00  0.00    -0.029 A 
ATOM     10  C   LIG    1       24.407 -29.802   8.452  0.00  0.00    +0.088 A 
ATOM     11  C   LIG    1       24.933 -30.278   7.238  0.00  0.00    +0.273 A 
ATOM     12  C   LIG    1       25.921 -31.270   7.223  0.00  0.00    +0.084 A 
ATOM     13  C   LIG    1       26.383 -31.787   8.431  0.00  0.00    +0.007 A 
ATOM     14  C   LIG    1       25.868 -31.313   9.641  0.00  0.00    +0.005 A 
BRANCH  11  15
ATOM     15  N   LIG    1       24.444 -29.724   5.969  0.00  0.00    +0.080 N 
ATOM     16  O   LIG    1       23.244 -29.876   5.699  0.00  0.00    -0.576 OA
ATOM     17  O   LIG    1       25.259 -29.138   5.242  0.00  0.00    +0.041 OA
ENDBRANCH  11  15
ENDBRANCH   2   9
BRANCH   1  18
ATOM     18  C   LIG    1       21.884 -30.726  10.943  0.00  0.00    +0.338 C 
ATOM     19  O   LIG    1       21.574 -31.320   9.927  0.00  0.00    -0.245 OA
BRANCH  18  21
ATOM     20  C   LIG    1       19.841 -30.703  12.108  0.00  0.00    +0.280 C 
ATOM     21  O   LIG    1       21.031 -30.012  11.718  0.00  0.00    -0.465 OA
ENDBRANCH  18  21
ENDBRANCH   1  18
BRANCH   3  22
ATOM     22  C   LIG    1       26.175 -28.216  11.920  0.00  0.00    +0.338 C 
ATOM     23  O   LIG    1       27.154 -28.023  11.218  0.00  0.00    -0.245 OA
BRANCH  22  24
ATOM     24  O   LIG    1       25.669 -27.325  12.807  0.00  0.00    -0.459 OA
BRANCH  24  25
ATOM     25  C   LIG    1       26.502 -26.204  13.166  0.00  0.00    +0.171 C 
ATOM     26  C   LIG    1       27.361 -26.631  14.350  0.00  0.00    +0.051 C 
ATOM     27  C   LIG    1       25.595 -25.041  13.533  0.00  0.00    +0.051 C 
ENDBRANCH  24  25
ENDBRANCH  22  24
ENDBRANCH   3  22
BRANCH   8  28
ATOM     28  C   LIG    1       22.812 -32.633  13.051  0.00  0.00    +0.115 C 
ATOM     29  N   LIG    1       22.192 -33.518  13.446  0.00  0.00    -0.190 NA
ENDBRANCH   8  28
TORSDOF 8
ENDMDL
MODEL 9
REMARK VINA RESULT:      -5.1      8.849     11.435
REMARK  Name = *****
REMARK                            x       y       z     vdW  Elec       q    Type
REMARK                         _______ _______ _______ _____ _____    ______ ____
ROOT
ATOM      1  C   LIG    1       25.456 -29.958  10.356  0.00  0.00    +0.080 C 
ATOM      2  C   LIG    1       24.738 -29.286  11.528  0.00  0.00    +0.097 C 
ATOM      3  C   LIG    1       23.819 -30.244  12.300  0.00  0.00    +0.065 C 
ATOM      4  C   LIG    1       24.033 -31.582  12.231  0.00  0.00    +0.016 C 
ATOM      5  C   LIG    1       23.286 -32.637  13.007  0.00  0.00    +0.061 C 
ATOM      6  N   LIG    1       25.013 -32.062  11.375  0.00  0.00    -0.309 N 
ATOM      7  H   LIG    1       25.088 -33.075  11.279  0.00  0.00    +0.152 HD
ATOM      8  C   LIG    1       25.586 -31.299  10.365  0.00  0.00    +0.120 C 
ENDROOT
BRANCH   2   9
ATOM      9  C   LIG    1       25.763 -28.634  12.482  0.00  0.00    -0.029 A 
ATOM     10  C   LIG    1       25.872 -27.235  12.552  0.00  0.00    +0.088 A 
ATOM     11  C   LIG    1       26.797 -26.639  13.427  0.00  0.00    +0.273 A 
ATOM     12  C   LIG    1       27.631 -27.423  14.234  0.00  0.00    +0.084 A 
ATOM     13  C   LIG    1       27.537 -28.810  14.162  0.00  0.00    +0.007 A 
ATOM     14  C   LIG    1       26.614 -29.409  13.298  0.00  0.00    +0.005 A 
BRANCH  11  15
ATOM     15  N   LIG    1       26.887 -25.175  13.500  0.00  0.00    +0.080 N 
ATOM     16  O   LIG    1       25.846 -24.525  13.321  0.00  0.00    -0.576 OA
ATOM     17  O   LIG    1       27.996 -24.675  13.737  0.00  0.00    +0.041 OA
ENDBRANCH  11  15
ENDBRANCH   2   9
BRANCH   1  18
ATOM     18  C   LIG    1       25.979 -29.117   9.249  0.00  0.00    +0.338 C 
ATOM     19  O   LIG    1       27.047 -28.533   9.265  0.00  0.00    -0.245 OA
BRANCH  18  21
ATOM     20  C   LIG    1       25.383 -28.178   7.176  0.00  0.00    +0.280 C 
ATOM     21  O   LIG    1       25.123 -29.145   8.198  0.00  0.00    -0.465 OA
ENDBRANCH  18  21
ENDBRANCH   1  18
BRANCH   3  22
ATOM     22  C   LIG    1       22.643 -29.679  13.021  0.00  0.00    +0.338 C 
ATOM     23  O   LIG    1       22.023 -30.258  13.897  0.00  0.00    -0.245 OA
BRANCH  22  24
ATOM     24  O   LIG    1       22.300 -28.480  12.490  0.00  0.00    -0.459 OA
BRANCH  24  25
ATOM     25  C   LIG    1       21.785 -27.481  13.393  0.00  0.00    +0.171 C 
ATOM     26  C   LIG    1       20.422 -27.047  12.870  0.00  0.00    +0.051 C 
ATOM     27  C   LIG    1       22.764 -26.317  13.416  0.00  0.00    +0.051 C 
ENDBRANCH  24  25
ENDBRANCH  22  24
ENDBRANCH   3  22
BRANCH   8  28
ATOM     28  C   LIG    1       26.388 -32.068   9.504  0.00  0.00    +0.115 C 
ATOM     29  N   LIG    1       27.045 -32.698   8.800  0.00  0.00    -0.190 NA
ENDBRANCH   8  28
TORSDOF 8
ENDMDL
