MODEL 1
REMARK VINA RESULT:      -9.3      0.000      0.000
REMARK  Name = *****
REMARK                            x       y       z     vdW  Elec       q    Type
REMARK                         _______ _______ _______ _____ _____    ______ ____
ROOT
ATOM      1  C   LIG    1       27.830 -20.916   7.544  0.00  0.00    +0.291 A 
ATOM      2  O   LIG    1       27.360 -22.200   7.581  0.00  0.00    -0.424 OA
ATOM      3  C   LIG    1       26.188 -22.186   6.852  0.00  0.00    +0.165 A 
ATOM      4  C   LIG    1       25.992 -20.875   6.447  0.00  0.00    +0.119 A 
ATOM      5  N   LIG    1       27.021 -20.085   6.913  0.00  0.00    -0.195 NA
ENDROOT
BRANCH   3   6
ATOM      6  C   LIG    1       25.557 -23.488   6.671  0.00  0.00    +0.019 A 
ATOM      7  C   LIG    1       24.157 -23.608   6.663  0.00  0.00    +0.012 A 
ATOM      8  C   LIG    1       23.541 -24.851   6.486  0.00  0.00    +0.001 A 
ATOM      9  C   LIG    1       24.315 -25.994   6.303  0.00  0.00    +0.000 A 
ATOM     10  C   LIG    1       25.703 -25.896   6.313  0.00  0.00    +0.001 A 
ATOM     11  C   LIG    1       26.317 -24.656   6.511  0.00  0.00    +0.012 A 
ENDBRANCH   3   6
BRANCH   4  12
ATOM     12  C   LIG    1       24.942 -20.317   5.607  0.00  0.00    +0.004 A 
ATOM     13  C   LIG    1       23.631 -20.278   6.108  0.00  0.00    +0.010 A 
ATOM     14  C   LIG    1       22.592 -19.720   5.359  0.00  0.00    +0.001 A 
ATOM     15  C   LIG    1       22.852 -19.192   4.098  0.00  0.00    +0.000 A 
ATOM     16  C   LIG    1       24.143 -19.247   3.576  0.00  0.00    +0.001 A 
ATOM     17  C   LIG    1       25.179 -19.824   4.318  0.00  0.00    +0.010 A 
ENDBRANCH   4  12
BRANCH   1  18
ATOM     18  N   LIG    1       29.041 -20.658   8.098  0.00  0.00    -0.281 N 
BRANCH  18  19
ATOM     19  C   LIG    1       30.057 -21.729   8.032  0.00  0.00    +0.137 C 
BRANCH  19  20
ATOM     20  C   LIG    1       30.848 -21.922   9.341  0.00  0.00    +0.175 C 
BRANCH  20  21
ATOM     21  O   LIG    1       32.143 -21.329   9.270  0.00  0.00    -0.394 OA
ATOM     22  H   LIG    1       32.136 -20.565   9.872  0.00  0.00    +0.209 HD
ENDBRANCH  20  21
ENDBRANCH  19  20
ENDBRANCH  18  19
BRANCH  18  23
ATOM     23  C   LIG    1       29.549 -19.277   7.954  0.00  0.00    +0.137 C 
BRANCH  23  24
ATOM     24  C   LIG    1       30.677 -19.192   6.915  0.00  0.00    +0.175 C 
BRANCH  24  25
ATOM     25  O   LIG    1       31.925 -18.813   7.495  0.00  0.00    -0.394 OA
ATOM     26  H   LIG    1       32.251 -19.610   7.947  0.00  0.00    +0.209 HD
ENDBRANCH  24  25
ENDBRANCH  23  24
ENDBRANCH  18  23
ENDBRANCH   1  18
TORSDOF 9
ENDMDL
MODEL 2
REMARK VINA RESULT:      -9.3      0.793      2.149
REMARK  Name = *****
REMARK                            x       y       z     vdW  Elec       q    Type
REMARK                         _______ _______ _______ _____ _____    ______ ____
ROOT
ATOM      1  C   LIG    1       27.936 -20.967   7.097  0.00  0.00    +0.291 A 
ATOM      2  O   LIG    1       27.429 -22.233   7.210  0.00  0.00    -0.424 OA
ATOM      3  C   LIG    1       26.186 -22.188   6.614  0.00  0.00    +0.165 A 
ATOM      4  C   LIG    1       25.990 -20.876   6.208  0.00  0.00    +0.119 A 
ATOM      5  N   LIG    1       27.090 -20.117   6.544  0.00  0.00    -0.195 NA
ENDROOT
BRANCH   3   6
ATOM      6  C   LIG    1       25.494 -23.470   6.526  0.00  0.00    +0.019 A 
ATOM      7  C   LIG    1       26.220 -24.664   6.389  0.00  0.00    +0.012 A 
ATOM      8  C   LIG    1       25.568 -25.898   6.309  0.00  0.00    +0.001 A 
ATOM      9  C   LIG    1       24.179 -25.960   6.374  0.00  0.00    +0.000 A 
ATOM     10  C   LIG    1       23.442 -24.787   6.503  0.00  0.00    +0.001 A 
ATOM     11  C   LIG    1       24.094 -23.552   6.563  0.00  0.00    +0.012 A 
ENDBRANCH   3   6
BRANCH   4  12
ATOM     12  C   LIG    1       24.874 -20.294   5.479  0.00  0.00    +0.004 A 
ATOM     13  C   LIG    1       23.609 -20.277   6.089  0.00  0.00    +0.010 A 
ATOM     14  C   LIG    1       22.510 -19.697   5.449  0.00  0.00    +0.001 A 
ATOM     15  C   LIG    1       22.664 -19.125   4.190  0.00  0.00    +0.000 A 
ATOM     16  C   LIG    1       23.906 -19.158   3.559  0.00  0.00    +0.001 A 
ATOM     17  C   LIG    1       25.001 -19.757   4.193  0.00  0.00    +0.010 A 
ENDBRANCH   4  12
BRANCH   1  18
ATOM     18  N   LIG    1       29.209 -20.744   7.510  0.00  0.00    -0.281 N 
BRANCH  18  19
ATOM     19  C   LIG    1       29.656 -19.339   7.593  0.00  0.00    +0.137 C 
BRANCH  19  20
ATOM     20  C   LIG    1       30.368 -18.833   6.321  0.00  0.00    +0.175 C 
BRANCH  20  21
ATOM     21  O   LIG    1       29.488 -18.085   5.484  0.00  0.00    -0.394 OA
ATOM     22  H   LIG    1       29.941 -17.971   4.631  0.00  0.00    +0.209 HD
ENDBRANCH  20  21
ENDBRANCH  19  20
ENDBRANCH  18  19
BRANCH  18  23
ATOM     23  C   LIG    1       29.729 -21.651   8.555  0.00  0.00    +0.137 C 
BRANCH  23  24
ATOM     24  C   LIG    1       31.183 -21.317   8.925  0.00  0.00    +0.175 C 
BRANCH  24  25
ATOM     25  O   LIG    1       32.059 -22.429   8.748  0.00  0.00    -0.394 OA
ATOM     26  H   LIG    1       32.919 -22.043   8.508  0.00  0.00    +0.209 HD
ENDBRANCH  24  25
ENDBRANCH  23  24
ENDBRANCH  18  23
ENDBRANCH   1  18
TORSDOF 9
ENDMDL
MODEL 3
REMARK VINA RESULT:      -9.2      1.034      4.161
REMARK  Name = *****
REMARK                            x       y       z     vdW  Elec       q    Type
REMARK                         _______ _______ _______ _____ _____    ______ ____
ROOT
ATOM      1  C   LIG    1       27.904 -20.948   7.296  0.00  0.00    +0.291 A 
ATOM      2  O   LIG    1       27.038 -20.156   6.594  0.00  0.00    -0.424 OA
ATOM      3  C   LIG    1       26.008 -20.988   6.204  0.00  0.00    +0.165 A 
ATOM      4  C   LIG    1       26.332 -22.257   6.660  0.00  0.00    +0.119 A 
ATOM      5  N   LIG    1       27.541 -22.218   7.322  0.00  0.00    -0.195 NA
ENDROOT
BRANCH   3   6
ATOM      6  C   LIG    1       24.903 -20.326   5.518  0.00  0.00    +0.019 A 
ATOM      7  C   LIG    1       25.105 -19.707   4.274  0.00  0.00    +0.012 A 
ATOM      8  C   LIG    1       24.052 -19.074   3.606  0.00  0.00    +0.001 A 
ATOM      9  C   LIG    1       22.777 -19.058   4.167  0.00  0.00    +0.000 A 
ATOM     10  C   LIG    1       22.560 -19.661   5.401  0.00  0.00    +0.001 A 
ATOM     11  C   LIG    1       23.618 -20.276   6.078  0.00  0.00    +0.012 A 
ENDBRANCH   3   6
BRANCH   4  12
ATOM     12  C   LIG    1       25.567 -23.491   6.572  0.00  0.00    +0.004 A 
ATOM     13  C   LIG    1       24.171 -23.426   6.708  0.00  0.00    +0.010 A 
ATOM     14  C   LIG    1       23.384 -24.575   6.594  0.00  0.00    +0.001 A 
ATOM     15  C   LIG    1       23.984 -25.805   6.341  0.00  0.00    +0.000 A 
ATOM     16  C   LIG    1       25.371 -25.890   6.231  0.00  0.00    +0.001 A 
ATOM     17  C   LIG    1       26.159 -24.742   6.364  0.00  0.00    +0.010 A 
ENDBRANCH   4  12
BRANCH   1  18
ATOM     18  N   LIG    1       28.970 -20.362   7.896  0.00  0.00    -0.281 N 
BRANCH  18  19
ATOM     19  C   LIG    1       30.118 -21.229   8.232  0.00  0.00    +0.137 C 
BRANCH  19  20
ATOM     20  C   LIG    1       31.195 -20.536   9.091  0.00  0.00    +0.175 C 
BRANCH  20  21
ATOM     21  O   LIG    1       32.225 -21.442   9.481  0.00  0.00    -0.394 OA
ATOM     22  H   LIG    1       31.841 -22.031  10.153  0.00  0.00    +0.209 HD
ENDBRANCH  20  21
ENDBRANCH  19  20
ENDBRANCH  18  19
BRANCH  18  23
ATOM     23  C   LIG    1       29.303 -18.992   7.452  0.00  0.00    +0.137 C 
BRANCH  23  24
ATOM     24  C   LIG    1       30.139 -19.000   6.163  0.00  0.00    +0.175 C 
BRANCH  24  25
ATOM     25  O   LIG    1       29.693 -18.030   5.217  0.00  0.00    -0.394 OA
ATOM     26  H   LIG    1       29.338 -18.542   4.470  0.00  0.00    +0.209 HD
ENDBRANCH  24  25
ENDBRANCH  23  24
ENDBRANCH  18  23
ENDBRANCH   1  18
TORSDOF 9
ENDMDL
MODEL 4
REMARK VINA RESULT:      -8.4      1.151      4.569
REMARK  Name = *****
REMARK                            x       y       z     vdW  Elec       q    Type
REMARK                         _______ _______ _______ _____ _____    ______ ____
ROOT
ATOM      1  C   LIG    1       28.020 -21.103   6.974  0.00  0.00    +0.291 A 
ATOM      2  O   LIG    1       27.142 -20.277   6.329  0.00  0.00    -0.424 OA
ATOM      3  C   LIG    1       26.047 -21.062   6.030  0.00  0.00    +0.165 A 
ATOM      4  C   LIG    1       26.344 -22.340   6.477  0.00  0.00    +0.119 A 
ATOM      5  N   LIG    1       27.600 -22.353   7.045  0.00  0.00    -0.195 NA
ENDROOT
BRANCH   3   6
ATOM      6  C   LIG    1       24.926 -20.354   5.420  0.00  0.00    +0.019 A 
ATOM      7  C   LIG    1       23.675 -20.315   6.057  0.00  0.00    +0.012 A 
ATOM      8  C   LIG    1       22.595 -19.637   5.484  0.00  0.00    +0.001 A 
ATOM      9  C   LIG    1       22.750 -18.977   4.267  0.00  0.00    +0.000 A 
ATOM     10  C   LIG    1       23.981 -19.010   3.618  0.00  0.00    +0.001 A 
ATOM     11  C   LIG    1       25.054 -19.706   4.183  0.00  0.00    +0.012 A 
ENDBRANCH   3   6
BRANCH   4  12
ATOM     12  C   LIG    1       25.516 -23.536   6.464  0.00  0.00    +0.004 A 
ATOM     13  C   LIG    1       26.146 -24.788   6.365  0.00  0.00    +0.010 A 
ATOM     14  C   LIG    1       25.402 -25.970   6.386  0.00  0.00    +0.001 A 
ATOM     15  C   LIG    1       24.017 -25.916   6.508  0.00  0.00    +0.000 A 
ATOM     16  C   LIG    1       23.374 -24.681   6.580  0.00  0.00    +0.001 A 
ATOM     17  C   LIG    1       24.119 -23.497   6.540  0.00  0.00    +0.010 A 
ENDBRANCH   4  12
BRANCH   1  18
ATOM     18  N   LIG    1       29.155 -20.563   7.484  0.00  0.00    -0.281 N 
BRANCH  18  19
ATOM     19  C   LIG    1       29.293 -19.094   7.420  0.00  0.00    +0.137 C 
BRANCH  19  20
ATOM     20  C   LIG    1       30.002 -18.587   6.147  0.00  0.00    +0.175 C 
BRANCH  20  21
ATOM     21  O   LIG    1       29.080 -18.351   5.086  0.00  0.00    -0.394 OA
ATOM     22  H   LIG    1       28.998 -19.185   4.593  0.00  0.00    +0.209 HD
ENDBRANCH  20  21
ENDBRANCH  19  20
ENDBRANCH  18  19
BRANCH  18  23
ATOM     23  C   LIG    1       29.705 -21.212   8.693  0.00  0.00    +0.137 C 
BRANCH  23  24
ATOM     24  C   LIG    1       31.222 -20.996   8.813  0.00  0.00    +0.175 C 
BRANCH  24  25
ATOM     25  O   LIG    1       31.948 -22.224   8.821  0.00  0.00    -0.394 OA
ATOM     26  H   LIG    1       31.669 -22.683   9.632  0.00  0.00    +0.209 HD
ENDBRANCH  24  25
ENDBRANCH  23  24
ENDBRANCH  18  23
ENDBRANCH   1  18
TORSDOF 9
ENDMDL
MODEL 5
REMARK VINA RESULT:      -8.1      2.879      6.377
REMARK  Name = *****
REMARK                            x       y       z     vdW  Elec       q    Type
REMARK                         _______ _______ _______ _____ _____    ______ ____
ROOT
ATOM      1  C   LIG    1       25.521 -23.651   6.681  0.00  0.00    +0.291 A 
ATOM      2  O   LIG    1       24.576 -22.842   6.113  0.00  0.00    -0.424 OA
ATOM      3  C   LIG    1       25.161 -21.595   6.022  0.00  0.00    +0.165 A 
ATOM      4  C   LIG    1       26.423 -21.711   6.585  0.00  0.00    +0.119 A 
ATOM      5  N   LIG    1       26.622 -23.004   7.018  0.00  0.00    -0.195 NA
ENDROOT
BRANCH   3   6
ATOM      6  C   LIG    1       24.359 -20.583   5.344  0.00  0.00    +0.019 A 
ATOM      7  C   LIG    1       23.096 -20.223   5.839  0.00  0.00    +0.012 A 
ATOM      8  C   LIG    1       22.321 -19.251   5.199  0.00  0.00    +0.001 A 
ATOM      9  C   LIG    1       22.801 -18.614   4.058  0.00  0.00    +0.000 A 
ATOM     10  C   LIG    1       24.049 -18.961   3.549  0.00  0.00    +0.001 A 
ATOM     11  C   LIG    1       24.814 -19.948   4.178  0.00  0.00    +0.012 A 
ENDBRANCH   3   6
BRANCH   4  12
ATOM     12  C   LIG    1       27.477 -20.714   6.696  0.00  0.00    +0.004 A 
ATOM     13  C   LIG    1       28.061 -20.492   7.953  0.00  0.00    +0.010 A 
ATOM     14  C   LIG    1       29.103 -19.574   8.110  0.00  0.00    +0.001 A 
ATOM     15  C   LIG    1       29.575 -18.866   7.008  0.00  0.00    +0.000 A 
ATOM     16  C   LIG    1       28.987 -19.056   5.758  0.00  0.00    +0.001 A 
ATOM     17  C   LIG    1       27.931 -19.961   5.607  0.00  0.00    +0.010 A 
ENDBRANCH   4  12
BRANCH   1  18
ATOM     18  N   LIG    1       25.251 -24.975   6.793  0.00  0.00    -0.281 N 
BRANCH  18  19
ATOM     19  C   LIG    1       23.975 -25.456   6.226  0.00  0.00    +0.137 C 
BRANCH  19  20
ATOM     20  C   LIG    1       24.143 -26.386   5.007  0.00  0.00    +0.175 C 
BRANCH  20  21
ATOM     21  O   LIG    1       23.861 -27.745   5.335  0.00  0.00    -0.394 OA
ATOM     22  H   LIG    1       23.751 -27.784   6.300  0.00  0.00    +0.209 HD
ENDBRANCH  20  21
ENDBRANCH  19  20
ENDBRANCH  18  19
BRANCH  18  23
ATOM     23  C   LIG    1       26.402 -25.894   6.663  0.00  0.00    +0.137 C 
BRANCH  23  24
ATOM     24  C   LIG    1       26.339 -27.034   7.692  0.00  0.00    +0.175 C 
BRANCH  24  25
ATOM     25  O   LIG    1       26.035 -28.292   7.092  0.00  0.00    -0.394 OA
ATOM     26  H   LIG    1       26.624 -28.358   6.320  0.00  0.00    +0.209 HD
ENDBRANCH  24  25
ENDBRANCH  23  24
ENDBRANCH  18  23
ENDBRANCH   1  18
TORSDOF 9
ENDMDL
MODEL 6
REMARK VINA RESULT:      -7.7      2.964      6.243
REMARK  Name = *****
REMARK                            x       y       z     vdW  Elec       q    Type
REMARK                         _______ _______ _______ _____ _____    ______ ____
ROOT
ATOM      1  C   LIG    1       25.398 -23.484   6.029  0.00  0.00    +0.291 A 
ATOM      2  O   LIG    1       24.506 -22.588   5.508  0.00  0.00    -0.424 OA
ATOM      3  C   LIG    1       25.109 -21.353   5.626  0.00  0.00    +0.165 A 
ATOM      4  C   LIG    1       26.326 -21.568   6.257  0.00  0.00    +0.119 A 
ATOM      5  N   LIG    1       26.479 -22.911   6.526  0.00  0.00    -0.195 NA
ENDROOT
BRANCH   3   6
ATOM      6  C   LIG    1       24.371 -20.243   5.034  0.00  0.00    +0.019 A 
ATOM      7  C   LIG    1       23.058 -19.959   5.446  0.00  0.00    +0.012 A 
ATOM      8  C   LIG    1       22.343 -18.895   4.888  0.00  0.00    +0.001 A 
ATOM      9  C   LIG    1       22.931 -18.091   3.916  0.00  0.00    +0.000 A 
ATOM     10  C   LIG    1       24.228 -18.360   3.491  0.00  0.00    +0.001 A 
ATOM     11  C   LIG    1       24.935 -19.436   4.035  0.00  0.00    +0.012 A 
ENDBRANCH   3   6
BRANCH   4  12
ATOM     12  C   LIG    1       27.380 -20.617   6.573  0.00  0.00    +0.004 A 
ATOM     13  C   LIG    1       27.727 -20.423   7.920  0.00  0.00    +0.010 A 
ATOM     14  C   LIG    1       28.758 -19.550   8.279  0.00  0.00    +0.001 A 
ATOM     15  C   LIG    1       29.456 -18.859   7.292  0.00  0.00    +0.000 A 
ATOM     16  C   LIG    1       29.105 -19.020   5.953  0.00  0.00    +0.001 A 
ATOM     17  C   LIG    1       28.060 -19.879   5.597  0.00  0.00    +0.010 A 
ENDBRANCH   4  12
BRANCH   1  18
ATOM     18  N   LIG    1       25.106 -24.806   5.944  0.00  0.00    -0.281 N 
BRANCH  18  19
ATOM     19  C   LIG    1       26.173 -25.759   6.313  0.00  0.00    +0.137 C 
BRANCH  19  20
ATOM     20  C   LIG    1       26.336 -26.930   5.322  0.00  0.00    +0.175 C 
BRANCH  20  21
ATOM     21  O   LIG    1       27.707 -27.181   5.020  0.00  0.00    -0.394 OA
ATOM     22  H   LIG    1       27.756 -27.355   4.064  0.00  0.00    +0.209 HD
ENDBRANCH  20  21
ENDBRANCH  19  20
ENDBRANCH  18  19
BRANCH  18  23
ATOM     23  C   LIG    1       23.731 -25.201   6.315  0.00  0.00    +0.137 C 
BRANCH  23  24
ATOM     24  C   LIG    1       22.970 -24.047   6.987  0.00  0.00    +0.175 C 
BRANCH  24  25
ATOM     25  O   LIG    1       21.866 -23.594   6.205  0.00  0.00    -0.394 OA
ATOM     26  H   LIG    1       21.405 -24.401   5.918  0.00  0.00    +0.209 HD
ENDBRANCH  24  25
ENDBRANCH  23  24
ENDBRANCH  18  23
ENDBRANCH   1  18
TORSDOF 9
ENDMDL
MODEL 7
REMARK VINA RESULT:      -7.6      2.744      5.947
REMARK  Name = *****
REMARK                            x       y       z     vdW  Elec       q    Type
REMARK                         _______ _______ _______ _____ _____    ______ ____
ROOT
ATOM      1  C   LIG    1       25.317 -24.216   6.230  0.00  0.00    +0.291 A 
ATOM      2  O   LIG    1       26.449 -23.548   6.608  0.00  0.00    -0.424 OA
ATOM      3  C   LIG    1       26.218 -22.223   6.298  0.00  0.00    +0.165 A 
ATOM      4  C   LIG    1       24.965 -22.170   5.705  0.00  0.00    +0.119 A 
ATOM      5  N   LIG    1       24.425 -23.436   5.647  0.00  0.00    -0.195 NA
ENDROOT
BRANCH   3   6
ATOM      6  C   LIG    1       27.267 -21.298   6.713  0.00  0.00    +0.019 A 
ATOM      7  C   LIG    1       27.891 -21.442   7.963  0.00  0.00    +0.012 A 
ATOM      8  C   LIG    1       28.901 -20.563   8.369  0.00  0.00    +0.001 A 
ATOM      9  C   LIG    1       29.309 -19.531   7.527  0.00  0.00    +0.000 A 
ATOM     10  C   LIG    1       28.698 -19.370   6.288  0.00  0.00    +0.001 A 
ATOM     11  C   LIG    1       27.675 -20.236   5.892  0.00  0.00    +0.012 A 
ENDBRANCH   3   6
BRANCH   4  12
ATOM     12  C   LIG    1       24.214 -21.013   5.242  0.00  0.00    +0.004 A 
ATOM     13  C   LIG    1       24.621 -20.379   4.057  0.00  0.00    +0.010 A 
ATOM     14  C   LIG    1       23.913 -19.288   3.546  0.00  0.00    +0.001 A 
ATOM     15  C   LIG    1       22.787 -18.817   4.215  0.00  0.00    +0.000 A 
ATOM     16  C   LIG    1       22.386 -19.418   5.407  0.00  0.00    +0.001 A 
ATOM     17  C   LIG    1       23.107 -20.499   5.927  0.00  0.00    +0.010 A 
ENDBRANCH   4  12
BRANCH   1  18
ATOM     18  N   LIG    1       25.223 -25.538   6.520  0.00  0.00    -0.281 N 
BRANCH  18  19
ATOM     19  C   LIG    1       24.071 -26.273   5.957  0.00  0.00    +0.137 C 
BRANCH  19  20
ATOM     20  C   LIG    1       24.080 -27.783   6.270  0.00  0.00    +0.175 C 
BRANCH  20  21
ATOM     21  O   LIG    1       23.663 -28.558   5.148  0.00  0.00    -0.394 OA
ATOM     22  H   LIG    1       22.726 -28.776   5.290  0.00  0.00    +0.209 HD
ENDBRANCH  20  21
ENDBRANCH  19  20
ENDBRANCH  18  19
BRANCH  18  23
ATOM     23  C   LIG    1       26.495 -26.287   6.591  0.00  0.00    +0.137 C 
BRANCH  23  24
ATOM     24  C   LIG    1       26.860 -26.916   5.238  0.00  0.00    +0.175 C 
BRANCH  24  25
ATOM     25  O   LIG    1       28.269 -27.074   5.072  0.00  0.00    -0.394 OA
ATOM     26  H   LIG    1       28.373 -27.718   4.351  0.00  0.00    +0.209 HD
ENDBRANCH  24  25
ENDBRANCH  23  24
ENDBRANCH  18  23
ENDBRANCH   1  18
TORSDOF 9
ENDMDL
MODEL 8
REMARK VINA RESULT:      -6.9      1.381      4.370
REMARK  Name = *****
REMARK                            x       y       z     vdW  Elec       q    Type
REMARK                         _______ _______ _______ _____ _____    ______ ____
ROOT
ATOM      1  C   LIG    1       28.589 -20.936   7.384  0.00  0.00    +0.291 A 
ATOM      2  O   LIG    1       28.142 -20.102   6.397  0.00  0.00    -0.424 OA
ATOM      3  C   LIG    1       26.929 -20.622   5.993  0.00  0.00    +0.165 A 
ATOM      4  C   LIG    1       26.729 -21.776   6.735  0.00  0.00    +0.119 A 
ATOM      5  N   LIG    1       27.796 -21.972   7.586  0.00  0.00    -0.195 NA
ENDROOT
BRANCH   3   6
ATOM      6  C   LIG    1       26.212 -19.826   5.003  0.00  0.00    +0.019 A 
ATOM      7  C   LIG    1       24.876 -20.119   4.684  0.00  0.00    +0.012 A 
ATOM      8  C   LIG    1       24.178 -19.360   3.739  0.00  0.00    +0.001 A 
ATOM      9  C   LIG    1       24.801 -18.288   3.106  0.00  0.00    +0.000 A 
ATOM     10  C   LIG    1       26.125 -17.985   3.405  0.00  0.00    +0.001 A 
ATOM     11  C   LIG    1       26.828 -18.758   4.334  0.00  0.00    +0.012 A 
ENDBRANCH   3   6
BRANCH   4  12
ATOM     12  C   LIG    1       25.586 -22.677   6.748  0.00  0.00    +0.004 A 
ATOM     13  C   LIG    1       24.324 -22.156   7.075  0.00  0.00    +0.010 A 
ATOM     14  C   LIG    1       23.187 -22.968   7.066  0.00  0.00    +0.001 A 
ATOM     15  C   LIG    1       23.298 -24.313   6.728  0.00  0.00    +0.000 A 
ATOM     16  C   LIG    1       24.548 -24.852   6.427  0.00  0.00    +0.001 A 
ATOM     17  C   LIG    1       25.689 -24.042   6.456  0.00  0.00    +0.010 A 
ENDBRANCH   4  12
BRANCH   1  18
ATOM     18  N   LIG    1       29.725 -20.600   8.044  0.00  0.00    -0.281 N 
BRANCH  18  19
ATOM     19  C   LIG    1       29.904 -19.178   8.403  0.00  0.00    +0.137 C 
BRANCH  19  20
ATOM     20  C   LIG    1       31.357 -18.678   8.274  0.00  0.00    +0.175 C 
BRANCH  20  21
ATOM     21  O   LIG    1       32.009 -18.612   9.540  0.00  0.00    -0.394 OA
ATOM     22  H   LIG    1       32.680 -19.316   9.548  0.00  0.00    +0.209 HD
ENDBRANCH  20  21
ENDBRANCH  19  20
ENDBRANCH  18  19
BRANCH  18  23
ATOM     23  C   LIG    1       30.228 -21.583   9.027  0.00  0.00    +0.137 C 
BRANCH  23  24
ATOM     24  C   LIG    1       31.692 -21.961   8.755  0.00  0.00    +0.175 C 
BRANCH  24  25
ATOM     25  O   LIG    1       31.877 -23.371   8.634  0.00  0.00    -0.394 OA
ATOM     26  H   LIG    1       31.318 -23.641   7.885  0.00  0.00    +0.209 HD
ENDBRANCH  24  25
ENDBRANCH  23  24
ENDBRANCH  18  23
ENDBRANCH   1  18
TORSDOF 9
ENDMDL
MODEL 9
REMARK VINA RESULT:      -6.9      2.932      6.001
REMARK  Name = *****
REMARK                            x       y       z     vdW  Elec       q    Type
REMARK                         _______ _______ _______ _____ _____    ______ ____
ROOT
ATOM      1  C   LIG    1       25.348 -24.428   5.617  0.00  0.00    +0.291 A 
ATOM      2  O   LIG    1       26.315 -23.799   6.351  0.00  0.00    -0.424 OA
ATOM      3  C   LIG    1       26.034 -22.451   6.256  0.00  0.00    +0.165 A 
ATOM      4  C   LIG    1       24.928 -22.337   5.428  0.00  0.00    +0.119 A 
ATOM      5  N   LIG    1       24.526 -23.589   5.015  0.00  0.00    -0.195 NA
ENDROOT
BRANCH   3   6
ATOM      6  C   LIG    1       26.890 -21.582   7.056  0.00  0.00    +0.019 A 
ATOM      7  C   LIG    1       28.268 -21.501   6.795  0.00  0.00    +0.012 A 
ATOM      8  C   LIG    1       29.097 -20.668   7.553  0.00  0.00    +0.001 A 
ATOM      9  C   LIG    1       28.561 -19.895   8.579  0.00  0.00    +0.000 A 
ATOM     10  C   LIG    1       27.199 -19.966   8.856  0.00  0.00    +0.001 A 
ATOM     11  C   LIG    1       26.375 -20.814   8.111  0.00  0.00    +0.012 A 
ENDBRANCH   3   6
BRANCH   4  12
ATOM     12  C   LIG    1       24.185 -21.147   5.042  0.00  0.00    +0.004 A 
ATOM     13  C   LIG    1       24.724 -20.310   4.052  0.00  0.00    +0.010 A 
ATOM     14  C   LIG    1       24.036 -19.175   3.616  0.00  0.00    +0.001 A 
ATOM     15  C   LIG    1       22.796 -18.862   4.167  0.00  0.00    +0.000 A 
ATOM     16  C   LIG    1       22.260 -19.667   5.170  0.00  0.00    +0.001 A 
ATOM     17  C   LIG    1       22.960 -20.793   5.619  0.00  0.00    +0.010 A 
ENDBRANCH   4  12
BRANCH   1  18
ATOM     18  N   LIG    1       25.316 -25.784   5.622  0.00  0.00    -0.281 N 
BRANCH  18  19
ATOM     19  C   LIG    1       26.539 -26.487   6.062  0.00  0.00    +0.137 C 
BRANCH  19  20
ATOM     20  C   LIG    1       27.247 -27.272   4.939  0.00  0.00    +0.175 C 
BRANCH  20  21
ATOM     21  O   LIG    1       28.662 -27.113   4.992  0.00  0.00    -0.394 OA
ATOM     22  H   LIG    1       28.999 -27.794   5.599  0.00  0.00    +0.209 HD
ENDBRANCH  20  21
ENDBRANCH  19  20
ENDBRANCH  18  19
BRANCH  18  23
ATOM     23  C   LIG    1       24.035 -26.410   6.013  0.00  0.00    +0.137 C 
BRANCH  23  24
ATOM     24  C   LIG    1       24.194 -27.916   6.272  0.00  0.00    +0.175 C 
BRANCH  24  25
ATOM     25  O   LIG    1       23.628 -28.711   5.232  0.00  0.00    -0.394 OA
ATOM     26  H   LIG    1       23.922 -29.620   5.413  0.00  0.00    +0.209 HD
ENDBRANCH  24  25
ENDBRANCH  23  24
ENDBRANCH  18  23
ENDBRANCH   1  18
TORSDOF 9
ENDMDL
