MODEL 1
REMARK VINA RESULT:      -7.2      0.000      0.000
REMARK  Name = *****
REMARK                            x       y       z     vdW  Elec       q    Type
REMARK                         _______ _______ _______ _____ _____    ______ ____
ROOT
ATOM      1  N   LIG    1       25.637 -29.090   9.769  0.00  0.00    -0.295 N 
ATOM      2  C   LIG    1       25.556 -28.841   8.423  0.00  0.00    +0.154 A 
ATOM      3  C   LIG    1       26.048 -27.770   7.628  0.00  0.00    +0.283 C 
ATOM      4  N   LIG    1       25.650 -27.852   6.293  0.00  0.00    -0.252 N 
ATOM      5  C   LIG    1       24.819 -28.844   5.749  0.00  0.00    +0.334 C 
ATOM      6  N   LIG    1       24.462 -29.905   6.584  0.00  0.00    -0.280 N 
ATOM      7  C   LIG    1       23.645 -30.989   6.072  0.00  0.00    +0.155 C 
ATOM      8  O   LIG    1       24.431 -28.781   4.578  0.00  0.00    -0.246 OA
ATOM      9  O   LIG    1       26.745 -26.865   8.076  0.00  0.00    -0.265 OA
ATOM     10  C   LIG    1       24.805 -29.857   7.917  0.00  0.00    +0.170 A 
ATOM     11  N   LIG    1       24.420 -30.733   8.888  0.00  0.00    -0.196 NA
ATOM     12  C   LIG    1       24.923 -30.255  10.012  0.00  0.00    +0.202 A 
ENDROOT
BRANCH  12  13
ATOM     13  N   LIG    1       24.709 -30.723  11.281  0.00  0.00    -0.299 N 
ATOM     14  C   LIG    1       25.409 -31.981  11.626  0.00  0.00    +0.126 C 
ATOM     15  C   LIG    1       25.372 -32.198  13.158  0.00  0.00    +0.068 C 
ATOM     16  C   LIG    1       23.915 -32.264  13.628  0.00  0.00    +0.021 C 
ATOM     17  C   LIG    1       23.164 -31.009  13.186  0.00  0.00    +0.020 C 
ATOM     18  C   LIG    1       23.285 -30.773  11.676  0.00  0.00    +0.108 C 
BRANCH  15  19
ATOM     19  N   LIG    1       26.089 -33.412  13.568  0.00  0.00    -0.326 NA
ATOM     20  H   LIG    1       25.466 -34.217  13.486  0.00  0.00    +0.118 HD
ATOM     21  H   LIG    1       26.326 -33.342  14.557  0.00  0.00    +0.118 HD
ENDBRANCH  15  19
ENDBRANCH  12  13
BRANCH   1  22
ATOM     22  C   LIG    1       26.220 -28.198  10.758  0.00  0.00    +0.214 C 
BRANCH  22  25
ATOM     23  C   LIG    1       29.643 -29.697  12.518  0.00  0.00    +0.106 C 
ATOM     24  C   LIG    1       28.482 -29.160  11.811  0.00  0.00    -0.104 C 
ATOM     25  C   LIG    1       27.481 -28.721  11.292  0.00  0.00    -0.081 C 
ENDBRANCH  22  25
ENDBRANCH   1  22
BRANCH   4  26
ATOM     26  C   LIG    1       25.970 -26.708   5.447  0.00  0.00    +0.206 C 
BRANCH  26  27
ATOM     27  C   LIG    1       25.493 -25.383   6.018  0.00  0.00    +0.150 A 
ATOM     28  N   LIG    1       26.439 -24.500   6.392  0.00  0.00    -0.230 NA
ATOM     29  C   LIG    1       26.031 -23.333   6.908  0.00  0.00    +0.075 A 
ATOM     30  C   LIG    1       24.677 -23.003   7.068  0.00  0.00    +0.021 A 
ATOM     31  C   LIG    1       24.321 -21.749   7.624  0.00  0.00    +0.012 A 
ATOM     32  C   LIG    1       25.301 -20.840   8.018  0.00  0.00    +0.001 A 
ATOM     33  C   LIG    1       26.639 -21.171   7.859  0.00  0.00    +0.002 A 
ATOM     34  C   LIG    1       23.773 -23.986   6.649  0.00  0.00    +0.050 A 
ATOM     35  C   LIG    1       22.288 -23.796   6.744  0.00  0.00    +0.066 C 
ATOM     36  C   LIG    1       26.988 -22.408   7.307  0.00  0.00    +0.028 A 
ATOM     37  N   LIG    1       24.169 -25.170   6.136  0.00  0.00    -0.235 NA
ENDBRANCH  26  27
ENDBRANCH   4  26
TORSDOF 6
ENDMDL
MODEL 2
REMARK VINA RESULT:      -6.9      4.076      7.901
REMARK  Name = *****
REMARK                            x       y       z     vdW  Elec       q    Type
REMARK                         _______ _______ _______ _____ _____    ______ ____
ROOT
ATOM      1  N   LIG    1       24.695 -31.350   9.077  0.00  0.00    -0.295 N 
ATOM      2  C   LIG    1       23.665 -31.525   9.966  0.00  0.00    +0.154 A 
ATOM      3  C   LIG    1       23.452 -31.017  11.277  0.00  0.00    +0.283 C 
ATOM      4  N   LIG    1       22.306 -31.532  11.883  0.00  0.00    -0.252 N 
ATOM      5  C   LIG    1       21.442 -32.484  11.319  0.00  0.00    +0.334 C 
ATOM      6  N   LIG    1       21.680 -32.853   9.992  0.00  0.00    -0.280 N 
ATOM      7  C   LIG    1       20.797 -33.797   9.332  0.00  0.00    +0.155 C 
ATOM      8  O   LIG    1       20.508 -32.963  11.969  0.00  0.00    -0.246 OA
ATOM      9  O   LIG    1       24.205 -30.212  11.818  0.00  0.00    -0.265 OA
ATOM     10  C   LIG    1       22.814 -32.395   9.360  0.00  0.00    +0.170 A 
ATOM     11  N   LIG    1       23.263 -32.767   8.128  0.00  0.00    -0.196 NA
ATOM     12  C   LIG    1       24.411 -32.133   7.966  0.00  0.00    +0.202 A 
ENDROOT
BRANCH  12  13
ATOM     13  N   LIG    1       25.299 -32.276   6.934  0.00  0.00    -0.299 N 
ATOM     14  C   LIG    1       24.698 -32.482   5.597  0.00  0.00    +0.126 C 
ATOM     15  C   LIG    1       25.772 -32.271   4.502  0.00  0.00    +0.068 C 
ATOM     16  C   LIG    1       26.921 -33.262   4.718  0.00  0.00    +0.021 C 
ATOM     17  C   LIG    1       27.477 -33.120   6.133  0.00  0.00    +0.020 C 
ATOM     18  C   LIG    1       26.380 -33.251   7.195  0.00  0.00    +0.108 C 
BRANCH  15  19
ATOM     19  N   LIG    1       25.226 -32.420   3.148  0.00  0.00    -0.326 NA
ATOM     20  H   LIG    1       25.540 -33.307   2.751  0.00  0.00    +0.118 HD
ATOM     21  H   LIG    1       25.615 -31.692   2.548  0.00  0.00    +0.118 HD
ENDBRANCH  15  19
ENDBRANCH  12  13
BRANCH   1  22
ATOM     22  C   LIG    1       25.920 -30.615   9.340  0.00  0.00    +0.214 C 
BRANCH  22  25
ATOM     23  C   LIG    1       25.889 -27.094   7.179  0.00  0.00    +0.106 C 
ATOM     24  C   LIG    1       25.929 -28.288   8.021  0.00  0.00    -0.104 C 
ATOM     25  C   LIG    1       25.939 -29.318   8.657  0.00  0.00    -0.081 C 
ENDBRANCH  22  25
ENDBRANCH   1  22
BRANCH   4  26
ATOM     26  C   LIG    1       22.103 -31.193  13.287  0.00  0.00    +0.206 C 
BRANCH  26  27
ATOM     27  C   LIG    1       21.323 -29.904  13.490  0.00  0.00    +0.150 A 
ATOM     28  N   LIG    1       20.023 -30.019  13.819  0.00  0.00    -0.230 NA
ATOM     29  C   LIG    1       19.322 -28.890  13.989  0.00  0.00    +0.075 A 
ATOM     30  C   LIG    1       19.885 -27.615  13.841  0.00  0.00    +0.021 A 
ATOM     31  C   LIG    1       19.080 -26.465  14.035  0.00  0.00    +0.012 A 
ATOM     32  C   LIG    1       17.732 -26.587  14.368  0.00  0.00    +0.001 A 
ATOM     33  C   LIG    1       17.178 -27.850  14.512  0.00  0.00    +0.002 A 
ATOM     34  C   LIG    1       21.242 -27.602  13.498  0.00  0.00    +0.050 A 
ATOM     35  C   LIG    1       22.004 -26.323  13.305  0.00  0.00    +0.066 C 
ATOM     36  C   LIG    1       17.976 -28.984  14.324  0.00  0.00    +0.028 A 
ATOM     37  N   LIG    1       21.960 -28.730  13.315  0.00  0.00    -0.235 NA
ENDBRANCH  26  27
ENDBRANCH   4  26
TORSDOF 6
ENDMDL
MODEL 3
REMARK VINA RESULT:      -6.8      0.859      1.363
REMARK  Name = *****
REMARK                            x       y       z     vdW  Elec       q    Type
REMARK                         _______ _______ _______ _____ _____    ______ ____
ROOT
ATOM      1  N   LIG    1       25.630 -29.279   9.759  0.00  0.00    -0.295 N 
ATOM      2  C   LIG    1       25.564 -28.912   8.439  0.00  0.00    +0.154 A 
ATOM      3  C   LIG    1       26.182 -27.853   7.720  0.00  0.00    +0.283 C 
ATOM      4  N   LIG    1       25.757 -27.772   6.393  0.00  0.00    -0.252 N 
ATOM      5  C   LIG    1       24.793 -28.597   5.793  0.00  0.00    +0.334 C 
ATOM      6  N   LIG    1       24.311 -29.668   6.551  0.00  0.00    -0.280 N 
ATOM      7  C   LIG    1       23.348 -30.589   5.975  0.00  0.00    +0.155 C 
ATOM      8  O   LIG    1       24.400 -28.388   4.641  0.00  0.00    -0.246 OA
ATOM      9  O   LIG    1       27.001 -27.087   8.220  0.00  0.00    -0.265 OA
ATOM     10  C   LIG    1       24.677 -29.775   7.874  0.00  0.00    +0.170 A 
ATOM     11  N   LIG    1       24.193 -30.669   8.781  0.00  0.00    -0.196 NA
ATOM     12  C   LIG    1       24.772 -30.356   9.927  0.00  0.00    +0.202 A 
ENDROOT
BRANCH  12  13
ATOM     13  N   LIG    1       24.516 -30.894  11.160  0.00  0.00    -0.299 N 
ATOM     14  C   LIG    1       25.254 -32.138  11.481  0.00  0.00    +0.126 C 
ATOM     15  C   LIG    1       25.151 -32.430  12.997  0.00  0.00    +0.068 C 
ATOM     16  C   LIG    1       23.676 -32.581  13.388  0.00  0.00    +0.021 C 
ATOM     17  C   LIG    1       22.893 -31.339  12.967  0.00  0.00    +0.020 C 
ATOM     18  C   LIG    1       23.078 -31.023  11.478  0.00  0.00    +0.108 C 
BRANCH  15  19
ATOM     19  N   LIG    1       25.899 -33.632  13.386  0.00  0.00    -0.326 NA
ATOM     20  H   LIG    1       26.806 -33.632  12.918  0.00  0.00    +0.118 HD
ATOM     21  H   LIG    1       25.408 -34.458  13.043  0.00  0.00    +0.118 HD
ENDBRANCH  15  19
ENDBRANCH  12  13
BRANCH   1  22
ATOM     22  C   LIG    1       26.342 -28.556  10.800  0.00  0.00    +0.214 C 
BRANCH  22  25
ATOM     23  C   LIG    1       23.869 -27.285  13.855  0.00  0.00    +0.106 C 
ATOM     24  C   LIG    1       24.741 -27.825  12.813  0.00  0.00    -0.104 C 
ATOM     25  C   LIG    1       25.465 -28.200  11.919  0.00  0.00    -0.081 C 
ENDBRANCH  22  25
ENDBRANCH   1  22
BRANCH   4  26
ATOM     26  C   LIG    1       26.214 -26.614   5.633  0.00  0.00    +0.206 C 
BRANCH  26  27
ATOM     27  C   LIG    1       25.674 -25.295   6.160  0.00  0.00    +0.150 A 
ATOM     28  N   LIG    1       26.576 -24.355   6.500  0.00  0.00    -0.230 NA
ATOM     29  C   LIG    1       26.112 -23.192   6.977  0.00  0.00    +0.075 A 
ATOM     30  C   LIG    1       24.745 -22.923   7.129  0.00  0.00    +0.021 A 
ATOM     31  C   LIG    1       24.329 -21.669   7.642  0.00  0.00    +0.012 A 
ATOM     32  C   LIG    1       25.264 -20.700   8.001  0.00  0.00    +0.001 A 
ATOM     33  C   LIG    1       26.616 -20.971   7.850  0.00  0.00    +0.002 A 
ATOM     34  C   LIG    1       23.889 -23.963   6.747  0.00  0.00    +0.050 A 
ATOM     35  C   LIG    1       22.396 -23.842   6.840  0.00  0.00    +0.066 C 
ATOM     36  C   LIG    1       27.024 -22.208   7.340  0.00  0.00    +0.028 A 
ATOM     37  N   LIG    1       24.341 -25.143   6.274  0.00  0.00    -0.235 NA
ENDBRANCH  26  27
ENDBRANCH   4  26
TORSDOF 6
ENDMDL
MODEL 4
REMARK VINA RESULT:      -6.3      3.829      7.267
REMARK  Name = *****
REMARK                            x       y       z     vdW  Elec       q    Type
REMARK                         _______ _______ _______ _____ _____    ______ ____
ROOT
ATOM      1  N   LIG    1       25.344 -32.402   8.542  0.00  0.00    -0.295 N 
ATOM      2  C   LIG    1       25.755 -31.333   9.297  0.00  0.00    +0.154 A 
ATOM      3  C   LIG    1       25.976 -31.191  10.694  0.00  0.00    +0.283 C 
ATOM      4  N   LIG    1       26.295 -29.886  11.068  0.00  0.00    -0.252 N 
ATOM      5  C   LIG    1       26.364 -28.783  10.202  0.00  0.00    +0.334 C 
ATOM      6  N   LIG    1       26.225 -29.037   8.835  0.00  0.00    -0.280 N 
ATOM      7  C   LIG    1       26.334 -27.949   7.880  0.00  0.00    +0.155 C 
ATOM      8  O   LIG    1       26.551 -27.641  10.635  0.00  0.00    -0.246 OA
ATOM      9  O   LIG    1       25.888 -32.124  11.487  0.00  0.00    -0.265 OA
ATOM     10  C   LIG    1       25.880 -30.303   8.417  0.00  0.00    +0.170 A 
ATOM     11  N   LIG    1       25.572 -30.683   7.146  0.00  0.00    -0.196 NA
ATOM     12  C   LIG    1       25.240 -31.959   7.231  0.00  0.00    +0.202 A 
ENDROOT
BRANCH  12  13
ATOM     13  N   LIG    1       24.740 -32.755   6.235  0.00  0.00    -0.299 N 
ATOM     14  C   LIG    1       25.420 -32.643   4.925  0.00  0.00    +0.126 C 
ATOM     15  C   LIG    1       25.003 -33.824   4.016  0.00  0.00    +0.068 C 
ATOM     16  C   LIG    1       23.483 -33.804   3.819  0.00  0.00    +0.021 C 
ATOM     17  C   LIG    1       22.779 -33.818   5.175  0.00  0.00    +0.020 C 
ATOM     18  C   LIG    1       23.270 -32.687   6.086  0.00  0.00    +0.108 C 
BRANCH  15  19
ATOM     19  N   LIG    1       25.679 -33.793   2.713  0.00  0.00    -0.326 NA
ATOM     20  H   LIG    1       26.635 -34.135   2.819  0.00  0.00    +0.118 HD
ATOM     21  H   LIG    1       25.761 -32.825   2.402  0.00  0.00    +0.118 HD
ENDBRANCH  15  19
ENDBRANCH  12  13
BRANCH   1  22
ATOM     22  C   LIG    1       24.938 -33.696   9.064  0.00  0.00    +0.214 C 
BRANCH  22  25
ATOM     23  C   LIG    1       20.892 -33.579   9.889  0.00  0.00    +0.106 C 
ATOM     24  C   LIG    1       22.334 -33.682   9.673  0.00  0.00    -0.104 C 
ATOM     25  C   LIG    1       23.519 -33.718   9.434  0.00  0.00    -0.081 C 
ENDBRANCH  22  25
ENDBRANCH   1  22
BRANCH   4  26
ATOM     26  C   LIG    1       26.373 -29.618  12.499  0.00  0.00    +0.206 C 
BRANCH  26  27
ATOM     27  C   LIG    1       25.232 -28.758  13.015  0.00  0.00    +0.150 A 
ATOM     28  N   LIG    1       23.993 -29.055  12.578  0.00  0.00    -0.230 NA
ATOM     29  C   LIG    1       22.980 -28.296  13.017  0.00  0.00    +0.075 A 
ATOM     30  C   LIG    1       23.160 -27.223  13.901  0.00  0.00    +0.021 A 
ATOM     31  C   LIG    1       22.040 -26.463  14.320  0.00  0.00    +0.012 A 
ATOM     32  C   LIG    1       20.760 -26.767  13.860  0.00  0.00    +0.001 A 
ATOM     33  C   LIG    1       20.586 -27.829  12.985  0.00  0.00    +0.002 A 
ATOM     34  C   LIG    1       24.483 -26.995  14.296  0.00  0.00    +0.050 A 
ATOM     35  C   LIG    1       24.854 -25.891  15.242  0.00  0.00    +0.066 C 
ATOM     36  C   LIG    1       21.693 -28.580  12.576  0.00  0.00    +0.028 A 
ATOM     37  N   LIG    1       25.515 -27.745  13.856  0.00  0.00    -0.235 NA
ENDBRANCH  26  27
ENDBRANCH   4  26
TORSDOF 6
ENDMDL
MODEL 5
REMARK VINA RESULT:      -6.2      4.702      8.609
REMARK  Name = *****
REMARK                            x       y       z     vdW  Elec       q    Type
REMARK                         _______ _______ _______ _____ _____    ______ ____
ROOT
ATOM      1  N   LIG    1       23.917 -31.089  10.884  0.00  0.00    -0.295 N 
ATOM      2  C   LIG    1       23.906 -30.422  12.083  0.00  0.00    +0.154 A 
ATOM      3  C   LIG    1       23.207 -30.669  13.296  0.00  0.00    +0.283 C 
ATOM      4  N   LIG    1       23.402 -29.672  14.252  0.00  0.00    -0.252 N 
ATOM      5  C   LIG    1       24.166 -28.508  14.073  0.00  0.00    +0.334 C 
ATOM      6  N   LIG    1       24.892 -28.399  12.884  0.00  0.00    -0.280 N 
ATOM      7  C   LIG    1       25.740 -27.244  12.655  0.00  0.00    +0.155 C 
ATOM      8  O   LIG    1       24.200 -27.627  14.938  0.00  0.00    -0.246 OA
ATOM      9  O   LIG    1       22.499 -31.656  13.476  0.00  0.00    -0.265 OA
ATOM     10  C   LIG    1       24.710 -29.341  11.896  0.00  0.00    +0.170 A 
ATOM     11  N   LIG    1       25.229 -29.307  10.637  0.00  0.00    -0.196 NA
ATOM     12  C   LIG    1       24.736 -30.370  10.025  0.00  0.00    +0.202 A 
ENDROOT
BRANCH  12  13
ATOM     13  N   LIG    1       24.873 -30.705   8.705  0.00  0.00    -0.299 N 
ATOM     14  C   LIG    1       26.205 -31.217   8.309  0.00  0.00    +0.126 C 
ATOM     15  C   LIG    1       26.117 -31.880   6.913  0.00  0.00    +0.068 C 
ATOM     16  C   LIG    1       25.628 -30.850   5.890  0.00  0.00    +0.021 C 
ATOM     17  C   LIG    1       24.301 -30.246   6.346  0.00  0.00    +0.020 C 
ATOM     18  C   LIG    1       24.392 -29.670   7.764  0.00  0.00    +0.108 C 
BRANCH  15  19
ATOM     19  N   LIG    1       27.402 -32.446   6.483  0.00  0.00    -0.326 NA
ATOM     20  H   LIG    1       27.498 -33.391   6.857  0.00  0.00    +0.118 HD
ATOM     21  H   LIG    1       28.161 -31.903   6.894  0.00  0.00    +0.118 HD
ENDBRANCH  15  19
ENDBRANCH  12  13
BRANCH   1  22
ATOM     22  C   LIG    1       23.088 -32.235  10.550  0.00  0.00    +0.214 C 
BRANCH  22  25
ATOM     23  C   LIG    1       19.096 -31.210  10.261  0.00  0.00    +0.106 C 
ATOM     24  C   LIG    1       20.516 -31.558  10.266  0.00  0.00    -0.104 C 
ATOM     25  C   LIG    1       21.686 -31.858  10.348  0.00  0.00    -0.081 C 
ENDBRANCH  22  25
ENDBRANCH   1  22
BRANCH   4  26
ATOM     26  C   LIG    1       22.591 -29.761  15.461  0.00  0.00    +0.206 C 
BRANCH  26  27
ATOM     27  C   LIG    1       21.134 -29.392  15.237  0.00  0.00    +0.150 A 
ATOM     28  N   LIG    1       20.873 -28.131  14.844  0.00  0.00    -0.230 NA
ATOM     29  C   LIG    1       19.592 -27.790  14.655  0.00  0.00    +0.075 A 
ATOM     30  C   LIG    1       18.530 -28.685  14.846  0.00  0.00    +0.021 A 
ATOM     31  C   LIG    1       17.198 -28.253  14.628  0.00  0.00    +0.012 A 
ATOM     32  C   LIG    1       16.931 -26.944  14.229  0.00  0.00    +0.001 A 
ATOM     33  C   LIG    1       17.984 -26.061  14.042  0.00  0.00    +0.002 A 
ATOM     34  C   LIG    1       18.904 -29.972  15.253  0.00  0.00    +0.050 A 
ATOM     35  C   LIG    1       17.896 -31.055  15.499  0.00  0.00    +0.066 C 
ATOM     36  C   LIG    1       19.298 -26.492  14.255  0.00  0.00    +0.028 A 
ATOM     37  N   LIG    1       20.190 -30.327  15.457  0.00  0.00    -0.235 NA
ENDBRANCH  26  27
ENDBRANCH   4  26
TORSDOF 6
ENDMDL
MODEL 6
REMARK VINA RESULT:      -6.1      0.519      1.746
REMARK  Name = *****
REMARK                            x       y       z     vdW  Elec       q    Type
REMARK                         _______ _______ _______ _____ _____    ______ ____
ROOT
ATOM      1  N   LIG    1       25.463 -29.310   9.899  0.00  0.00    -0.295 N 
ATOM      2  C   LIG    1       25.486 -29.067   8.549  0.00  0.00    +0.154 A 
ATOM      3  C   LIG    1       26.098 -28.037   7.784  0.00  0.00    +0.283 C 
ATOM      4  N   LIG    1       25.783 -28.102   6.426  0.00  0.00    -0.252 N 
ATOM      5  C   LIG    1       24.925 -29.042   5.833  0.00  0.00    +0.334 C 
ATOM      6  N   LIG    1       24.446 -30.072   6.647  0.00  0.00    -0.280 N 
ATOM      7  C   LIG    1       23.594 -31.103   6.086  0.00  0.00    +0.155 C 
ATOM      8  O   LIG    1       24.619 -28.962   4.639  0.00  0.00    -0.246 OA
ATOM      9  O   LIG    1       26.823 -27.176   8.274  0.00  0.00    -0.265 OA
ATOM     10  C   LIG    1       24.705 -30.036   7.999  0.00  0.00    +0.170 A 
ATOM     11  N   LIG    1       24.201 -30.877   8.945  0.00  0.00    -0.196 NA
ATOM     12  C   LIG    1       24.661 -30.425  10.099  0.00  0.00    +0.202 A 
ENDROOT
BRANCH  12  13
ATOM     13  N   LIG    1       24.335 -30.867  11.352  0.00  0.00    -0.299 N 
ATOM     14  C   LIG    1       25.132 -32.010  11.855  0.00  0.00    +0.126 C 
ATOM     15  C   LIG    1       24.913 -32.171  13.378  0.00  0.00    +0.068 C 
ATOM     16  C   LIG    1       23.425 -32.409  13.657  0.00  0.00    +0.021 C 
ATOM     17  C   LIG    1       22.591 -31.281  13.052  0.00  0.00    +0.020 C 
ATOM     18  C   LIG    1       22.887 -31.088  11.560  0.00  0.00    +0.108 C 
BRANCH  15  19
ATOM     19  N   LIG    1       25.712 -33.265  13.945  0.00  0.00    -0.326 NA
ATOM     20  H   LIG    1       25.126 -33.827  14.564  0.00  0.00    +0.118 HD
ATOM     21  H   LIG    1       26.446 -32.872  14.534  0.00  0.00    +0.118 HD
ENDBRANCH  15  19
ENDBRANCH  12  13
BRANCH   1  22
ATOM     22  C   LIG    1       26.039 -28.451  10.920  0.00  0.00    +0.214 C 
BRANCH  22  25
ATOM     23  C   LIG    1       29.740 -29.588  12.362  0.00  0.00    +0.106 C 
ATOM     24  C   LIG    1       28.435 -29.262  11.790  0.00  0.00    -0.104 C 
ATOM     25  C   LIG    1       27.351 -28.932  11.365  0.00  0.00    -0.081 C 
ENDBRANCH  22  25
ENDBRANCH   1  22
BRANCH   4  26
ATOM     26  C   LIG    1       26.232 -26.989   5.599  0.00  0.00    +0.206 C 
BRANCH  26  27
ATOM     27  C   LIG    1       25.742 -25.637   6.091  0.00  0.00    +0.150 A 
ATOM     28  N   LIG    1       24.410 -25.440   6.120  0.00  0.00    -0.230 NA
ATOM     29  C   LIG    1       23.966 -24.248   6.541  0.00  0.00    +0.075 A 
ATOM     30  C   LIG    1       24.824 -23.216   6.948  0.00  0.00    +0.021 A 
ATOM     31  C   LIG    1       24.282 -21.980   7.379  0.00  0.00    +0.012 A 
ATOM     32  C   LIG    1       22.903 -21.777   7.401  0.00  0.00    +0.001 A 
ATOM     33  C   LIG    1       22.057 -22.799   6.998  0.00  0.00    +0.002 A 
ATOM     34  C   LIG    1       26.190 -23.519   6.881  0.00  0.00    +0.050 A 
ATOM     35  C   LIG    1       27.246 -22.532   7.282  0.00  0.00    +0.066 C 
ATOM     36  C   LIG    1       22.596 -24.019   6.575  0.00  0.00    +0.028 A 
ATOM     37  N   LIG    1       26.652 -24.712   6.451  0.00  0.00    -0.235 NA
ENDBRANCH  26  27
ENDBRANCH   4  26
TORSDOF 6
ENDMDL
MODEL 7
REMARK VINA RESULT:      -5.9      3.602      6.915
REMARK  Name = *****
REMARK                            x       y       z     vdW  Elec       q    Type
REMARK                         _______ _______ _______ _____ _____    ______ ____
ROOT
ATOM      1  N   LIG    1       25.170 -30.844   8.945  0.00  0.00    -0.295 N 
ATOM      2  C   LIG    1       25.009 -30.883  10.306  0.00  0.00    +0.154 A 
ATOM      3  C   LIG    1       25.600 -30.121  11.351  0.00  0.00    +0.283 C 
ATOM      4  N   LIG    1       25.231 -30.559  12.623  0.00  0.00    -0.252 N 
ATOM      5  C   LIG    1       24.401 -31.657  12.900  0.00  0.00    +0.334 C 
ATOM      6  N   LIG    1       23.793 -32.285  11.810  0.00  0.00    -0.280 N 
ATOM      7  C   LIG    1       22.884 -33.396  12.028  0.00  0.00    +0.155 C 
ATOM      8  O   LIG    1       24.212 -32.039  14.059  0.00  0.00    -0.246 OA
ATOM      9  O   LIG    1       26.360 -29.178  11.149  0.00  0.00    -0.265 OA
ATOM     10  C   LIG    1       24.145 -31.909  10.533  0.00  0.00    +0.170 A 
ATOM     11  N   LIG    1       23.755 -32.508   9.373  0.00  0.00    -0.196 NA
ATOM     12  C   LIG    1       24.388 -31.859   8.412  0.00  0.00    +0.202 A 
ENDROOT
BRANCH  12  13
ATOM     13  N   LIG    1       24.412 -32.168   7.078  0.00  0.00    -0.299 N 
ATOM     14  C   LIG    1       23.310 -33.036   6.604  0.00  0.00    +0.126 C 
ATOM     15  C   LIG    1       23.253 -33.011   5.057  0.00  0.00    +0.068 C 
ATOM     16  C   LIG    1       24.589 -33.503   4.490  0.00  0.00    +0.021 C 
ATOM     17  C   LIG    1       25.738 -32.671   5.057  0.00  0.00    +0.020 C 
ATOM     18  C   LIG    1       25.723 -32.646   6.589  0.00  0.00    +0.108 C 
BRANCH  15  19
ATOM     19  N   LIG    1       22.151 -33.822   4.525  0.00  0.00    -0.326 NA
ATOM     20  H   LIG    1       21.690 -34.312   5.293  0.00  0.00    +0.118 HD
ATOM     21  H   LIG    1       22.533 -34.548   3.919  0.00  0.00    +0.118 HD
ENDBRANCH  15  19
ENDBRANCH  12  13
BRANCH   1  22
ATOM     22  C   LIG    1       26.116 -30.001   8.232  0.00  0.00    +0.214 C 
BRANCH  22  25
ATOM     23  C   LIG    1       24.400 -26.969   6.012  0.00  0.00    +0.106 C 
ATOM     24  C   LIG    1       24.948 -28.016   6.872  0.00  0.00    -0.104 C 
ATOM     25  C   LIG    1       25.448 -28.904   7.524  0.00  0.00    -0.081 C 
ENDBRANCH  22  25
ENDBRANCH   1  22
BRANCH   4  26
ATOM     26  C   LIG    1       25.922 -29.941  13.750  0.00  0.00    +0.206 C 
BRANCH  26  27
ATOM     27  C   LIG    1       25.597 -28.466  13.920  0.00  0.00    +0.150 A 
ATOM     28  N   LIG    1       26.602 -27.657  14.306  0.00  0.00    -0.230 NA
ATOM     29  C   LIG    1       26.326 -26.356  14.470  0.00  0.00    +0.075 A 
ATOM     30  C   LIG    1       25.050 -25.816  14.255  0.00  0.00    +0.021 A 
ATOM     31  C   LIG    1       24.832 -24.430  14.450  0.00  0.00    +0.012 A 
ATOM     32  C   LIG    1       25.872 -23.596  14.858  0.00  0.00    +0.001 A 
ATOM     33  C   LIG    1       27.133 -24.134  15.070  0.00  0.00    +0.002 A 
ATOM     34  C   LIG    1       24.075 -26.738  13.856  0.00  0.00    +0.050 A 
ATOM     35  C   LIG    1       22.658 -26.330  13.578  0.00  0.00    +0.066 C 
ATOM     36  C   LIG    1       27.345 -25.503  14.873  0.00  0.00    +0.028 A 
ATOM     37  N   LIG    1       24.335 -28.052  13.695  0.00  0.00    -0.235 NA
ENDBRANCH  26  27
ENDBRANCH   4  26
TORSDOF 6
ENDMDL
MODEL 8
REMARK VINA RESULT:      -5.7      4.160      7.824
REMARK  Name = *****
REMARK                            x       y       z     vdW  Elec       q    Type
REMARK                         _______ _______ _______ _____ _____    ______ ____
ROOT
ATOM      1  N   LIG    1       25.046 -32.550   9.039  0.00  0.00    -0.295 N 
ATOM      2  C   LIG    1       25.310 -31.575   9.967  0.00  0.00    +0.154 A 
ATOM      3  C   LIG    1       25.132 -31.539  11.377  0.00  0.00    +0.283 C 
ATOM      4  N   LIG    1       25.436 -30.296  11.935  0.00  0.00    -0.252 N 
ATOM      5  C   LIG    1       25.839 -29.157  11.219  0.00  0.00    +0.334 C 
ATOM      6  N   LIG    1       26.076 -29.315   9.851  0.00  0.00    -0.280 N 
ATOM      7  C   LIG    1       26.541 -28.190   9.061  0.00  0.00    +0.155 C 
ATOM      8  O   LIG    1       25.986 -28.068  11.783  0.00  0.00    -0.246 OA
ATOM      9  O   LIG    1       24.746 -32.503  12.032  0.00  0.00    -0.265 OA
ATOM     10  C   LIG    1       25.764 -30.513   9.248  0.00  0.00    +0.170 A 
ATOM     11  N   LIG    1       25.802 -30.785   7.913  0.00  0.00    -0.196 NA
ATOM     12  C   LIG    1       25.358 -32.023   7.794  0.00  0.00    +0.202 A 
ENDROOT
BRANCH  12  13
ATOM     13  N   LIG    1       25.100 -32.704   6.634  0.00  0.00    -0.299 N 
ATOM     14  C   LIG    1       26.150 -32.614   5.593  0.00  0.00    +0.126 C 
ATOM     15  C   LIG    1       25.906 -33.691   4.509  0.00  0.00    +0.068 C 
ATOM     16  C   LIG    1       24.525 -33.476   3.879  0.00  0.00    +0.021 C 
ATOM     17  C   LIG    1       23.449 -33.469   4.964  0.00  0.00    +0.020 C 
ATOM     18  C   LIG    1       23.757 -32.451   6.068  0.00  0.00    +0.108 C 
BRANCH  15  19
ATOM     19  N   LIG    1       26.941 -33.681   3.468  0.00  0.00    -0.326 NA
ATOM     20  H   LIG    1       26.567 -33.249   2.622  0.00  0.00    +0.118 HD
ATOM     21  H   LIG    1       27.169 -34.642   3.214  0.00  0.00    +0.118 HD
ENDBRANCH  15  19
ENDBRANCH  12  13
BRANCH   1  22
ATOM     22  C   LIG    1       24.404 -33.825   9.315  0.00  0.00    +0.214 C 
BRANCH  22  25
ATOM     23  C   LIG    1       20.366 -33.142   9.856  0.00  0.00    +0.106 C 
ATOM     24  C   LIG    1       21.774 -33.479   9.656  0.00  0.00    -0.104 C 
ATOM     25  C   LIG    1       22.957 -33.682   9.497  0.00  0.00    -0.081 C 
ENDBRANCH  22  25
ENDBRANCH   1  22
BRANCH   4  26
ATOM     26  C   LIG    1       25.122 -30.123  13.348  0.00  0.00    +0.206 C 
BRANCH  26  27
ATOM     27  C   LIG    1       23.665 -29.775  13.604  0.00  0.00    +0.150 A 
ATOM     28  N   LIG    1       23.257 -28.542  13.250  0.00  0.00    -0.230 NA
ATOM     29  C   LIG    1       21.977 -28.220  13.481  0.00  0.00    +0.075 A 
ATOM     30  C   LIG    1       21.063 -29.107  14.067  0.00  0.00    +0.021 A 
ATOM     31  C   LIG    1       19.724 -28.695  14.282  0.00  0.00    +0.012 A 
ATOM     32  C   LIG    1       19.306 -27.415  13.922  0.00  0.00    +0.001 A 
ATOM     33  C   LIG    1       20.214 -26.540  13.344  0.00  0.00    +0.002 A 
ATOM     34  C   LIG    1       21.584 -30.363  14.398  0.00  0.00    +0.050 A 
ATOM     35  C   LIG    1       20.743 -31.434  15.028  0.00  0.00    +0.066 C 
ATOM     36  C   LIG    1       21.534 -26.951  13.129  0.00  0.00    +0.028 A 
ATOM     37  N   LIG    1       22.872 -30.699  14.180  0.00  0.00    -0.235 NA
ENDBRANCH  26  27
ENDBRANCH   4  26
TORSDOF 6
ENDMDL
MODEL 9
REMARK VINA RESULT:      -5.4      3.269      6.960
REMARK  Name = *****
REMARK                            x       y       z     vdW  Elec       q    Type
REMARK                         _______ _______ _______ _____ _____    ______ ____
ROOT
ATOM      1  N   LIG    1       25.494 -31.002   7.436  0.00  0.00    -0.295 N 
ATOM      2  C   LIG    1       25.770 -30.687   8.742  0.00  0.00    +0.154 A 
ATOM      3  C   LIG    1       26.375 -29.543   9.330  0.00  0.00    +0.283 C 
ATOM      4  N   LIG    1       26.566 -29.673  10.707  0.00  0.00    -0.252 N 
ATOM      5  C   LIG    1       26.248 -30.806  11.471  0.00  0.00    +0.334 C 
ATOM      6  N   LIG    1       25.571 -31.843  10.823  0.00  0.00    -0.280 N 
ATOM      7  C   LIG    1       25.170 -33.023  11.566  0.00  0.00    +0.155 C 
ATOM      8  O   LIG    1       26.547 -30.874  12.668  0.00  0.00    -0.246 OA
ATOM      9  O   LIG    1       26.701 -28.549   8.689  0.00  0.00    -0.265 OA
ATOM     10  C   LIG    1       25.385 -31.776   9.460  0.00  0.00    +0.170 A 
ATOM     11  N   LIG    1       24.874 -32.755   8.661  0.00  0.00    -0.196 NA
ATOM     12  C   LIG    1       24.950 -32.279   7.431  0.00  0.00    +0.202 A 
ENDROOT
BRANCH  12  13
ATOM     13  N   LIG    1       24.667 -32.942   6.267  0.00  0.00    -0.299 N 
ATOM     14  C   LIG    1       25.651 -32.764   5.174  0.00  0.00    +0.126 C 
ATOM     15  C   LIG    1       25.408 -33.824   4.073  0.00  0.00    +0.068 C 
ATOM     16  C   LIG    1       23.985 -33.672   3.525  0.00  0.00    +0.021 C 
ATOM     17  C   LIG    1       22.972 -33.755   4.666  0.00  0.00    +0.020 C 
ATOM     18  C   LIG    1       23.283 -32.752   5.781  0.00  0.00    +0.108 C 
BRANCH  15  19
ATOM     19  N   LIG    1       26.382 -33.726   2.979  0.00  0.00    -0.326 NA
ATOM     20  H   LIG    1       25.979 -34.125   2.130  0.00  0.00    +0.118 HD
ATOM     21  H   LIG    1       27.194 -34.302   3.201  0.00  0.00    +0.118 HD
ENDBRANCH  15  19
ENDBRANCH  12  13
BRANCH   1  22
ATOM     22  C   LIG    1       25.864 -30.203   6.279  0.00  0.00    +0.214 C 
BRANCH  22  25
ATOM     23  C   LIG    1       24.075 -26.485   6.094  0.00  0.00    +0.106 C 
ATOM     24  C   LIG    1       24.620 -27.838   6.184  0.00  0.00    -0.104 C 
ATOM     25  C   LIG    1       25.141 -28.929   6.239  0.00  0.00    -0.081 C 
ENDBRANCH  22  25
ENDBRANCH   1  22
BRANCH   4  26
ATOM     26  C   LIG    1       27.330 -28.617  11.360  0.00  0.00    +0.206 C 
BRANCH  26  27
ATOM     27  C   LIG    1       26.501 -27.774  12.315  0.00  0.00    +0.150 A 
ATOM     28  N   LIG    1       25.185 -28.053  12.395  0.00  0.00    -0.230 NA
ATOM     29  C   LIG    1       24.441 -27.309  13.225  0.00  0.00    +0.075 A 
ATOM     30  C   LIG    1       24.975 -26.271  14.002  0.00  0.00    +0.021 A 
ATOM     31  C   LIG    1       24.125 -25.526  14.857  0.00  0.00    +0.012 A 
ATOM     32  C   LIG    1       22.763 -25.810  14.931  0.00  0.00    +0.001 A 
ATOM     33  C   LIG    1       22.238 -26.838  14.160  0.00  0.00    +0.002 A 
ATOM     34  C   LIG    1       26.350 -26.061  13.849  0.00  0.00    +0.050 A 
ATOM     35  C   LIG    1       27.084 -24.995  14.608  0.00  0.00    +0.066 C 
ATOM     36  C   LIG    1       23.080 -27.574  13.320  0.00  0.00    +0.028 A 
ATOM     37  N   LIG    1       27.111 -26.796  13.010  0.00  0.00    -0.235 NA
ENDBRANCH  26  27
ENDBRANCH   4  26
TORSDOF 6
ENDMDL
