MODEL 1
REMARK VINA RESULT:      -4.2      0.000      0.000
REMARK  Name = *****
REMARK                            x       y       z     vdW  Elec       q    Type
REMARK                         _______ _______ _______ _____ _____    ______ ____
ROOT
ATOM      1  O   LIG    1       25.863 -16.827   2.890  0.00  0.00    -0.248 OA
ATOM      2  C   LIG    1       25.944 -15.714   3.406  0.00  0.00    +0.339 C 
ATOM      3  C   LIG    1       27.229 -14.881   3.344  0.00  0.00    +0.254 C 
ATOM      4  C   LIG    1       26.988 -13.370   3.390  0.00  0.00    +0.186 C 
ATOM      5  C   LIG    1       25.981 -13.041   4.490  0.00  0.00    +0.189 C 
ATOM      6  C   LIG    1       24.682 -13.818   4.261  0.00  0.00    +0.233 C 
ATOM      7  O   LIG    1       24.928 -15.239   4.169  0.00  0.00    -0.455 OA
ENDROOT
BRANCH   3   8
ATOM      8  O   LIG    1       28.121 -15.257   4.397  0.00  0.00    -0.378 OA
ATOM      9  H   LIG    1       28.141 -14.506   5.030  0.00  0.00    +0.211 HD
ENDBRANCH   3   8
BRANCH   4  10
ATOM     10  O   LIG    1       26.549 -12.850   2.131  0.00  0.00    -0.386 OA
ATOM     11  H   LIG    1       26.589 -11.876   2.195  0.00  0.00    +0.210 HD
ENDBRANCH   4  10
BRANCH   5  12
ATOM     12  O   LIG    1       26.553 -13.428   5.753  0.00  0.00    -0.385 OA
ATOM     13  H   LIG    1       26.952 -14.311   5.630  0.00  0.00    +0.210 HD
ENDBRANCH   5  12
BRANCH   6  14
ATOM     14  C   LIG    1       23.852 -13.384   3.042  0.00  0.00    +0.203 C 
BRANCH  14  15
ATOM     15  O   LIG    1       23.753 -11.972   2.935  0.00  0.00    -0.391 OA
ATOM     16  H   LIG    1       24.079 -11.615   3.786  0.00  0.00    +0.210 HD
ENDBRANCH  14  15
ENDBRANCH   6  14
TORSDOF 5
ENDMDL
MODEL 2
REMARK VINA RESULT:      -4.1      5.549      6.914
REMARK  Name = *****
REMARK                            x       y       z     vdW  Elec       q    Type
REMARK                         _______ _______ _______ _____ _____    ______ ____
ROOT
ATOM      1  O   LIG    1       26.282 -21.030   6.243  0.00  0.00    -0.248 OA
ATOM      2  C   LIG    1       25.387 -20.511   5.580  0.00  0.00    +0.339 C 
ATOM      3  C   LIG    1       25.550 -20.220   4.083  0.00  0.00    +0.254 C 
ATOM      4  C   LIG    1       24.232 -20.241   3.304  0.00  0.00    +0.186 C 
ATOM      5  C   LIG    1       23.167 -19.457   4.068  0.00  0.00    +0.189 C 
ATOM      6  C   LIG    1       23.004 -20.033   5.477  0.00  0.00    +0.233 C 
ATOM      7  O   LIG    1       24.263 -20.054   6.187  0.00  0.00    -0.455 OA
ENDROOT
BRANCH   3   8
ATOM      8  O   LIG    1       26.203 -18.963   3.886  0.00  0.00    -0.378 OA
ATOM      9  H   LIG    1       26.774 -18.817   4.671  0.00  0.00    +0.211 HD
ENDBRANCH   3   8
BRANCH   4  10
ATOM     10  O   LIG    1       23.782 -21.572   3.031  0.00  0.00    -0.386 OA
ATOM     11  H   LIG    1       22.844 -21.617   3.300  0.00  0.00    +0.210 HD
ENDBRANCH   4  10
BRANCH   5  12
ATOM     12  O   LIG    1       23.596 -18.087   4.159  0.00  0.00    -0.385 OA
ATOM     13  H   LIG    1       23.591 -17.723   3.253  0.00  0.00    +0.210 HD
ENDBRANCH   5  12
BRANCH   6  14
ATOM     14  C   LIG    1       22.373 -21.433   5.558  0.00  0.00    +0.203 C 
BRANCH  14  15
ATOM     15  O   LIG    1       21.263 -21.572   4.682  0.00  0.00    -0.391 OA
ATOM     16  H   LIG    1       21.123 -22.535   4.578  0.00  0.00    +0.210 HD
ENDBRANCH  14  15
ENDBRANCH   6  14
TORSDOF 5
ENDMDL
MODEL 3
REMARK VINA RESULT:      -4.1      1.371      3.225
REMARK  Name = *****
REMARK                            x       y       z     vdW  Elec       q    Type
REMARK                         _______ _______ _______ _____ _____    ______ ____
ROOT
ATOM      1  O   LIG    1       25.748 -16.706   3.316  0.00  0.00    -0.248 OA
ATOM      2  C   LIG    1       25.786 -15.478   3.305  0.00  0.00    +0.339 C 
ATOM      3  C   LIG    1       24.851 -14.628   4.175  0.00  0.00    +0.254 C 
ATOM      4  C   LIG    1       25.438 -13.271   4.569  0.00  0.00    +0.186 C 
ATOM      5  C   LIG    1       26.069 -12.606   3.346  0.00  0.00    +0.189 C 
ATOM      6  C   LIG    1       27.128 -13.530   2.737  0.00  0.00    +0.233 C 
ATOM      7  O   LIG    1       26.575 -14.825   2.415  0.00  0.00    -0.455 OA
ENDROOT
BRANCH   3   8
ATOM      8  O   LIG    1       23.595 -14.435   3.518  0.00  0.00    -0.378 OA
ATOM      9  H   LIG    1       23.581 -15.049   2.752  0.00  0.00    +0.211 HD
ENDBRANCH   3   8
BRANCH   4  10
ATOM     10  O   LIG    1       26.388 -13.377   5.633  0.00  0.00    -0.386 OA
ATOM     11  H   LIG    1       26.126 -14.146   6.175  0.00  0.00    +0.210 HD
ENDBRANCH   4  10
BRANCH   5  12
ATOM     12  O   LIG    1       25.031 -12.366   2.379  0.00  0.00    -0.385 OA
ATOM     13  H   LIG    1       24.185 -12.342   2.865  0.00  0.00    +0.210 HD
ENDBRANCH   5  12
BRANCH   6  14
ATOM     14  C   LIG    1       28.398 -13.735   3.578  0.00  0.00    +0.203 C 
BRANCH  14  15
ATOM     15  O   LIG    1       28.883 -12.517   4.124  0.00  0.00    -0.391 OA
ATOM     16  H   LIG    1       29.653 -12.265   3.577  0.00  0.00    +0.210 HD
ENDBRANCH  14  15
ENDBRANCH   6  14
TORSDOF 5
ENDMDL
MODEL 4
REMARK VINA RESULT:      -4.0      1.506      2.755
REMARK  Name = *****
REMARK                            x       y       z     vdW  Elec       q    Type
REMARK                         _______ _______ _______ _____ _____    ______ ____
ROOT
ATOM      1  O   LIG    1       27.130 -13.623   6.295  0.00  0.00    -0.248 OA
ATOM      2  C   LIG    1       26.772 -13.559   5.121  0.00  0.00    +0.339 C 
ATOM      3  C   LIG    1       27.708 -13.931   3.965  0.00  0.00    +0.254 C 
ATOM      4  C   LIG    1       26.978 -14.450   2.723  0.00  0.00    +0.186 C 
ATOM      5  C   LIG    1       25.786 -13.548   2.410  0.00  0.00    +0.189 C 
ATOM      6  C   LIG    1       24.857 -13.467   3.624  0.00  0.00    +0.233 C 
ATOM      7  O   LIG    1       25.567 -13.024   4.802  0.00  0.00    -0.455 OA
ENDROOT
BRANCH   3   8
ATOM      8  O   LIG    1       28.530 -12.817   3.608  0.00  0.00    -0.378 OA
ATOM      9  H   LIG    1       29.446 -13.044   3.880  0.00  0.00    +0.211 HD
ENDBRANCH   3   8
BRANCH   4  10
ATOM     10  O   LIG    1       26.559 -15.811   2.867  0.00  0.00    -0.386 OA
ATOM     11  H   LIG    1       27.023 -16.327   2.181  0.00  0.00    +0.210 HD
ENDBRANCH   4  10
BRANCH   5  12
ATOM     12  O   LIG    1       26.287 -12.234   2.102  0.00  0.00    -0.385 OA
ATOM     13  H   LIG    1       25.939 -11.627   2.784  0.00  0.00    +0.210 HD
ENDBRANCH   5  12
BRANCH   6  14
ATOM     14  C   LIG    1       24.094 -14.757   3.968  0.00  0.00    +0.203 C 
BRANCH  14  15
ATOM     15  O   LIG    1       23.206 -14.579   5.062  0.00  0.00    -0.391 OA
ATOM     16  H   LIG    1       22.630 -13.826   4.820  0.00  0.00    +0.210 HD
ENDBRANCH  14  15
ENDBRANCH   6  14
TORSDOF 5
ENDMDL
MODEL 5
REMARK VINA RESULT:      -3.9      1.451      3.627
REMARK  Name = *****
REMARK                            x       y       z     vdW  Elec       q    Type
REMARK                         _______ _______ _______ _____ _____    ______ ____
ROOT
ATOM      1  O   LIG    1       24.672 -12.153   5.574  0.00  0.00    -0.248 OA
ATOM      2  C   LIG    1       25.243 -12.942   4.825  0.00  0.00    +0.339 C 
ATOM      3  C   LIG    1       24.748 -13.212   3.399  0.00  0.00    +0.254 C 
ATOM      4  C   LIG    1       25.858 -13.623   2.428  0.00  0.00    +0.186 C 
ATOM      5  C   LIG    1       26.751 -14.676   3.080  0.00  0.00    +0.189 C 
ATOM      6  C   LIG    1       27.317 -14.139   4.398  0.00  0.00    +0.233 C 
ATOM      7  O   LIG    1       26.263 -13.708   5.287  0.00  0.00    -0.455 OA
ENDROOT
BRANCH   3   8
ATOM      8  O   LIG    1       23.723 -14.209   3.406  0.00  0.00    -0.378 OA
ATOM      9  H   LIG    1       23.805 -14.691   4.257  0.00  0.00    +0.211 HD
ENDBRANCH   3   8
BRANCH   4  10
ATOM     10  O   LIG    1       26.634 -12.505   1.984  0.00  0.00    -0.386 OA
ATOM     11  H   LIG    1       26.016 -11.760   1.858  0.00  0.00    +0.210 HD
ENDBRANCH   4  10
BRANCH   5  12
ATOM     12  O   LIG    1       25.951 -15.843   3.345  0.00  0.00    -0.385 OA
ATOM     13  H   LIG    1       26.129 -16.482   2.628  0.00  0.00    +0.210 HD
ENDBRANCH   5  12
BRANCH   6  14
ATOM     14  C   LIG    1       28.345 -13.003   4.269  0.00  0.00    +0.203 C 
BRANCH  14  15
ATOM     15  O   LIG    1       29.329 -13.279   3.282  0.00  0.00    -0.391 OA
ATOM     16  H   LIG    1       28.913 -13.066   2.422  0.00  0.00    +0.210 HD
ENDBRANCH  14  15
ENDBRANCH   6  14
TORSDOF 5
ENDMDL
MODEL 6
REMARK VINA RESULT:      -3.5      5.028      7.151
REMARK  Name = *****
REMARK                            x       y       z     vdW  Elec       q    Type
REMARK                         _______ _______ _______ _____ _____    ______ ____
ROOT
ATOM      1  O   LIG    1       24.203 -21.182   7.062  0.00  0.00    -0.248 OA
ATOM      2  C   LIG    1       24.104 -20.939   5.862  0.00  0.00    +0.339 C 
ATOM      3  C   LIG    1       22.789 -20.458   5.236  0.00  0.00    +0.254 C 
ATOM      4  C   LIG    1       22.980 -19.584   3.993  0.00  0.00    +0.186 C 
ATOM      5  C   LIG    1       24.016 -20.221   3.068  0.00  0.00    +0.189 C 
ATOM      6  C   LIG    1       25.331 -20.434   3.823  0.00  0.00    +0.233 C 
ATOM      7  O   LIG    1       25.131 -21.217   5.021  0.00  0.00    -0.455 OA
ENDROOT
BRANCH   3   8
ATOM      8  O   LIG    1       21.951 -21.572   4.915  0.00  0.00    -0.378 OA
ATOM      9  H   LIG    1       22.548 -22.306   4.652  0.00  0.00    +0.211 HD
ENDBRANCH   3   8
BRANCH   4  10
ATOM     10  O   LIG    1       23.354 -18.243   4.323  0.00  0.00    -0.386 OA
ATOM     11  H   LIG    1       23.171 -18.121   5.275  0.00  0.00    +0.210 HD
ENDBRANCH   4  10
BRANCH   5  12
ATOM     12  O   LIG    1       23.506 -21.494   2.631  0.00  0.00    -0.385 OA
ATOM     13  H   LIG    1       24.241 -21.963   2.191  0.00  0.00    +0.210 HD
ENDBRANCH   5  12
BRANCH   6  14
ATOM     14  C   LIG    1       26.100 -19.156   4.197  0.00  0.00    +0.203 C 
BRANCH  14  15
ATOM     15  O   LIG    1       26.055 -18.182   3.164  0.00  0.00    -0.391 OA
ATOM     16  H   LIG    1       26.503 -18.587   2.394  0.00  0.00    +0.210 HD
ENDBRANCH  14  15
ENDBRANCH   6  14
TORSDOF 5
ENDMDL
MODEL 7
REMARK VINA RESULT:      -3.5      1.383      2.710
REMARK  Name = *****
REMARK                            x       y       z     vdW  Elec       q    Type
REMARK                         _______ _______ _______ _____ _____    ______ ____
ROOT
ATOM      1  O   LIG    1       28.940 -12.901   3.126  0.00  0.00    -0.248 OA
ATOM      2  C   LIG    1       27.875 -13.505   3.226  0.00  0.00    +0.339 C 
ATOM      3  C   LIG    1       27.431 -14.156   4.541  0.00  0.00    +0.254 C 
ATOM      4  C   LIG    1       25.911 -14.238   4.707  0.00  0.00    +0.186 C 
ATOM      5  C   LIG    1       25.277 -14.746   3.413  0.00  0.00    +0.189 C 
ATOM      6  C   LIG    1       25.675 -13.840   2.245  0.00  0.00    +0.233 C 
ATOM      7  O   LIG    1       27.111 -13.730   2.128  0.00  0.00    -0.455 OA
ENDROOT
BRANCH   3   8
ATOM      8  O   LIG    1       27.998 -15.462   4.670  0.00  0.00    -0.378 OA
ATOM      9  H   LIG    1       27.734 -15.964   3.868  0.00  0.00    +0.211 HD
ENDBRANCH   3   8
BRANCH   4  10
ATOM     10  O   LIG    1       25.337 -12.985   5.093  0.00  0.00    -0.386 OA
ATOM     11  H   LIG    1       24.830 -12.655   4.326  0.00  0.00    +0.210 HD
ENDBRANCH   4  10
BRANCH   5  12
ATOM     12  O   LIG    1       25.760 -16.080   3.170  0.00  0.00    -0.385 OA
ATOM     13  H   LIG    1       26.598 -16.177   3.662  0.00  0.00    +0.210 HD
ENDBRANCH   5  12
BRANCH   6  14
ATOM     14  C   LIG    1       25.075 -12.425   2.263  0.00  0.00    +0.203 C 
BRANCH  14  15
ATOM     15  O   LIG    1       23.703 -12.429   2.633  0.00  0.00    -0.391 OA
ATOM     16  H   LIG    1       23.609 -13.134   3.305  0.00  0.00    +0.210 HD
ENDBRANCH  14  15
ENDBRANCH   6  14
TORSDOF 5
ENDMDL
MODEL 8
REMARK VINA RESULT:      -3.4      1.127      3.541
REMARK  Name = *****
REMARK                            x       y       z     vdW  Elec       q    Type
REMARK                         _______ _______ _______ _____ _____    ______ ____
ROOT
ATOM      1  O   LIG    1       23.536 -15.238   4.308  0.00  0.00    -0.248 OA
ATOM      2  C   LIG    1       24.568 -14.638   4.016  0.00  0.00    +0.339 C 
ATOM      3  C   LIG    1       24.859 -13.224   4.532  0.00  0.00    +0.254 C 
ATOM      4  C   LIG    1       26.352 -12.914   4.673  0.00  0.00    +0.186 C 
ATOM      5  C   LIG    1       27.098 -13.383   3.425  0.00  0.00    +0.189 C 
ATOM      6  C   LIG    1       26.845 -14.875   3.194  0.00  0.00    +0.233 C 
ATOM      7  O   LIG    1       25.432 -15.164   3.112  0.00  0.00    -0.455 OA
ENDROOT
BRANCH   3   8
ATOM      8  O   LIG    1       24.245 -12.247   3.687  0.00  0.00    -0.378 OA
ATOM      9  H   LIG    1       23.741 -12.742   3.005  0.00  0.00    +0.211 HD
ENDBRANCH   3   8
BRANCH   4  10
ATOM     10  O   LIG    1       26.920 -13.497   5.850  0.00  0.00    -0.386 OA
ATOM     11  H   LIG    1       27.887 -13.527   5.716  0.00  0.00    +0.210 HD
ENDBRANCH   4  10
BRANCH   5  12
ATOM     12  O   LIG    1       26.604 -12.635   2.299  0.00  0.00    -0.385 OA
ATOM     13  H   LIG    1       26.190 -11.823   2.651  0.00  0.00    +0.210 HD
ENDBRANCH   5  12
BRANCH   6  14
ATOM     14  C   LIG    1       27.481 -15.826   4.222  0.00  0.00    +0.203 C 
BRANCH  14  15
ATOM     15  O   LIG    1       27.581 -17.155   3.732  0.00  0.00    -0.391 OA
ATOM     16  H   LIG    1       27.115 -17.717   4.383  0.00  0.00    +0.210 HD
ENDBRANCH  14  15
ENDBRANCH   6  14
TORSDOF 5
ENDMDL
MODEL 9
REMARK VINA RESULT:      -3.1      1.373      2.790
REMARK  Name = *****
REMARK                            x       y       z     vdW  Elec       q    Type
REMARK                         _______ _______ _______ _____ _____    ______ ____
ROOT
ATOM      1  O   LIG    1       25.257 -11.735   1.812  0.00  0.00    -0.248 OA
ATOM      2  C   LIG    1       25.396 -12.768   2.462  0.00  0.00    +0.339 C 
ATOM      3  C   LIG    1       26.778 -13.294   2.868  0.00  0.00    +0.254 C 
ATOM      4  C   LIG    1       26.772 -14.110   4.163  0.00  0.00    +0.186 C 
ATOM      5  C   LIG    1       25.612 -15.105   4.141  0.00  0.00    +0.189 C 
ATOM      6  C   LIG    1       24.290 -14.362   3.929  0.00  0.00    +0.233 C 
ATOM      7  O   LIG    1       24.324 -13.555   2.731  0.00  0.00    -0.455 OA
ENDROOT
BRANCH   3   8
ATOM      8  O   LIG    1       27.347 -14.073   1.812  0.00  0.00    -0.378 OA
ATOM      9  H   LIG    1       26.773 -13.943   1.026  0.00  0.00    +0.211 HD
ENDBRANCH   3   8
BRANCH   4  10
ATOM     10  O   LIG    1       26.706 -13.283   5.328  0.00  0.00    -0.386 OA
ATOM     11  H   LIG    1       26.192 -12.489   5.086  0.00  0.00    +0.210 HD
ENDBRANCH   4  10
BRANCH   5  12
ATOM     12  O   LIG    1       25.825 -16.020   3.051  0.00  0.00    -0.385 OA
ATOM     13  H   LIG    1       25.019 -16.006   2.500  0.00  0.00    +0.210 HD
ENDBRANCH   5  12
BRANCH   6  14
ATOM     14  C   LIG    1       23.825 -13.481   5.100  0.00  0.00    +0.203 C 
BRANCH  14  15
ATOM     15  O   LIG    1       23.985 -12.097   4.827  0.00  0.00    -0.391 OA
ATOM     16  H   LIG    1       24.943 -11.916   4.913  0.00  0.00    +0.210 HD
ENDBRANCH  14  15
ENDBRANCH   6  14
TORSDOF 5
ENDMDL
