MODEL 1
REMARK VINA RESULT:      -1.4      0.000      0.000
REMARK  Name = *****
REMARK                            x       y       z     vdW  Elec       q    Type
REMARK                         _______ _______ _______ _____ _____    ______ ____
ROOT
ATOM      1  C   LIG    1       25.266 -18.893   3.802  0.00  0.00    +0.252 C 
ATOM      2  N   LIG    1       25.079 -17.503   3.894  0.00  0.00    -0.297 N 
ATOM      3  H   LIG    1       24.322 -17.148   4.469  0.00  0.00    +0.150 HD
ATOM      4  O   LIG    1       26.121 -19.324   3.028  0.00  0.00    -0.270 OA
ENDROOT
BRANCH   2   5
ATOM      5  CA  LIG    1       25.984 -16.605   3.073  0.00  0.00    +0.190 C 
ATOM      6  C   LIG    1       25.778 -15.085   2.901  0.00  0.00    +0.165 C 
ATOM      7  S   LIG    1       24.675 -14.211   4.014  0.00  0.00    -0.127 S 
ATOM      8  C   LIG    1       26.037 -13.460   5.027  0.00  0.00    +0.042 C 
ATOM      9  CA  LIG    1       27.394 -13.773   4.343  0.00  0.00    +0.201 C 
ATOM     10  C   LIG    1       25.947 -14.181   6.380  0.00  0.00    +0.025 C 
ATOM     11  C   LIG    1       25.696 -11.975   5.183  0.00  0.00    +0.025 C 
ATOM     12  N   LIG    1       27.156 -14.862   3.381  0.00  0.00    -0.271 N 
ATOM     13  C   LIG    1       27.320 -16.168   3.763  0.00  0.00    +0.240 C 
ATOM     14  O   LIG    1       28.157 -16.633   4.520  0.00  0.00    -0.273 OA
BRANCH   9  15
ATOM     15  C   LIG    1       28.095 -12.589   3.651  0.00  0.00    +0.327 C 
ATOM     16  O   LIG    1       29.182 -12.137   3.982  0.00  0.00    -0.249 OA
BRANCH  15  17
ATOM     17  OXT LIG    1       27.414 -12.092   2.591  0.00  0.00    -0.479 OA
ATOM     18  HXT LIG    1       26.993 -11.240   2.828  0.00  0.00    +0.295 HD
ENDBRANCH  15  17
ENDBRANCH   9  15
ENDBRANCH   2   5
BRANCH   1  20
ATOM     19  C   LIG    1       24.965 -20.723   5.589  0.00  0.00    +0.136 A 
ATOM     20  C   LIG    1       24.412 -19.854   4.615  0.00  0.00    +0.120 A 
ATOM     21  C   LIG    1       22.992 -19.863   4.447  0.00  0.00    +0.136 A 
ATOM     22  C   LIG    1       22.189 -20.734   5.208  0.00  0.00    +0.046 A 
ATOM     23  C   LIG    1       22.746 -21.571   6.157  0.00  0.00    +0.007 A 
ATOM     24  C   LIG    1       24.118 -21.548   6.359  0.00  0.00    +0.046 A 
BRANCH  19  26
ATOM     25  C   LIG    1       26.826 -20.460   7.059  0.00  0.00    +0.277 C 
ATOM     26  O   LIG    1       26.333 -20.755   5.749  0.00  0.00    -0.494 OA
ENDBRANCH  19  26
BRANCH  21  27
ATOM     27  O   LIG    1       22.396 -18.993   3.561  0.00  0.00    -0.494 OA
ATOM     28  C   LIG    1       21.613 -17.942   4.130  0.00  0.00    +0.277 C 
ENDBRANCH  21  27
ENDBRANCH   1  20
TORSDOF 6
ENDMDL
MODEL 2
REMARK VINA RESULT:      -1.0      0.319      2.516
REMARK  Name = *****
REMARK                            x       y       z     vdW  Elec       q    Type
REMARK                         _______ _______ _______ _____ _____    ______ ____
ROOT
ATOM      1  C   LIG    1       25.178 -18.753   3.753  0.00  0.00    +0.252 C 
ATOM      2  N   LIG    1       24.970 -17.363   3.773  0.00  0.00    -0.297 N 
ATOM      3  H   LIG    1       24.159 -16.996   4.262  0.00  0.00    +0.150 HD
ATOM      4  O   LIG    1       26.105 -19.202   3.078  0.00  0.00    -0.270 OA
ENDROOT
BRANCH   2   5
ATOM      5  CA  LIG    1       25.938 -16.486   3.004  0.00  0.00    +0.190 C 
ATOM      6  C   LIG    1       25.817 -14.951   2.887  0.00  0.00    +0.165 C 
ATOM      7  S   LIG    1       24.739 -14.061   4.012  0.00  0.00    -0.127 S 
ATOM      8  C   LIG    1       26.119 -13.424   5.079  0.00  0.00    +0.042 C 
ATOM      9  CA  LIG    1       27.471 -13.784   4.409  0.00  0.00    +0.201 C 
ATOM     10  C   LIG    1       25.962 -14.189   6.401  0.00  0.00    +0.025 C 
ATOM     11  C   LIG    1       25.854 -11.929   5.285  0.00  0.00    +0.025 C 
ATOM     12  N   LIG    1       27.195 -14.821   3.401  0.00  0.00    -0.271 N 
ATOM     13  C   LIG    1       27.281 -16.148   3.735  0.00  0.00    +0.240 C 
ATOM     14  O   LIG    1       28.076 -16.686   4.490  0.00  0.00    -0.273 OA
BRANCH   9  15
ATOM     15  C   LIG    1       28.248 -12.614   3.776  0.00  0.00    +0.327 C 
ATOM     16  O   LIG    1       29.322 -12.194   4.184  0.00  0.00    -0.249 OA
BRANCH  15  17
ATOM     17  OXT LIG    1       27.653 -12.092   2.676  0.00  0.00    -0.479 OA
ATOM     18  HXT LIG    1       26.700 -11.946   2.845  0.00  0.00    +0.295 HD
ENDBRANCH  15  17
ENDBRANCH   9  15
ENDBRANCH   2   5
BRANCH   1  20
ATOM     19  C   LIG    1       22.853 -19.671   4.374  0.00  0.00    +0.136 A 
ATOM     20  C   LIG    1       24.262 -19.694   4.522  0.00  0.00    +0.120 A 
ATOM     21  C   LIG    1       24.823 -20.681   5.392  0.00  0.00    +0.136 A 
ATOM     22  C   LIG    1       23.987 -21.571   6.094  0.00  0.00    +0.046 A 
ATOM     23  C   LIG    1       22.614 -21.537   5.933  0.00  0.00    +0.007 A 
ATOM     24  C   LIG    1       22.057 -20.609   5.065  0.00  0.00    +0.046 A 
BRANCH  19  26
ATOM     25  C   LIG    1       20.870 -18.542   3.678  0.00  0.00    +0.277 C 
ATOM     26  O   LIG    1       22.286 -18.710   3.566  0.00  0.00    -0.494 OA
ENDBRANCH  19  26
BRANCH  21  27
ATOM     27  O   LIG    1       26.190 -20.791   5.522  0.00  0.00    -0.494 OA
ATOM     28  C   LIG    1       26.679 -21.160   6.813  0.00  0.00    +0.277 C 
ENDBRANCH  21  27
ENDBRANCH   1  20
TORSDOF 6
ENDMDL
