MODEL 1
REMARK VINA RESULT:       3.1      0.000      0.000
REMARK  Name = *****
REMARK                            x       y       z     vdW  Elec       q    Type
REMARK                         _______ _______ _______ _____ _____    ______ ____
ROOT
ATOM      1  C   LIG    1       22.308 -18.647   4.605  0.00  0.00    +0.089 C 
ENDROOT
BRANCH   1   2
ATOM      2  N   LIG    1       23.286 -17.592   4.921  0.00  0.00    -0.302 NA
ATOM      3  C   LIG    1       23.947 -16.963   3.772  0.00  0.00    +0.085 C 
ATOM      4  C   LIG    1       23.094 -15.924   3.040  0.00  0.00    +0.025 C 
ATOM      5  C   LIG    1       22.636 -14.808   3.987  0.00  0.00    +0.044 C 
ATOM      6  C   LIG    1       21.920 -15.463   5.182  0.00  0.00    +0.025 C 
ATOM      7  C   LIG    1       22.745 -16.581   5.846  0.00  0.00    +0.085 C 
BRANCH   5   8
ATOM      8  C   LIG    1       23.761 -13.867   4.366  0.00  0.00    +0.095 A 
ATOM      9  C   LIG    1       25.166 -14.018   4.165  0.00  0.00    +0.045 A 
ATOM     10  C   LIG    1       25.709 -12.883   4.749  0.00  0.00    +0.170 A 
ATOM     11  C   LIG    1       27.065 -12.588   4.815  0.00  0.00    +0.088 A 
ATOM     12  C   LIG    1       27.910 -13.526   4.230  0.00  0.00    +0.127 A 
ATOM     13  C   LIG    1       27.422 -14.683   3.623  0.00  0.00    +0.039 A 
ATOM     14  F   LIG    1       29.231 -13.306   4.251  0.00  0.00    -0.205 F 
ATOM     15  O   LIG    1       24.713 -12.110   5.243  0.00  0.00    -0.354 OA
ATOM     16  C   LIG    1       26.044 -14.952   3.583  0.00  0.00    +0.016 A 
ATOM     17  N   LIG    1       23.501 -12.712   4.996  0.00  0.00    -0.082 NA
ENDBRANCH   5   8
ENDBRANCH   1   2
BRANCH   1  18
ATOM     18  C   LIG    1       22.928 -20.056   4.460  0.00  0.00    +0.058 C 
BRANCH  18  21
ATOM     19  C   LIG    1       23.684 -21.560   7.054  0.00  0.00    +0.066 C 
ATOM     20  C   LIG    1       24.659 -20.814   6.179  0.00  0.00    +0.049 C 
ATOM     21  C   LIG    1       24.310 -20.166   5.056  0.00  0.00    +0.039 C 
ATOM     22  C   LIG    1       25.387 -19.431   4.344  0.00  0.00    +0.258 C 
ATOM     23  O   LIG    1       25.150 -18.886   3.251  0.00  0.00    -0.267 OA
ATOM     24  N   LIG    1       26.621 -19.400   4.941  0.00  0.00    -0.294 N 
ATOM     25  C   LIG    1       27.696 -18.716   4.229  0.00  0.00    +0.127 C 
ATOM     26  C   LIG    1       28.943 -18.470   5.065  0.00  0.00    +0.025 C 
ATOM     27  C   LIG    1       29.362 -19.771   5.720  0.00  0.00    +0.041 C 
ATOM     28  C   LIG    1       28.265 -20.234   6.659  0.00  0.00    +0.180 C 
ATOM     29  C   LIG    1       26.862 -20.178   6.042  0.00  0.00    +0.141 C 
ATOM     30  N   LIG    1       25.943 -20.866   6.657  0.00  0.00    -0.236 NA
BRANCH  28  31
ATOM     31  O   LIG    1       28.551 -21.571   7.062  0.00  0.00    -0.384 OA
ATOM     32  H   LIG    1       29.036 -21.963   6.306  0.00  0.00    +0.210 HD
ENDBRANCH  28  31
ENDBRANCH  18  21
ENDBRANCH   1  18
TORSDOF 5
ENDMDL
