MODEL 1
REMARK VINA RESULT:      -6.0      0.000      0.000
REMARK  Name = *****
REMARK                            x       y       z     vdW  Elec       q    Type
REMARK                         _______ _______ _______ _____ _____    ______ ____
ROOT
ATOM      1  CA  LIG    1       24.949 -31.271   9.101  0.00  0.00    +0.191 C 
ENDROOT
BRANCH   1   2
ATOM      2  N   LIG    1       25.116 -30.321  10.226  0.00  0.00    -0.284 N 
ATOM      3  H   LIG    1       24.311 -30.155  10.822  0.00  0.00    +0.151 HD
ATOM      4  C   LIG    1       26.246 -29.578  10.443  0.00  0.00    +0.311 C 
ATOM      5  N   LIG    1       26.159 -28.629  11.446  0.00  0.00    -0.207 N 
ATOM      6  C   LIG    1       25.105 -28.358  12.308  0.00  0.00    +0.331 C 
ATOM      7  O   LIG    1       24.046 -28.971  12.377  0.00  0.00    -0.250 OA
ATOM      8  N   LIG    1       25.477 -27.278  13.122  0.00  0.00    -0.158 N 
ATOM      9  C   LIG    1       26.711 -26.640  12.629  0.00  0.00    +0.155 C 
ATOM     10  C   LIG    1       27.290 -27.765  11.775  0.00  0.00    +0.140 C 
ATOM     11  O   LIG    1       27.273 -29.748   9.799  0.00  0.00    -0.252 OA
BRANCH   8  12
ATOM     12  S   LIG    1       24.417 -26.344  14.010  0.00  0.00    +0.046 S 
ATOM     13  O   LIG    1       24.402 -26.847  15.370  0.00  0.00    -0.155 OA
ATOM     14  O   LIG    1       23.192 -26.228  13.254  0.00  0.00    -0.155 OA
ATOM     15  C   LIG    1       25.205 -24.748  13.986  0.00  0.00    +0.218 C 
ENDBRANCH   8  12
ENDBRANCH   1   2
BRANCH   1  16
ATOM     16  C   LIG    1       24.927 -30.561   7.747  0.00  0.00    -0.018 A 
ATOM     17  C   LIG    1       24.301 -29.316   7.574  0.00  0.00    +0.006 A 
ATOM     18  C   LIG    1       24.333 -28.653   6.344  0.00  0.00    +0.000 A 
ATOM     19  C   LIG    1       24.985 -29.224   5.256  0.00  0.00    +0.000 A 
ATOM     20  C   LIG    1       25.578 -30.477   5.389  0.00  0.00    +0.000 A 
ATOM     21  C   LIG    1       25.536 -31.148   6.619  0.00  0.00    +0.006 A 
ENDBRANCH   1  16
BRANCH   1  24
ATOM     22  N   LIG    1       22.900 -31.792  10.388  0.00  0.00    -0.300 N 
ATOM     23  H   LIG    1       23.167 -30.947  10.885  0.00  0.00    +0.150 HD
ATOM     24  C   LIG    1       23.701 -32.173   9.324  0.00  0.00    +0.239 C 
ATOM     25  O   LIG    1       23.486 -33.221   8.717  0.00  0.00    -0.273 OA
BRANCH  22  31
ATOM     26  C   LIG    1       20.919 -29.080  12.684  0.00  0.00    +0.025 C 
ATOM     27  C   LIG    1       20.610 -30.344  13.508  0.00  0.00    +0.042 C 
ATOM     28  CA  LIG    1       19.421 -31.136  12.901  0.00  0.00    +0.201 C 
ATOM     29  N   LIG    1       19.979 -32.113  11.952  0.00  0.00    -0.271 N 
ATOM     30  C   LIG    1       21.323 -32.647  12.243  0.00  0.00    +0.165 C 
ATOM     31  CA  LIG    1       21.651 -32.514  10.732  0.00  0.00    +0.190 C 
ATOM     32  C   LIG    1       20.325 -31.701  10.683  0.00  0.00    +0.240 C 
ATOM     33  O   LIG    1       19.808 -30.860   9.988  0.00  0.00    -0.273 OA
ATOM     34  S   LIG    1       22.105 -31.445  13.386  0.00  0.00    -0.127 S 
ATOM     35  C   LIG    1       20.436 -29.918  14.971  0.00  0.00    +0.025 C 
BRANCH  28  36
ATOM     36  C   LIG    1       18.534 -31.879  13.916  0.00  0.00    +0.327 C 
ATOM     37  O   LIG    1       18.866 -32.889  14.519  0.00  0.00    -0.249 OA
BRANCH  36  38
ATOM     38  OXT LIG    1       17.333 -31.288  14.133  0.00  0.00    -0.479 OA
ATOM     39  HXT LIG    1       17.402 -30.636  14.859  0.00  0.00    +0.295 HD
ENDBRANCH  36  38
ENDBRANCH  28  36
ENDBRANCH  22  31
ENDBRANCH   1  24
TORSDOF 7
ENDMDL
MODEL 2
REMARK VINA RESULT:      -5.5      3.740      6.759
REMARK  Name = *****
REMARK                            x       y       z     vdW  Elec       q    Type
REMARK                         _______ _______ _______ _____ _____    ______ ____
ROOT
ATOM      1  CA  LIG    1       25.573 -31.315   8.416  0.00  0.00    +0.191 C 
ENDROOT
BRANCH   1   2
ATOM      2  N   LIG    1       25.535 -30.000   7.733  0.00  0.00    -0.284 N 
ATOM      3  H   LIG    1       25.757 -29.179   8.287  0.00  0.00    +0.151 HD
ATOM      4  C   LIG    1       25.115 -29.817   6.443  0.00  0.00    +0.311 C 
ATOM      5  N   LIG    1       24.995 -28.502   6.030  0.00  0.00    -0.207 N 
ATOM      6  C   LIG    1       25.295 -27.335   6.719  0.00  0.00    +0.331 C 
ATOM      7  O   LIG    1       25.792 -27.259   7.837  0.00  0.00    -0.250 OA
ATOM      8  N   LIG    1       24.965 -26.248   5.897  0.00  0.00    -0.158 N 
ATOM      9  C   LIG    1       24.188 -26.684   4.723  0.00  0.00    +0.155 C 
ATOM     10  C   LIG    1       24.550 -28.167   4.679  0.00  0.00    +0.140 C 
ATOM     11  O   LIG    1       24.871 -30.756   5.695  0.00  0.00    -0.252 OA
BRANCH   8  12
ATOM     12  S   LIG    1       24.763 -24.678   6.427  0.00  0.00    +0.046 S 
ATOM     13  O   LIG    1       25.874 -24.349   7.298  0.00  0.00    -0.155 OA
ATOM     14  O   LIG    1       23.400 -24.540   6.886  0.00  0.00    -0.155 OA
ATOM     15  C   LIG    1       24.907 -23.746   4.917  0.00  0.00    +0.218 C 
ENDBRANCH   8  12
ENDBRANCH   1   2
BRANCH   1  16
ATOM     16  C   LIG    1       24.197 -31.735   8.933  0.00  0.00    -0.018 A 
ATOM     17  C   LIG    1       23.730 -33.054   8.810  0.00  0.00    +0.006 A 
ATOM     18  C   LIG    1       22.492 -33.436   9.334  0.00  0.00    +0.000 A 
ATOM     19  C   LIG    1       21.688 -32.506   9.984  0.00  0.00    +0.000 A 
ATOM     20  C   LIG    1       22.108 -31.182  10.083  0.00  0.00    +0.000 A 
ATOM     21  C   LIG    1       23.345 -30.795   9.548  0.00  0.00    +0.006 A 
ENDBRANCH   1  16
BRANCH   1  24
ATOM     22  N   LIG    1       26.584 -30.261  10.414  0.00  0.00    -0.300 N 
ATOM     23  H   LIG    1       25.812 -29.612  10.288  0.00  0.00    +0.150 HD
ATOM     24  C   LIG    1       26.660 -31.324   9.530  0.00  0.00    +0.239 C 
ATOM     25  O   LIG    1       27.603 -32.112   9.572  0.00  0.00    -0.273 OA
BRANCH  22  31
ATOM     26  C   LIG    1       24.586 -27.704  12.869  0.00  0.00    +0.025 C 
ATOM     27  C   LIG    1       25.999 -27.113  13.027  0.00  0.00    +0.042 C 
ATOM     28  CA  LIG    1       26.835 -27.916  14.059  0.00  0.00    +0.201 C 
ATOM     29  N   LIG    1       27.556 -28.967  13.323  0.00  0.00    -0.271 N 
ATOM     30  C   LIG    1       27.941 -28.674  11.931  0.00  0.00    +0.165 C 
ATOM     31  CA  LIG    1       27.516 -30.120  11.558  0.00  0.00    +0.190 C 
ATOM     32  C   LIG    1       26.895 -30.129  12.986  0.00  0.00    +0.240 C 
ATOM     33  O   LIG    1       26.029 -30.716  13.588  0.00  0.00    -0.273 OA
ATOM     34  S   LIG    1       26.850 -27.306  11.383  0.00  0.00    -0.127 S 
ATOM     35  C   LIG    1       25.850 -25.616  13.325  0.00  0.00    +0.025 C 
BRANCH  28  36
ATOM     36  C   LIG    1       27.850 -27.093  14.873  0.00  0.00    +0.327 C 
ATOM     37  O   LIG    1       27.578 -26.079  15.499  0.00  0.00    -0.249 OA
BRANCH  36  38
ATOM     38  OXT LIG    1       29.101 -27.615  14.881  0.00  0.00    -0.479 OA
ATOM     39  HXT LIG    1       29.556 -27.394  15.718  0.00  0.00    +0.295 HD
ENDBRANCH  36  38
ENDBRANCH  28  36
ENDBRANCH  22  31
ENDBRANCH   1  24
TORSDOF 7
ENDMDL
MODEL 3
REMARK VINA RESULT:      -5.2      2.129      6.191
REMARK  Name = *****
REMARK                            x       y       z     vdW  Elec       q    Type
REMARK                         _______ _______ _______ _____ _____    ______ ____
ROOT
ATOM      1  CA  LIG    1       24.239 -30.249   7.806  0.00  0.00    +0.191 C 
ENDROOT
BRANCH   1   2
ATOM      2  N   LIG    1       23.350 -30.676   8.913  0.00  0.00    -0.284 N 
ATOM      3  H   LIG    1       22.424 -30.262   8.956  0.00  0.00    +0.151 HD
ATOM      4  C   LIG    1       23.737 -31.504   9.932  0.00  0.00    +0.311 C 
ATOM      5  N   LIG    1       22.822 -31.662  10.959  0.00  0.00    -0.207 N 
ATOM      6  C   LIG    1       21.539 -31.146  11.078  0.00  0.00    +0.331 C 
ATOM      7  O   LIG    1       20.943 -30.481  10.240  0.00  0.00    -0.250 OA
ATOM      8  N   LIG    1       21.023 -31.551  12.318  0.00  0.00    -0.158 N 
ATOM      9  C   LIG    1       22.073 -32.142  13.166  0.00  0.00    +0.155 C 
ATOM     10  C   LIG    1       23.113 -32.512  12.112  0.00  0.00    +0.140 C 
ATOM     11  O   LIG    1       24.818 -32.078   9.934  0.00  0.00    -0.252 OA
BRANCH   8  12
ATOM     12  S   LIG    1       19.708 -30.856  13.075  0.00  0.00    +0.046 S 
ATOM     13  O   LIG    1       18.512 -31.246  12.353  0.00  0.00    -0.155 OA
ATOM     14  O   LIG    1       20.012 -29.461  13.296  0.00  0.00    -0.155 OA
ATOM     15  C   LIG    1       19.718 -31.657  14.665  0.00  0.00    +0.218 C 
ENDBRANCH   8  12
ENDBRANCH   1   2
BRANCH   1  16
ATOM     16  C   LIG    1       24.900 -31.439   7.108  0.00  0.00    -0.018 A 
ATOM     17  C   LIG    1       26.296 -31.581   7.049  0.00  0.00    +0.006 A 
ATOM     18  C   LIG    1       26.886 -32.699   6.454  0.00  0.00    +0.000 A 
ATOM     19  C   LIG    1       26.094 -33.697   5.896  0.00  0.00    +0.000 A 
ATOM     20  C   LIG    1       24.708 -33.561   5.904  0.00  0.00    +0.000 A 
ATOM     21  C   LIG    1       24.115 -32.434   6.490  0.00  0.00    +0.006 A 
ENDBRANCH   1  16
BRANCH   1  24
ATOM     22  N   LIG    1       25.646 -29.348   9.632  0.00  0.00    -0.300 N 
ATOM     23  H   LIG    1       25.258 -30.142  10.133  0.00  0.00    +0.150 HD
ATOM     24  C   LIG    1       25.272 -29.199   8.306  0.00  0.00    +0.239 C 
ATOM     25  O   LIG    1       25.642 -28.225   7.653  0.00  0.00    -0.273 OA
BRANCH  22  31
ATOM     26  C   LIG    1       26.064 -31.008  13.322  0.00  0.00    +0.025 C 
ATOM     27  C   LIG    1       26.060 -29.526  13.739  0.00  0.00    +0.042 C 
ATOM     28  CA  LIG    1       27.459 -28.882  13.549  0.00  0.00    +0.201 C 
ATOM     29  N   LIG    1       27.502 -28.311  12.193  0.00  0.00    -0.271 N 
ATOM     30  C   LIG    1       26.233 -27.819  11.626  0.00  0.00    +0.165 C 
ATOM     31  CA  LIG    1       26.645 -28.458  10.272  0.00  0.00    +0.190 C 
ATOM     32  C   LIG    1       27.760 -29.137  11.120  0.00  0.00    +0.240 C 
ATOM     33  O   LIG    1       28.466 -30.114  11.063  0.00  0.00    -0.273 OA
ATOM     34  S   LIG    1       24.902 -28.644  12.580  0.00  0.00    -0.127 S 
ATOM     35  C   LIG    1       25.486 -29.441  15.159  0.00  0.00    +0.025 C 
BRANCH  28  36
ATOM     36  C   LIG    1       27.826 -27.784  14.563  0.00  0.00    +0.327 C 
ATOM     37  O   LIG    1       27.343 -26.662  14.576  0.00  0.00    -0.249 OA
BRANCH  36  38
ATOM     38  OXT LIG    1       28.724 -28.178  15.500  0.00  0.00    -0.479 OA
ATOM     39  HXT LIG    1       29.361 -27.459  15.684  0.00  0.00    +0.295 HD
ENDBRANCH  36  38
ENDBRANCH  28  36
ENDBRANCH  22  31
ENDBRANCH   1  24
TORSDOF 7
ENDMDL
MODEL 4
REMARK VINA RESULT:      -4.6      3.377      4.389
REMARK  Name = *****
REMARK                            x       y       z     vdW  Elec       q    Type
REMARK                         _______ _______ _______ _____ _____    ______ ____
ROOT
ATOM      1  CA  LIG    1       25.089 -32.433   6.987  0.00  0.00    +0.191 C 
ENDROOT
BRANCH   1   2
ATOM      2  N   LIG    1       25.007 -30.953   7.028  0.00  0.00    -0.284 N 
ATOM      3  H   LIG    1       24.427 -30.497   6.330  0.00  0.00    +0.151 HD
ATOM      4  C   LIG    1       25.745 -30.167   7.871  0.00  0.00    +0.311 C 
ATOM      5  N   LIG    1       25.654 -28.803   7.656  0.00  0.00    -0.207 N 
ATOM      6  C   LIG    1       24.875 -28.109   6.740  0.00  0.00    +0.331 C 
ATOM      7  O   LIG    1       24.055 -28.595   5.969  0.00  0.00    -0.250 OA
ATOM      8  N   LIG    1       25.161 -26.743   6.874  0.00  0.00    -0.158 N 
ATOM      9  C   LIG    1       26.345 -26.527   7.724  0.00  0.00    +0.155 C 
ATOM     10  C   LIG    1       26.396 -27.852   8.480  0.00  0.00    +0.140 C 
ATOM     11  O   LIG    1       26.434 -30.636   8.768  0.00  0.00    -0.252 OA
BRANCH   8  12
ATOM     12  S   LIG    1       24.791 -25.576   5.739  0.00  0.00    +0.046 S 
ATOM     13  O   LIG    1       23.367 -25.310   5.811  0.00  0.00    -0.155 OA
ATOM     14  O   LIG    1       25.405 -25.964   4.491  0.00  0.00    -0.155 OA
ATOM     15  C   LIG    1       25.682 -24.160   6.347  0.00  0.00    +0.218 C 
ENDBRANCH   8  12
ENDBRANCH   1   2
BRANCH   1  16
ATOM     16  C   LIG    1       25.410 -32.952   5.585  0.00  0.00    -0.018 A 
ATOM     17  C   LIG    1       24.415 -33.108   4.607  0.00  0.00    +0.006 A 
ATOM     18  C   LIG    1       24.730 -33.535   3.314  0.00  0.00    +0.000 A 
ATOM     19  C   LIG    1       26.046 -33.824   2.972  0.00  0.00    +0.000 A 
ATOM     20  C   LIG    1       27.047 -33.719   3.934  0.00  0.00    +0.000 A 
ATOM     21  C   LIG    1       26.730 -33.302   5.235  0.00  0.00    +0.006 A 
ENDBRANCH   1  16
BRANCH   1  24
ATOM     22  N   LIG    1       23.790 -33.163   8.963  0.00  0.00    -0.300 N 
ATOM     23  H   LIG    1       24.586 -32.770   9.457  0.00  0.00    +0.150 HD
ATOM     24  C   LIG    1       23.800 -33.071   7.582  0.00  0.00    +0.239 C 
ATOM     25  O   LIG    1       22.908 -33.585   6.909  0.00  0.00    -0.273 OA
BRANCH  22  31
ATOM     26  C   LIG    1       23.013 -30.236  11.680  0.00  0.00    +0.025 C 
ATOM     27  C   LIG    1       22.819 -31.456  12.599  0.00  0.00    +0.042 C 
ATOM     28  CA  LIG    1       21.406 -32.074  12.425  0.00  0.00    +0.201 C 
ATOM     29  N   LIG    1       21.501 -33.107  11.380  0.00  0.00    -0.271 N 
ATOM     30  C   LIG    1       22.785 -33.819  11.248  0.00  0.00    +0.165 C 
ATOM     31  CA  LIG    1       22.632 -33.715   9.707  0.00  0.00    +0.190 C 
ATOM     32  C   LIG    1       21.477 -32.730  10.054  0.00  0.00    +0.240 C 
ATOM     33  O   LIG    1       20.881 -31.820   9.531  0.00  0.00    -0.273 OA
ATOM     34  S   LIG    1       24.040 -32.746  12.046  0.00  0.00    -0.127 S 
ATOM     35  C   LIG    1       23.176 -31.026  14.028  0.00  0.00    +0.025 C 
BRANCH  28  36
ATOM     36  C   LIG    1       20.798 -32.702  13.691  0.00  0.00    +0.327 C 
ATOM     37  O   LIG    1       21.157 -33.762  14.181  0.00  0.00    -0.249 OA
BRANCH  36  38
ATOM     38  OXT LIG    1       19.830 -31.948  14.269  0.00  0.00    -0.479 OA
ATOM     39  HXT LIG    1       20.222 -31.343  14.932  0.00  0.00    +0.295 HD
ENDBRANCH  36  38
ENDBRANCH  28  36
ENDBRANCH  22  31
ENDBRANCH   1  24
TORSDOF 7
ENDMDL
MODEL 5
REMARK VINA RESULT:      -4.4      3.882      5.384
REMARK  Name = *****
REMARK                            x       y       z     vdW  Elec       q    Type
REMARK                         _______ _______ _______ _____ _____    ______ ____
ROOT
ATOM      1  CA  LIG    1       26.488 -29.024   8.454  0.00  0.00    +0.191 C 
ENDROOT
BRANCH   1   2
ATOM      2  N   LIG    1       26.269 -27.730   7.765  0.00  0.00    -0.284 N 
ATOM      3  H   LIG    1       26.194 -26.899   8.343  0.00  0.00    +0.151 HD
ATOM      4  C   LIG    1       26.055 -27.604   6.419  0.00  0.00    +0.311 C 
ATOM      5  N   LIG    1       25.711 -26.338   5.980  0.00  0.00    -0.207 N 
ATOM      6  C   LIG    1       25.607 -25.157   6.703  0.00  0.00    +0.331 C 
ATOM      7  O   LIG    1       25.865 -25.008   7.891  0.00  0.00    -0.250 OA
ATOM      8  N   LIG    1       25.186 -24.147   5.825  0.00  0.00    -0.158 N 
ATOM      9  C   LIG    1       24.753 -24.709   4.534  0.00  0.00    +0.155 C 
ATOM     10  C   LIG    1       25.449 -26.068   4.568  0.00  0.00    +0.140 C 
ATOM     11  O   LIG    1       26.171 -28.548   5.647  0.00  0.00    -0.252 OA
BRANCH   8  12
ATOM     12  S   LIG    1       24.537 -22.684   6.297  0.00  0.00    +0.046 S 
ATOM     13  O   LIG    1       25.521 -21.993   7.108  0.00  0.00    -0.155 OA
ATOM     14  O   LIG    1       23.209 -22.934   6.805  0.00  0.00    -0.155 OA
ATOM     15  C   LIG    1       24.356 -21.831   4.744  0.00  0.00    +0.218 C 
ENDBRANCH   8  12
ENDBRANCH   1   2
BRANCH   1  16
ATOM     16  C   LIG    1       25.557 -30.118   7.931  0.00  0.00    -0.018 A 
ATOM     17  C   LIG    1       24.159 -29.989   7.982  0.00  0.00    +0.006 A 
ATOM     18  C   LIG    1       23.321 -30.974   7.453  0.00  0.00    +0.000 A 
ATOM     19  C   LIG    1       23.860 -32.115   6.869  0.00  0.00    +0.000 A 
ATOM     20  C   LIG    1       25.241 -32.288   6.843  0.00  0.00    +0.000 A 
ATOM     21  C   LIG    1       26.083 -31.306   7.384  0.00  0.00    +0.006 A 
ENDBRANCH   1  16
BRANCH   1  24
ATOM     22  N   LIG    1       25.884 -29.944  10.672  0.00  0.00    -0.300 N 
ATOM     23  H   LIG    1       25.667 -30.765  10.115  0.00  0.00    +0.150 HD
ATOM     24  C   LIG    1       26.395 -28.847   9.998  0.00  0.00    +0.239 C 
ATOM     25  O   LIG    1       26.617 -27.791  10.588  0.00  0.00    -0.273 OA
BRANCH  22  31
ATOM     26  C   LIG    1       22.711 -32.428  11.229  0.00  0.00    +0.025 C 
ATOM     27  C   LIG    1       22.357 -31.366  12.286  0.00  0.00    +0.042 C 
ATOM     28  CA  LIG    1       23.143 -31.598  13.604  0.00  0.00    +0.201 C 
ATOM     29  N   LIG    1       24.393 -30.826  13.514  0.00  0.00    -0.271 N 
ATOM     30  C   LIG    1       24.364 -29.581  12.725  0.00  0.00    +0.165 C 
ATOM     31  CA  LIG    1       25.752 -29.969  12.148  0.00  0.00    +0.190 C 
ATOM     32  C   LIG    1       25.459 -31.347  12.811  0.00  0.00    +0.240 C 
ATOM     33  O   LIG    1       25.800 -32.498  12.687  0.00  0.00    -0.273 OA
ATOM     34  S   LIG    1       22.916 -29.726  11.609  0.00  0.00    -0.127 S 
ATOM     35  C   LIG    1       20.829 -31.340  12.429  0.00  0.00    +0.025 C 
BRANCH  28  36
ATOM     36  C   LIG    1       22.404 -31.199  14.895  0.00  0.00    +0.327 C 
ATOM     37  O   LIG    1       22.349 -30.063  15.340  0.00  0.00    -0.249 OA
BRANCH  36  38
ATOM     38  OXT LIG    1       21.761 -32.228  15.499  0.00  0.00    -0.479 OA
ATOM     39  HXT LIG    1       21.458 -31.961  16.391  0.00  0.00    +0.295 HD
ENDBRANCH  36  38
ENDBRANCH  28  36
ENDBRANCH  22  31
ENDBRANCH   1  24
TORSDOF 7
ENDMDL
MODEL 6
REMARK VINA RESULT:      -4.3      8.013     10.374
REMARK  Name = *****
REMARK                            x       y       z     vdW  Elec       q    Type
REMARK                         _______ _______ _______ _____ _____    ______ ____
ROOT
ATOM      1  CA  LIG    1       25.488 -21.680   5.419  0.00  0.00    +0.191 C 
ENDROOT
BRANCH   1   2
ATOM      2  N   LIG    1       26.732 -21.111   5.988  0.00  0.00    -0.284 N 
ATOM      3  H   LIG    1       27.030 -21.450   6.897  0.00  0.00    +0.151 HD
ATOM      4  C   LIG    1       27.438 -20.085   5.417  0.00  0.00    +0.311 C 
ATOM      5  N   LIG    1       28.482 -19.579   6.173  0.00  0.00    -0.207 N 
ATOM      6  C   LIG    1       28.955 -20.000   7.407  0.00  0.00    +0.331 C 
ATOM      7  O   LIG    1       28.557 -20.967   8.047  0.00  0.00    -0.250 OA
ATOM      8  N   LIG    1       30.002 -19.146   7.785  0.00  0.00    -0.158 N 
ATOM      9  C   LIG    1       30.071 -17.967   6.904  0.00  0.00    +0.155 C 
ATOM     10  C   LIG    1       29.310 -18.479   5.684  0.00  0.00    +0.140 C 
ATOM     11  O   LIG    1       27.173 -19.649   4.304  0.00  0.00    -0.252 OA
BRANCH   8  12
ATOM     12  S   LIG    1       30.599 -18.998   9.336  0.00  0.00    +0.046 S 
ATOM     13  O   LIG    1       31.065 -20.301   9.768  0.00  0.00    -0.155 OA
ATOM     14  O   LIG    1       29.625 -18.269  10.115  0.00  0.00    -0.155 OA
ATOM     15  C   LIG    1       31.999 -17.924   9.103  0.00  0.00    +0.218 C 
ENDBRANCH   8  12
ENDBRANCH   1   2
BRANCH   1  16
ATOM     16  C   LIG    1       24.483 -20.595   5.031  0.00  0.00    -0.018 A 
ATOM     17  C   LIG    1       24.569 -19.908   3.810  0.00  0.00    +0.006 A 
ATOM     18  C   LIG    1       23.614 -18.954   3.446  0.00  0.00    +0.000 A 
ATOM     19  C   LIG    1       22.556 -18.659   4.299  0.00  0.00    +0.000 A 
ATOM     20  C   LIG    1       22.471 -19.296   5.535  0.00  0.00    +0.000 A 
ATOM     21  C   LIG    1       23.435 -20.244   5.906  0.00  0.00    +0.006 A 
ENDBRANCH   1  16
BRANCH   1  24
ATOM     22  N   LIG    1       24.597 -23.961   5.784  0.00  0.00    -0.300 N 
ATOM     23  H   LIG    1       24.851 -24.064   4.806  0.00  0.00    +0.150 HD
ATOM     24  C   LIG    1       24.881 -22.743   6.380  0.00  0.00    +0.239 C 
ATOM     25  O   LIG    1       24.540 -22.514   7.539  0.00  0.00    -0.273 OA
BRANCH  22  31
ATOM     26  C   LIG    1       27.361 -26.876   5.141  0.00  0.00    +0.025 C 
ATOM     27  C   LIG    1       26.090 -27.734   5.007  0.00  0.00    +0.042 C 
ATOM     28  CA  LIG    1       25.543 -28.153   6.398  0.00  0.00    +0.201 C 
ATOM     29  N   LIG    1       24.581 -27.123   6.822  0.00  0.00    -0.271 N 
ATOM     30  C   LIG    1       23.828 -26.424   5.765  0.00  0.00    +0.165 C 
ATOM     31  CA  LIG    1       24.043 -25.102   6.551  0.00  0.00    +0.190 C 
ATOM     32  C   LIG    1       25.048 -25.953   7.382  0.00  0.00    +0.240 C 
ATOM     33  O   LIG    1       26.015 -25.776   8.082  0.00  0.00    -0.273 OA
ATOM     34  S   LIG    1       24.792 -26.656   4.223  0.00  0.00    -0.127 S 
ATOM     35  C   LIG    1       26.406 -28.891   4.050  0.00  0.00    +0.025 C 
BRANCH  28  36
ATOM     36  C   LIG    1       24.855 -29.529   6.451  0.00  0.00    +0.327 C 
ATOM     37  O   LIG    1       23.718 -29.752   6.062  0.00  0.00    -0.249 OA
BRANCH  36  38
ATOM     38  OXT LIG    1       25.642 -30.519   6.938  0.00  0.00    -0.479 OA
ATOM     39  HXT LIG    1       25.970 -31.082   6.208  0.00  0.00    +0.295 HD
ENDBRANCH  36  38
ENDBRANCH  28  36
ENDBRANCH  22  31
ENDBRANCH   1  24
TORSDOF 7
ENDMDL
MODEL 7
REMARK VINA RESULT:      -4.2      3.381      4.626
REMARK  Name = *****
REMARK                            x       y       z     vdW  Elec       q    Type
REMARK                         _______ _______ _______ _____ _____    ______ ____
ROOT
ATOM      1  CA  LIG    1       25.662 -31.191   7.737  0.00  0.00    +0.191 C 
ENDROOT
BRANCH   1   2
ATOM      2  N   LIG    1       25.706 -29.788   7.264  0.00  0.00    -0.284 N 
ATOM      3  H   LIG    1       25.753 -29.057   7.967  0.00  0.00    +0.151 HD
ATOM      4  C   LIG    1       25.577 -29.415   5.952  0.00  0.00    +0.311 C 
ATOM      5  N   LIG    1       25.481 -28.054   5.720  0.00  0.00    -0.207 N 
ATOM      6  C   LIG    1       25.554 -27.003   6.623  0.00  0.00    +0.331 C 
ATOM      7  O   LIG    1       25.783 -27.091   7.823  0.00  0.00    -0.250 OA
ATOM      8  N   LIG    1       25.358 -25.808   5.914  0.00  0.00    -0.158 N 
ATOM      9  C   LIG    1       24.889 -26.073   4.543  0.00  0.00    +0.155 C 
ATOM     10  C   LIG    1       25.332 -27.523   4.367  0.00  0.00    +0.140 C 
ATOM     11  O   LIG    1       25.558 -30.232   5.040  0.00  0.00    -0.252 OA
BRANCH   8  12
ATOM     12  S   LIG    1       24.956 -24.344   6.607  0.00  0.00    +0.046 S 
ATOM     13  O   LIG    1       26.001 -23.988   7.548  0.00  0.00    -0.155 OA
ATOM     14  O   LIG    1       23.578 -24.420   7.032  0.00  0.00    -0.155 OA
ATOM     15  C   LIG    1       25.019 -23.236   5.215  0.00  0.00    +0.218 C 
ENDBRANCH   8  12
ENDBRANCH   1   2
BRANCH   1  16
ATOM     16  C   LIG    1       26.380 -32.143   6.779  0.00  0.00    -0.018 A 
ATOM     17  C   LIG    1       25.739 -32.684   5.653  0.00  0.00    +0.006 A 
ATOM     18  C   LIG    1       26.422 -33.511   4.758  0.00  0.00    +0.000 A 
ATOM     19  C   LIG    1       27.760 -33.825   4.973  0.00  0.00    +0.000 A 
ATOM     20  C   LIG    1       28.408 -33.336   6.104  0.00  0.00    +0.000 A 
ATOM     21  C   LIG    1       27.721 -32.515   7.009  0.00  0.00    +0.006 A 
ENDBRANCH   1  16
BRANCH   1  24
ATOM     22  N   LIG    1       24.033 -32.339   9.206  0.00  0.00    -0.300 N 
ATOM     23  H   LIG    1       24.858 -32.466   9.785  0.00  0.00    +0.150 HD
ATOM     24  C   LIG    1       24.197 -31.628   8.028  0.00  0.00    +0.239 C 
ATOM     25  O   LIG    1       23.264 -31.492   7.239  0.00  0.00    -0.273 OA
BRANCH  22  31
ATOM     26  C   LIG    1       23.477 -30.213  12.630  0.00  0.00    +0.025 C 
ATOM     27  C   LIG    1       22.934 -31.570  13.114  0.00  0.00    +0.042 C 
ATOM     28  CA  LIG    1       21.465 -31.784  12.662  0.00  0.00    +0.201 C 
ATOM     29  N   LIG    1       21.499 -32.470  11.360  0.00  0.00    -0.271 N 
ATOM     30  C   LIG    1       22.630 -33.381  11.104  0.00  0.00    +0.165 C 
ATOM     31  CA  LIG    1       22.703 -32.809   9.663  0.00  0.00    +0.190 C 
ATOM     32  C   LIG    1       21.722 -31.734  10.215  0.00  0.00    +0.240 C 
ATOM     33  O   LIG    1       21.384 -30.604   9.958  0.00  0.00    -0.273 OA
ATOM     34  S   LIG    1       23.950 -32.886  12.277  0.00  0.00    -0.127 S 
ATOM     35  C   LIG    1       23.175 -31.657  14.627  0.00  0.00    +0.025 C 
BRANCH  28  36
ATOM     36  C   LIG    1       20.586 -32.597  13.630  0.00  0.00    +0.327 C 
ATOM     37  O   LIG    1       20.490 -33.815  13.622  0.00  0.00    -0.249 OA
BRANCH  36  38
ATOM     38  OXT LIG    1       19.938 -31.842  14.550  0.00  0.00    -0.479 OA
ATOM     39  HXT LIG    1       19.246 -31.300  14.119  0.00  0.00    +0.295 HD
ENDBRANCH  36  38
ENDBRANCH  28  36
ENDBRANCH  22  31
ENDBRANCH   1  24
TORSDOF 7
ENDMDL
MODEL 8
REMARK VINA RESULT:      -4.1      2.084      2.741
REMARK  Name = *****
REMARK                            x       y       z     vdW  Elec       q    Type
REMARK                         _______ _______ _______ _____ _____    ______ ____
ROOT
ATOM      1  CA  LIG    1       25.034 -32.253   9.428  0.00  0.00    +0.191 C 
ENDROOT
BRANCH   1   2
ATOM      2  N   LIG    1       25.717 -31.349  10.384  0.00  0.00    -0.284 N 
ATOM      3  H   LIG    1       25.928 -31.716  11.306  0.00  0.00    +0.151 HD
ATOM      4  C   LIG    1       25.979 -30.028  10.137  0.00  0.00    +0.311 C 
ATOM      5  N   LIG    1       26.477 -29.304  11.206  0.00  0.00    -0.207 N 
ATOM      6  C   LIG    1       26.806 -29.738  12.483  0.00  0.00    +0.331 C 
ATOM      7  O   LIG    1       26.767 -30.893  12.890  0.00  0.00    -0.250 OA
ATOM      8  N   LIG    1       27.230 -28.625  13.224  0.00  0.00    -0.158 N 
ATOM      9  C   LIG    1       26.942 -27.368  12.510  0.00  0.00    +0.155 C 
ATOM     10  C   LIG    1       26.792 -27.882  11.080  0.00  0.00    +0.140 C 
ATOM     11  O   LIG    1       25.795 -29.519   9.039  0.00  0.00    -0.252 OA
BRANCH   8  12
ATOM     12  S   LIG    1       27.333 -28.571  14.888  0.00  0.00    +0.046 S 
ATOM     13  O   LIG    1       27.742 -27.234  15.273  0.00  0.00    -0.155 OA
ATOM     14  O   LIG    1       28.087 -29.725  15.321  0.00  0.00    -0.155 OA
ATOM     15  C   LIG    1       25.643 -28.830  15.382  0.00  0.00    +0.218 C 
ENDBRANCH   8  12
ENDBRANCH   1   2
BRANCH   1  16
ATOM     16  C   LIG    1       25.807 -32.394   8.117  0.00  0.00    -0.018 A 
ATOM     17  C   LIG    1       27.070 -33.006   8.063  0.00  0.00    +0.006 A 
ATOM     18  C   LIG    1       27.743 -33.174   6.850  0.00  0.00    +0.000 A 
ATOM     19  C   LIG    1       27.173 -32.726   5.663  0.00  0.00    +0.000 A 
ATOM     20  C   LIG    1       25.941 -32.078   5.693  0.00  0.00    +0.000 A 
ATOM     21  C   LIG    1       25.270 -31.898   6.911  0.00  0.00    +0.006 A 
ENDBRANCH   1  16
BRANCH   1  24
ATOM     22  N   LIG    1       22.942 -31.290  10.336  0.00  0.00    -0.300 N 
ATOM     23  H   LIG    1       23.511 -31.205  11.174  0.00  0.00    +0.150 HD
ATOM     24  C   LIG    1       23.559 -31.807   9.209  0.00  0.00    +0.239 C 
ATOM     25  O   LIG    1       22.921 -32.008   8.177  0.00  0.00    -0.273 OA
BRANCH  22  31
ATOM     26  C   LIG    1       21.599 -32.209  14.064  0.00  0.00    +0.025 C 
ATOM     27  C   LIG    1       20.340 -32.597  13.267  0.00  0.00    +0.042 C 
ATOM     28  CA  LIG    1       19.471 -31.352  12.944  0.00  0.00    +0.201 C 
ATOM     29  N   LIG    1       19.914 -30.832  11.639  0.00  0.00    -0.271 N 
ATOM     30  C   LIG    1       20.435 -31.807  10.664  0.00  0.00    +0.165 C 
ATOM     31  CA  LIG    1       21.548 -30.785  10.308  0.00  0.00    +0.190 C 
ATOM     32  C   LIG    1       21.039 -30.037  11.575  0.00  0.00    +0.240 C 
ATOM     33  O   LIG    1       21.455 -29.240  12.380  0.00  0.00    -0.273 OA
ATOM     34  S   LIG    1       20.923 -33.281  11.639  0.00  0.00    -0.127 S 
ATOM     35  C   LIG    1       19.624 -33.714  14.038  0.00  0.00    +0.025 C 
BRANCH  28  36
ATOM     36  C   LIG    1       17.953 -31.599  12.892  0.00  0.00    +0.327 C 
ATOM     37  O   LIG    1       17.387 -32.263  12.036  0.00  0.00    -0.249 OA
BRANCH  36  38
ATOM     38  OXT LIG    1       17.270 -31.044  13.923  0.00  0.00    -0.479 OA
ATOM     39  HXT LIG    1       16.979 -30.139  13.690  0.00  0.00    +0.295 HD
ENDBRANCH  36  38
ENDBRANCH  28  36
ENDBRANCH  22  31
ENDBRANCH   1  24
TORSDOF 7
ENDMDL
MODEL 9
REMARK VINA RESULT:      -4.1      7.810     10.242
REMARK  Name = *****
REMARK                            x       y       z     vdW  Elec       q    Type
REMARK                         _______ _______ _______ _____ _____    ______ ____
ROOT
ATOM      1  CA  LIG    1       25.481 -21.511   5.380  0.00  0.00    +0.191 C 
ENDROOT
BRANCH   1   2
ATOM      2  N   LIG    1       26.599 -21.058   6.241  0.00  0.00    -0.284 N 
ATOM      3  H   LIG    1       26.939 -20.111   6.109  0.00  0.00    +0.151 HD
ATOM      4  C   LIG    1       27.266 -21.868   7.121  0.00  0.00    +0.311 C 
ATOM      5  N   LIG    1       28.384 -21.314   7.721  0.00  0.00    -0.207 N 
ATOM      6  C   LIG    1       28.896 -20.029   7.603  0.00  0.00    +0.331 C 
ATOM      7  O   LIG    1       28.401 -19.105   6.969  0.00  0.00    -0.250 OA
ATOM      8  N   LIG    1       30.068 -19.957   8.370  0.00  0.00    -0.158 N 
ATOM      9  C   LIG    1       30.497 -21.295   8.815  0.00  0.00    +0.155 C 
ATOM     10  C   LIG    1       29.190 -22.072   8.674  0.00  0.00    +0.140 C 
ATOM     11  O   LIG    1       26.894 -23.008   7.372  0.00  0.00    -0.252 OA
BRANCH   8  12
ATOM     12  S   LIG    1       31.235 -18.774   8.220  0.00  0.00    +0.046 S 
ATOM     13  O   LIG    1       31.452 -18.530   6.807  0.00  0.00    -0.155 OA
ATOM     14  O   LIG    1       32.336 -19.128   9.084  0.00  0.00    -0.155 OA
ATOM     15  C   LIG    1       30.433 -17.356   8.940  0.00  0.00    +0.218 C 
ENDBRANCH   8  12
ENDBRANCH   1   2
BRANCH   1  16
ATOM     16  C   LIG    1       24.664 -20.338   4.836  0.00  0.00    -0.018 A 
ATOM     17  C   LIG    1       23.310 -20.164   5.164  0.00  0.00    +0.006 A 
ATOM     18  C   LIG    1       22.588 -19.060   4.702  0.00  0.00    +0.000 A 
ATOM     19  C   LIG    1       23.202 -18.110   3.892  0.00  0.00    +0.000 A 
ATOM     20  C   LIG    1       24.532 -18.280   3.517  0.00  0.00    +0.000 A 
ATOM     21  C   LIG    1       25.253 -19.394   3.971  0.00  0.00    +0.006 A 
ENDBRANCH   1  16
BRANCH   1  24
ATOM     22  N   LIG    1       24.746 -23.857   5.665  0.00  0.00    -0.300 N 
ATOM     23  H   LIG    1       25.433 -24.013   4.933  0.00  0.00    +0.150 HD
ATOM     24  C   LIG    1       24.603 -22.558   6.125  0.00  0.00    +0.239 C 
ATOM     25  O   LIG    1       23.744 -22.275   6.958  0.00  0.00    -0.273 OA
BRANCH  22  31
ATOM     26  C   LIG    1       27.430 -26.900   5.366  0.00  0.00    +0.025 C 
ATOM     27  C   LIG    1       26.160 -27.679   4.980  0.00  0.00    +0.042 C 
ATOM     28  CA  LIG    1       25.362 -28.116   6.238  0.00  0.00    +0.201 C 
ATOM     29  N   LIG    1       24.395 -27.049   6.541  0.00  0.00    -0.271 N 
ATOM     30  C   LIG    1       23.869 -26.270   5.405  0.00  0.00    +0.165 C 
ATOM     31  CA  LIG    1       24.013 -24.993   6.275  0.00  0.00    +0.190 C 
ATOM     32  C   LIG    1       24.817 -25.929   7.224  0.00  0.00    +0.240 C 
ATOM     33  O   LIG    1       25.658 -25.833   8.085  0.00  0.00    -0.273 OA
ATOM     34  S   LIG    1       25.071 -26.500   4.038  0.00  0.00    -0.127 S 
ATOM     35  C   LIG    1       26.576 -28.816   4.038  0.00  0.00    +0.025 C 
BRANCH  28  36
ATOM     36  C   LIG    1       24.607 -29.452   6.112  0.00  0.00    +0.327 C 
ATOM     37  O   LIG    1       25.025 -30.526   6.518  0.00  0.00    -0.249 OA
BRANCH  36  38
ATOM     38  OXT LIG    1       23.385 -29.340   5.536  0.00  0.00    -0.479 OA
ATOM     39  HXT LIG    1       22.911 -28.561   5.893  0.00  0.00    +0.295 HD
ENDBRANCH  36  38
ENDBRANCH  28  36
ENDBRANCH  22  31
ENDBRANCH   1  24
TORSDOF 7
ENDMDL
