MODEL 1
REMARK VINA RESULT:       2.9      0.000      0.000
REMARK  Name = *****
REMARK                            x       y       z     vdW  Elec       q    Type
REMARK                         _______ _______ _______ _____ _____    ______ ____
ROOT
ATOM      1  C   LIG    1       23.033 -19.899   3.779  0.00  0.00    +0.201 C 
ATOM      2  O   LIG    1       22.891 -20.538   2.740  0.00  0.00    -0.286 OA
ENDROOT
BRANCH   1   3
ATOM      3  C   LIG    1       22.277 -18.655   3.995  0.00  0.00    +0.049 A 
ATOM      4  C   LIG    1       22.838 -17.339   4.178  0.00  0.00    +0.030 A 
ATOM      5  C   LIG    1       21.790 -16.474   4.457  0.00  0.00    +0.139 A 
ATOM      6  N   LIG    1       21.852 -15.163   4.735  0.00  0.00    -0.237 NA
ATOM      7  C   LIG    1       23.117 -14.676   4.666  0.00  0.00    +0.121 A 
ATOM      8  C   LIG    1       24.282 -15.385   4.345  0.00  0.00    +0.001 A 
ATOM      9  N   LIG    1       20.629 -17.182   4.382  0.00  0.00    -0.345 N 
ATOM     10  H   LIG    1       19.718 -16.777   4.545  0.00  0.00    +0.167 HD
ATOM     11  C   LIG    1       24.128 -16.769   4.134  0.00  0.00    +0.022 A 
ATOM     12  C   LIG    1       20.899 -18.472   4.006  0.00  0.00    +0.097 A 
BRANCH   8  13
ATOM     13  C   LIG    1       25.589 -14.708   4.174  0.00  0.00    -0.016 A 
ATOM     14  C   LIG    1       26.249 -14.116   5.270  0.00  0.00    +0.010 A 
ATOM     15  C   LIG    1       27.450 -13.415   5.112  0.00  0.00    +0.020 A 
ATOM     16  C   LIG    1       28.016 -13.293   3.849  0.00  0.00    +0.041 A 
ATOM     17 CL   LIG    1       29.474 -12.406   3.647  0.00  0.00    -0.084 Cl
ATOM     18  C   LIG    1       27.400 -13.880   2.750  0.00  0.00    +0.020 A 
ATOM     19  C   LIG    1       26.200 -14.583   2.913  0.00  0.00    +0.010 A 
ENDBRANCH   8  13
ENDBRANCH   1   3
BRANCH   1  23
ATOM     20  C   LIG    1       26.269 -21.005   5.421  0.00  0.00    +0.084 A 
ATOM     21  C   LIG    1       25.346 -20.491   4.493  0.00  0.00    +0.159 A 
ATOM     22  F   LIG    1       25.821 -20.071   3.311  0.00  0.00    -0.203 F 
ATOM     23  C   LIG    1       23.982 -20.424   4.796  0.00  0.00    +0.094 A 
ATOM     24  C   LIG    1       23.589 -20.807   6.080  0.00  0.00    +0.137 A 
ATOM     25  F   LIG    1       22.346 -20.587   6.529  0.00  0.00    -0.205 F 
ATOM     26  C   LIG    1       24.484 -21.399   6.975  0.00  0.00    +0.041 A 
ATOM     27  C   LIG    1       25.829 -21.508   6.643  0.00  0.00    +0.030 A 
BRANCH  20  28
ATOM     28  N   LIG    1       27.682 -20.848   5.213  0.00  0.00    -0.218 N 
ATOM     29  H   LIG    1       27.915 -20.460   4.291  0.00  0.00    +0.173 HD
BRANCH  28  30
ATOM     30  S   LIG    1       28.458 -19.836   6.359  0.00  0.00    +0.043 S 
ATOM     31  O   LIG    1       27.391 -19.150   7.060  0.00  0.00    -0.155 OA
ATOM     32  O   LIG    1       29.475 -20.607   7.061  0.00  0.00    -0.155 OA
BRANCH  30  33
ATOM     33  C   LIG    1       29.272 -18.645   5.299  0.00  0.00    +0.188 C 
BRANCH  33  35
ATOM     34  C   LIG    1       27.585 -17.531   3.785  0.00  0.00    +0.005 C 
ATOM     35  C   LIG    1       28.398 -17.415   5.066  0.00  0.00    +0.021 C 
ENDBRANCH  33  35
ENDBRANCH  30  33
ENDBRANCH  28  30
ENDBRANCH  20  28
ENDBRANCH   1  23
TORSDOF 7
ENDMDL
MODEL 2
REMARK VINA RESULT:       5.5      2.451      5.090
REMARK  Name = *****
REMARK                            x       y       z     vdW  Elec       q    Type
REMARK                         _______ _______ _______ _____ _____    ______ ____
ROOT
ATOM      1  C   LIG    1       24.765 -20.640   4.146  0.00  0.00    +0.201 C 
ATOM      2  O   LIG    1       24.604 -21.572   3.363  0.00  0.00    -0.286 OA
ENDROOT
BRANCH   1   3
ATOM      3  C   LIG    1       26.034 -20.495   4.877  0.00  0.00    +0.049 A 
ATOM      4  C   LIG    1       26.899 -19.342   4.861  0.00  0.00    +0.030 A 
ATOM      5  C   LIG    1       28.034 -19.661   5.592  0.00  0.00    +0.139 A 
ATOM      6  N   LIG    1       29.119 -18.902   5.806  0.00  0.00    -0.237 NA
ATOM      7  C   LIG    1       29.005 -17.665   5.259  0.00  0.00    +0.121 A 
ATOM      8  C   LIG    1       27.917 -17.152   4.542  0.00  0.00    +0.001 A 
ATOM      9  N   LIG    1       27.867 -20.911   6.103  0.00  0.00    -0.345 N 
ATOM     10  H   LIG    1       28.557 -21.375   6.676  0.00  0.00    +0.167 HD
ATOM     11  C   LIG    1       26.852 -18.044   4.309  0.00  0.00    +0.022 A 
ATOM     12  C   LIG    1       26.627 -21.386   5.765  0.00  0.00    +0.097 A 
BRANCH   8  13
ATOM     13  C   LIG    1       27.861 -15.737   4.108  0.00  0.00    -0.016 A 
ATOM     14  C   LIG    1       27.131 -15.355   2.963  0.00  0.00    +0.010 A 
ATOM     15  C   LIG    1       27.125 -14.034   2.502  0.00  0.00    +0.020 A 
ATOM     16  C   LIG    1       27.852 -13.064   3.181  0.00  0.00    +0.041 A 
ATOM     17 CL   LIG    1       27.873 -11.447   2.600  0.00  0.00    -0.084 Cl
ATOM     18  C   LIG    1       28.569 -13.403   4.323  0.00  0.00    +0.020 A 
ATOM     19  C   LIG    1       28.571 -14.726   4.782  0.00  0.00    +0.010 A 
ENDBRANCH   8  13
ENDBRANCH   1   3
BRANCH   1  23
ATOM     20  C   LIG    1       22.776 -17.411   4.067  0.00  0.00    +0.084 A 
ATOM     21  C   LIG    1       23.803 -18.355   3.894  0.00  0.00    +0.159 A 
ATOM     22  F   LIG    1       24.935 -17.941   3.303  0.00  0.00    -0.203 F 
ATOM     23  C   LIG    1       23.646 -19.676   4.323  0.00  0.00    +0.094 A 
ATOM     24  C   LIG    1       22.405 -20.038   4.852  0.00  0.00    +0.137 A 
ATOM     25  F   LIG    1       22.092 -21.317   5.099  0.00  0.00    -0.205 F 
ATOM     26  C   LIG    1       21.413 -19.088   5.108  0.00  0.00    +0.041 A 
ATOM     27  C   LIG    1       21.600 -17.766   4.723  0.00  0.00    +0.030 A 
BRANCH  20  28
ATOM     28  N   LIG    1       22.837 -16.132   3.413  0.00  0.00    -0.218 N 
ATOM     29  H   LIG    1       21.919 -15.795   3.097  0.00  0.00    +0.173 HD
BRANCH  28  30
ATOM     30  S   LIG    1       23.494 -14.875   4.376  0.00  0.00    +0.043 S 
ATOM     31  O   LIG    1       22.497 -14.599   5.392  0.00  0.00    -0.155 OA
ATOM     32  O   LIG    1       24.871 -15.207   4.714  0.00  0.00    -0.155 OA
BRANCH  30  33
ATOM     33  C   LIG    1       23.499 -13.503   3.227  0.00  0.00    +0.188 C 
BRANCH  33  35
ATOM     34  C   LIG    1       23.579 -11.577   4.859  0.00  0.00    +0.005 C 
ATOM     35  C   LIG    1       24.317 -12.329   3.761  0.00  0.00    +0.021 C 
ENDBRANCH  33  35
ENDBRANCH  30  33
ENDBRANCH  28  30
ENDBRANCH  20  28
ENDBRANCH   1  23
TORSDOF 7
ENDMDL
