MODEL 1
REMARK VINA RESULT:       8.1      0.000      0.000
REMARK  Name = *****
REMARK                            x       y       z     vdW  Elec       q    Type
REMARK                         _______ _______ _______ _____ _____    ______ ____
ROOT
ATOM      1  C   LIG    1       24.324 -20.507   5.132  0.00  0.00    -0.046 A 
ATOM      2  C   LIG    1       24.875 -20.595   6.418  0.00  0.00    +0.005 A 
ATOM      3  C   LIG    1       26.223 -20.302   6.630  0.00  0.00    +0.029 A 
ATOM      4  C   LIG    1       27.022 -19.913   5.551  0.00  0.00    +0.113 A 
ATOM      5  C   LIG    1       26.483 -19.795   4.269  0.00  0.00    +0.029 A 
ATOM      6  C   LIG    1       25.136 -20.089   4.065  0.00  0.00    +0.005 A 
ENDROOT
BRANCH   4   7
ATOM      7  S   LIG    1       28.760 -19.615   5.788  0.00  0.00    +0.103 S 
ATOM      8  O   LIG    1       29.443 -20.033   4.579  0.00  0.00    -0.146 OA
ATOM      9  O   LIG    1       29.116 -20.222   7.061  0.00  0.00    -0.146 OA
BRANCH   7  10
ATOM     10  N   LIG    1       28.827 -18.010   5.917  0.00  0.00    -0.076 NA
ATOM     11  C   LIG    1       28.517 -17.213   4.959  0.00  0.00    +0.299 C 
BRANCH  11  12
ATOM     12  N   LIG    1       28.575 -15.860   5.004  0.00  0.00    -0.295 N 
ATOM     13  H   LIG    1       29.182 -15.482   5.721  0.00  0.00    +0.151 HD
BRANCH  12  14
ATOM     14  C   LIG    1       28.166 -14.973   3.933  0.00  0.00    +0.075 C 
ATOM     15  C   LIG    1       28.511 -13.518   4.282  0.00  0.00    +0.022 C 
ATOM     16  C   LIG    1       27.998 -12.551   3.213  0.00  0.00    +0.005 C 
ATOM     17  C   LIG    1       26.488 -12.706   2.997  0.00  0.00    -0.014 C 
ATOM     18  C   LIG    1       25.989 -11.749   1.916  0.00  0.00    +0.007 C 
ATOM     19  C   LIG    1       26.142 -14.158   2.644  0.00  0.00    +0.005 C 
ATOM     20  C   LIG    1       26.659 -15.131   3.703  0.00  0.00    +0.022 C 
ENDBRANCH  12  14
ENDBRANCH  11  12
BRANCH  11  21
ATOM     21  O   LIG    1       28.089 -17.586   3.742  0.00  0.00    -0.481 OA
ATOM     22  H   LIG    1       27.542 -16.896   3.314  0.00  0.00    +0.295 HD
ENDBRANCH  11  21
ENDBRANCH   7  10
ENDBRANCH   4   7
BRANCH   1  23
ATOM     23  C   LIG    1       22.881 -20.885   4.877  0.00  0.00    +0.054 C 
BRANCH  23  24
ATOM     24  C   LIG    1       21.855 -19.982   5.570  0.00  0.00    +0.110 C 
BRANCH  24  30
ATOM     25  C   LIG    1       23.022 -14.458   4.846  0.00  0.00    +0.015 C 
ATOM     26  C   LIG    1       22.629 -15.808   5.314  0.00  0.00    +0.250 C 
ATOM     27  O   LIG    1       22.497 -16.122   6.480  0.00  0.00    -0.270 OA
ATOM     28  N   LIG    1       22.453 -16.609   4.187  0.00  0.00    -0.218 N 
ATOM     29  C   LIG    1       22.199 -17.967   4.145  0.00  0.00    +0.309 C 
ATOM     30  N   LIG    1       22.063 -18.564   5.368  0.00  0.00    -0.299 N 
ATOM     31  H   LIG    1       22.172 -17.970   6.188  0.00  0.00    +0.150 HD
ATOM     32  O   LIG    1       22.141 -18.593   3.088  0.00  0.00    -0.252 OA
ATOM     33  C   LIG    1       22.674 -15.865   2.984  0.00  0.00    +0.149 C 
ATOM     34  C   LIG    1       23.060 -14.518   3.506  0.00  0.00    -0.047 C 
ATOM     35  C   LIG    1       23.441 -13.455   2.536  0.00  0.00    +0.041 C 
BRANCH  25  37
ATOM     36  C   LIG    1       23.959 -12.149   5.151  0.00  0.00    +0.009 C 
ATOM     37  C   LIG    1       23.380 -13.388   5.818  0.00  0.00    +0.037 C 
ENDBRANCH  25  37
ENDBRANCH  24  30
ENDBRANCH  23  24
ENDBRANCH   1  23
TORSDOF 9
ENDMDL
MODEL 2
REMARK VINA RESULT:       9.6      2.884      6.295
REMARK  Name = *****
REMARK                            x       y       z     vdW  Elec       q    Type
REMARK                         _______ _______ _______ _____ _____    ______ ____
ROOT
ATOM      1  C   LIG    1       21.869 -16.371   5.022  0.00  0.00    -0.046 A 
ATOM      2  C   LIG    1       22.724 -16.036   3.964  0.00  0.00    +0.005 A 
ATOM      3  C   LIG    1       23.323 -14.775   3.911  0.00  0.00    +0.029 A 
ATOM      4  C   LIG    1       23.070 -13.849   4.927  0.00  0.00    +0.113 A 
ATOM      5  C   LIG    1       22.242 -14.176   6.001  0.00  0.00    +0.029 A 
ATOM      6  C   LIG    1       21.647 -15.436   6.047  0.00  0.00    +0.005 A 
ENDROOT
BRANCH   4   7
ATOM      7  S   LIG    1       23.759 -12.211   4.834  0.00  0.00    +0.103 S 
ATOM      8  O   LIG    1       23.770 -11.666   6.178  0.00  0.00    -0.146 OA
ATOM      9  O   LIG    1       23.034 -11.514   3.782  0.00  0.00    -0.146 OA
BRANCH   7  10
ATOM     10  N   LIG    1       25.271 -12.493   4.354  0.00  0.00    -0.076 NA
ATOM     11  C   LIG    1       25.644 -12.426   3.127  0.00  0.00    +0.299 C 
BRANCH  11  12
ATOM     12  N   LIG    1       26.893 -12.673   2.664  0.00  0.00    -0.295 N 
ATOM     13  H   LIG    1       27.417 -11.852   2.388  0.00  0.00    +0.151 HD
BRANCH  12  14
ATOM     14  C   LIG    1       27.633 -13.902   2.880  0.00  0.00    +0.075 C 
ATOM     15  C   LIG    1       26.668 -15.080   3.075  0.00  0.00    +0.022 C 
ATOM     16  C   LIG    1       27.423 -16.370   3.404  0.00  0.00    +0.005 C 
ATOM     17  C   LIG    1       28.313 -16.196   4.642  0.00  0.00    -0.014 C 
ATOM     18  C   LIG    1       29.075 -17.483   4.952  0.00  0.00    +0.007 C 
ATOM     19  C   LIG    1       29.280 -15.021   4.446  0.00  0.00    +0.005 C 
ATOM     20  C   LIG    1       28.534 -13.732   4.108  0.00  0.00    +0.022 C 
ENDBRANCH  12  14
ENDBRANCH  11  12
BRANCH  11  21
ATOM     21  O   LIG    1       24.856 -12.105   2.088  0.00  0.00    -0.481 OA
ATOM     22  H   LIG    1       25.342 -11.622   1.389  0.00  0.00    +0.295 HD
ENDBRANCH  11  21
ENDBRANCH   7  10
ENDBRANCH   4   7
BRANCH   1  23
ATOM     23  C   LIG    1       21.162 -17.708   5.057  0.00  0.00    +0.054 C 
BRANCH  23  24
ATOM     24  C   LIG    1       21.640 -18.708   3.998  0.00  0.00    +0.110 C 
BRANCH  24  30
ATOM     25  C   LIG    1       27.010 -20.353   4.919  0.00  0.00    +0.015 C 
ATOM     26  C   LIG    1       25.706 -19.891   4.389  0.00  0.00    +0.250 C 
ATOM     27  O   LIG    1       25.560 -19.292   3.343  0.00  0.00    -0.270 OA
ATOM     28  N   LIG    1       24.724 -20.266   5.305  0.00  0.00    -0.218 N 
ATOM     29  C   LIG    1       23.380 -19.944   5.283  0.00  0.00    +0.309 C 
ATOM     30  N   LIG    1       22.983 -19.209   4.200  0.00  0.00    -0.299 N 
ATOM     31  H   LIG    1       23.700 -18.955   3.524  0.00  0.00    +0.150 HD
ATOM     32  O   LIG    1       22.613 -20.263   6.191  0.00  0.00    -0.252 OA
ATOM     33  C   LIG    1       25.290 -20.984   6.406  0.00  0.00    +0.149 C 
ATOM     34  C   LIG    1       26.751 -20.962   6.086  0.00  0.00    -0.047 C 
ATOM     35  C   LIG    1       27.707 -21.568   7.053  0.00  0.00    +0.041 C 
BRANCH  25  37
ATOM     36  C   LIG    1       29.475 -19.933   5.154  0.00  0.00    +0.009 C 
ATOM     37  C   LIG    1       28.280 -20.021   4.215  0.00  0.00    +0.037 C 
ENDBRANCH  25  37
ENDBRANCH  24  30
ENDBRANCH  23  24
ENDBRANCH   1  23
TORSDOF 9
ENDMDL
MODEL 3
REMARK VINA RESULT:       9.7      2.293      6.097
REMARK  Name = *****
REMARK                            x       y       z     vdW  Elec       q    Type
REMARK                         _______ _______ _______ _____ _____    ______ ____
ROOT
ATOM      1  C   LIG    1       24.353 -13.873   3.768  0.00  0.00    -0.046 A 
ATOM      2  C   LIG    1       25.068 -13.667   2.581  0.00  0.00    +0.005 A 
ATOM      3  C   LIG    1       26.449 -13.465   2.614  0.00  0.00    +0.029 A 
ATOM      4  C   LIG    1       27.118 -13.478   3.841  0.00  0.00    +0.113 A 
ATOM      5  C   LIG    1       26.425 -13.709   5.030  0.00  0.00    +0.029 A 
ATOM      6  C   LIG    1       25.046 -13.909   4.989  0.00  0.00    +0.005 A 
ENDROOT
BRANCH   4   7
ATOM      7  S   LIG    1       28.864 -13.142   3.910  0.00  0.00    +0.103 S 
ATOM      8  O   LIG    1       29.065 -12.072   4.869  0.00  0.00    -0.146 OA
ATOM      9  O   LIG    1       29.309 -12.967   2.536  0.00  0.00    -0.146 OA
BRANCH   7  10
ATOM     10  N   LIG    1       29.463 -14.516   4.502  0.00  0.00    -0.076 NA
ATOM     11  C   LIG    1       28.895 -15.657   4.343  0.00  0.00    +0.299 C 
BRANCH  11  12
ATOM     12  N   LIG    1       29.341 -16.838   4.835  0.00  0.00    -0.295 N 
ATOM     13  H   LIG    1       30.348 -16.915   4.917  0.00  0.00    +0.151 HD
BRANCH  12  14
ATOM     14  C   LIG    1       28.532 -17.794   5.568  0.00  0.00    +0.075 C 
ATOM     15  C   LIG    1       29.381 -19.004   5.985  0.00  0.00    +0.022 C 
ATOM     16  C   LIG    1       28.527 -20.073   6.670  0.00  0.00    +0.005 C 
ATOM     17  C   LIG    1       27.363 -20.517   5.776  0.00  0.00    -0.014 C 
ATOM     18  C   LIG    1       26.507 -21.572   6.476  0.00  0.00    +0.007 C 
ATOM     19  C   LIG    1       26.513 -19.309   5.362  0.00  0.00    +0.005 C 
ATOM     20  C   LIG    1       27.359 -18.234   4.685  0.00  0.00    +0.022 C 
ENDBRANCH  12  14
ENDBRANCH  11  12
BRANCH  11  21
ATOM     21  O   LIG    1       27.757 -15.874   3.666  0.00  0.00    -0.481 OA
ATOM     22  H   LIG    1       27.819 -16.654   3.077  0.00  0.00    +0.295 HD
ENDBRANCH  11  21
ENDBRANCH   7  10
ENDBRANCH   4   7
BRANCH   1  23
ATOM     23  C   LIG    1       22.848 -14.028   3.752  0.00  0.00    +0.054 C 
BRANCH  23  24
ATOM     24  C   LIG    1       22.276 -14.808   4.941  0.00  0.00    +0.110 C 
BRANCH  24  30
ATOM     25  C   LIG    1       23.117 -20.435   4.784  0.00  0.00    +0.015 C 
ATOM     26  C   LIG    1       22.837 -19.020   5.121  0.00  0.00    +0.250 C 
ATOM     27  O   LIG    1       22.220 -18.653   6.101  0.00  0.00    -0.270 OA
ATOM     28  N   LIG    1       23.400 -18.230   4.120  0.00  0.00    -0.218 N 
ATOM     29  C   LIG    1       23.289 -16.861   3.958  0.00  0.00    +0.309 C 
ATOM     30  N   LIG    1       22.574 -16.224   4.935  0.00  0.00    -0.299 N 
ATOM     31  H   LIG    1       22.181 -16.803   5.675  0.00  0.00    +0.150 HD
ATOM     32  O   LIG    1       23.763 -16.273   2.988  0.00  0.00    -0.252 OA
ATOM     33  C   LIG    1       24.074 -19.032   3.145  0.00  0.00    +0.149 C 
ATOM     34  C   LIG    1       23.813 -20.420   3.636  0.00  0.00    -0.047 C 
ATOM     35  C   LIG    1       24.308 -21.572   2.833  0.00  0.00    +0.041 C 
BRANCH  25  37
ATOM     36  C   LIG    1       23.024 -21.488   7.061  0.00  0.00    +0.009 C 
ATOM     37  C   LIG    1       22.562 -21.541   5.613  0.00  0.00    +0.037 C 
ENDBRANCH  25  37
ENDBRANCH  24  30
ENDBRANCH  23  24
ENDBRANCH   1  23
TORSDOF 9
ENDMDL
MODEL 4
REMARK VINA RESULT:      10.3      1.308      2.080
REMARK  Name = *****
REMARK                            x       y       z     vdW  Elec       q    Type
REMARK                         _______ _______ _______ _____ _____    ______ ____
ROOT
ATOM      1  C   LIG    1       23.818 -19.927   4.825  0.00  0.00    -0.046 A 
ATOM      2  C   LIG    1       24.304 -20.070   6.132  0.00  0.00    +0.005 A 
ATOM      3  C   LIG    1       25.676 -20.022   6.386  0.00  0.00    +0.029 A 
ATOM      4  C   LIG    1       26.565 -19.822   5.326  0.00  0.00    +0.113 A 
ATOM      5  C   LIG    1       26.098 -19.651   4.023  0.00  0.00    +0.029 A 
ATOM      6  C   LIG    1       24.726 -19.701   3.777  0.00  0.00    +0.005 A 
ENDROOT
BRANCH   4   7
ATOM      7  S   LIG    1       28.321 -19.839   5.619  0.00  0.00    +0.103 S 
ATOM      8  O   LIG    1       28.895 -20.864   4.767  0.00  0.00    -0.146 OA
ATOM      9  O   LIG    1       28.502 -19.919   7.060  0.00  0.00    -0.146 OA
BRANCH   7  10
ATOM     10  N   LIG    1       28.778 -18.385   5.095  0.00  0.00    -0.076 NA
ATOM     11  C   LIG    1       28.095 -17.691   4.258  0.00  0.00    +0.299 C 
BRANCH  11  12
ATOM     12  N   LIG    1       28.441 -16.477   3.769  0.00  0.00    -0.295 N 
ATOM     13  H   LIG    1       29.070 -16.499   2.975  0.00  0.00    +0.151 HD
BRANCH  12  14
ATOM     14  C   LIG    1       27.728 -15.240   4.028  0.00  0.00    +0.075 C 
ATOM     15  C   LIG    1       28.656 -14.035   3.821  0.00  0.00    +0.022 C 
ATOM     16  C   LIG    1       27.956 -12.724   4.186  0.00  0.00    +0.005 C 
ATOM     17  C   LIG    1       27.429 -12.754   5.627  0.00  0.00    -0.014 C 
ATOM     18  C   LIG    1       26.718 -11.447   5.976  0.00  0.00    +0.007 C 
ATOM     19  C   LIG    1       26.499 -13.956   5.833  0.00  0.00    +0.005 C 
ATOM     20  C   LIG    1       27.188 -15.268   5.462  0.00  0.00    +0.022 C 
ENDBRANCH  12  14
ENDBRANCH  11  12
BRANCH  11  21
ATOM     21  O   LIG    1       26.921 -18.055   3.719  0.00  0.00    -0.481 OA
ATOM     22  H   LIG    1       26.292 -17.307   3.660  0.00  0.00    +0.295 HD
ENDBRANCH  11  21
ENDBRANCH   7  10
ENDBRANCH   4   7
BRANCH   1  23
ATOM     23  C   LIG    1       22.339 -20.042   4.528  0.00  0.00    +0.054 C 
BRANCH  23  24
ATOM     24  C   LIG    1       21.558 -18.731   4.667  0.00  0.00    +0.110 C 
BRANCH  24  30
ATOM     25  C   LIG    1       24.399 -13.964   3.402  0.00  0.00    +0.015 C 
ATOM     26  C   LIG    1       23.893 -15.344   3.588  0.00  0.00    +0.250 C 
ATOM     27  O   LIG    1       24.251 -16.304   2.937  0.00  0.00    -0.270 OA
ATOM     28  N   LIG    1       22.956 -15.311   4.620  0.00  0.00    -0.218 N 
ATOM     29  C   LIG    1       22.144 -16.341   5.059  0.00  0.00    +0.309 C 
ATOM     30  N   LIG    1       22.334 -17.534   4.418  0.00  0.00    -0.299 N 
ATOM     31  H   LIG    1       23.034 -17.558   3.679  0.00  0.00    +0.150 HD
ATOM     32  O   LIG    1       21.290 -16.180   5.929  0.00  0.00    -0.252 OA
ATOM     33  C   LIG    1       22.828 -13.992   5.162  0.00  0.00    +0.149 C 
ATOM     34  C   LIG    1       23.761 -13.201   4.304  0.00  0.00    -0.047 C 
ATOM     35  C   LIG    1       23.862 -11.731   4.517  0.00  0.00    +0.041 C 
BRANCH  25  37
ATOM     36  C   LIG    1       25.476 -12.148   2.043  0.00  0.00    +0.009 C 
ATOM     37  C   LIG    1       25.351 -13.643   2.302  0.00  0.00    +0.037 C 
ENDBRANCH  25  37
ENDBRANCH  24  30
ENDBRANCH  23  24
ENDBRANCH   1  23
TORSDOF 9
ENDMDL
MODEL 5
REMARK VINA RESULT:      10.9      2.471      7.439
REMARK  Name = *****
REMARK                            x       y       z     vdW  Elec       q    Type
REMARK                         _______ _______ _______ _____ _____    ______ ____
ROOT
ATOM      1  C   LIG    1       27.813 -14.710   4.126  0.00  0.00    -0.046 A 
ATOM      2  C   LIG    1       27.166 -14.624   5.366  0.00  0.00    +0.005 A 
ATOM      3  C   LIG    1       25.966 -13.922   5.489  0.00  0.00    +0.029 A 
ATOM      4  C   LIG    1       25.408 -13.308   4.364  0.00  0.00    +0.113 A 
ATOM      5  C   LIG    1       26.026 -13.406   3.117  0.00  0.00    +0.029 A 
ATOM      6  C   LIG    1       27.224 -14.110   3.001  0.00  0.00    +0.005 A 
ENDROOT
BRANCH   4   7
ATOM      7  S   LIG    1       23.922 -12.341   4.518  0.00  0.00    +0.103 S 
ATOM      8  O   LIG    1       23.625 -11.787   3.211  0.00  0.00    -0.146 OA
ATOM      9  O   LIG    1       24.124 -11.447   5.648  0.00  0.00    -0.146 OA
BRANCH   7  10
ATOM     10  N   LIG    1       22.818 -13.451   4.897  0.00  0.00    -0.076 NA
ATOM     11  C   LIG    1       22.948 -14.698   4.617  0.00  0.00    +0.299 C 
BRANCH  11  12
ATOM     12  N   LIG    1       22.045 -15.669   4.892  0.00  0.00    -0.295 N 
ATOM     13  H   LIG    1       21.137 -15.336   5.192  0.00  0.00    +0.151 HD
BRANCH  12  14
ATOM     14  C   LIG    1       22.143 -17.047   4.450  0.00  0.00    +0.075 C 
ATOM     15  C   LIG    1       20.828 -17.494   3.796  0.00  0.00    +0.022 C 
ATOM     16  C   LIG    1       20.872 -18.975   3.414  0.00  0.00    +0.005 C 
ATOM     17  C   LIG    1       21.193 -19.857   4.627  0.00  0.00    -0.014 C 
ATOM     18  C   LIG    1       21.251 -21.332   4.231  0.00  0.00    +0.007 C 
ATOM     19  C   LIG    1       22.509 -19.413   5.279  0.00  0.00    +0.005 C 
ATOM     20  C   LIG    1       22.476 -17.933   5.656  0.00  0.00    +0.022 C 
ENDBRANCH  12  14
ENDBRANCH  11  12
BRANCH  11  21
ATOM     21  O   LIG    1       24.002 -15.252   3.996  0.00  0.00    -0.481 OA
ATOM     22  H   LIG    1       24.692 -14.592   3.779  0.00  0.00    +0.295 HD
ENDBRANCH  11  21
ENDBRANCH   7  10
ENDBRANCH   4   7
BRANCH   1  23
ATOM     23  C   LIG    1       29.147 -15.412   3.992  0.00  0.00    +0.054 C 
BRANCH  23  24
ATOM     24  C   LIG    1       29.467 -16.391   5.127  0.00  0.00    +0.110 C 
BRANCH  24  30
ATOM     25  C   LIG    1       25.808 -20.728   5.575  0.00  0.00    +0.015 C 
ATOM     26  C   LIG    1       26.900 -19.734   5.696  0.00  0.00    +0.250 C 
ATOM     27  O   LIG    1       27.585 -19.579   6.687  0.00  0.00    -0.270 OA
ATOM     28  N   LIG    1       26.972 -19.040   4.490  0.00  0.00    -0.218 N 
ATOM     29  C   LIG    1       27.762 -17.946   4.187  0.00  0.00    +0.309 C 
ATOM     30  N   LIG    1       28.597 -17.546   5.195  0.00  0.00    -0.299 N 
ATOM     31  H   LIG    1       28.555 -18.069   6.067  0.00  0.00    +0.150 HD
ATOM     32  O   LIG    1       27.687 -17.358   3.110  0.00  0.00    -0.252 OA
ATOM     33  C   LIG    1       26.011 -19.534   3.550  0.00  0.00    +0.149 C 
ATOM     34  C   LIG    1       25.299 -20.584   4.342  0.00  0.00    -0.047 C 
ATOM     35  C   LIG    1       24.155 -21.302   3.717  0.00  0.00    +0.041 C 
BRANCH  25  37
ATOM     36  C   LIG    1       23.927 -21.475   7.061  0.00  0.00    +0.009 C 
ATOM     37  C   LIG    1       25.411 -21.570   6.738  0.00  0.00    +0.037 C 
ENDBRANCH  25  37
ENDBRANCH  24  30
ENDBRANCH  23  24
ENDBRANCH   1  23
TORSDOF 9
ENDMDL
