MODEL 1
REMARK VINA RESULT:      60.2      0.000      0.000
REMARK  Name = *****
REMARK                            x       y       z     vdW  Elec       q    Type
REMARK                         _______ _______ _______ _____ _____    ______ ____
ROOT
ATOM      1  C   LIG    1       22.764 -13.724   6.453  0.00  0.00    +0.264 C 
ATOM      2  C   LIG    1       21.793 -14.920   6.153  0.00  0.00    +0.257 C 
ATOM      3  O   LIG    1       20.576 -14.843   6.318  0.00  0.00    -0.272 OA
ATOM      4  N   LIG    1       22.382 -16.103   5.681  0.00  0.00    -0.288 N 
ATOM      5  C   LIG    1       23.285 -16.714   6.644  0.00  0.00    +0.133 C 
ATOM      6  C   LIG    1       21.528 -17.005   4.815  0.00  0.00    +0.187 C 
ATOM      7  C   LIG    1       21.996 -18.516   4.684  0.00  0.00    +0.329 C 
ATOM      8  O   LIG    1       22.051 -19.127   3.647  0.00  0.00    -0.249 OA
ATOM      9  O   LIG    1       22.277 -19.111   5.869  0.00  0.00    -0.450 OA
ATOM     10  C   LIG    1       22.808 -20.445   5.816  0.00  0.00    +0.264 C 
ATOM     11  C   LIG    1       24.118 -20.574   4.932  0.00  0.00    +0.257 C 
ATOM     12  O   LIG    1       24.382 -21.572   4.261  0.00  0.00    -0.272 OA
ATOM     13  N   LIG    1       25.054 -19.512   5.037  0.00  0.00    -0.288 N 
ATOM     14  C   LIG    1       25.692 -19.515   6.352  0.00  0.00    +0.133 C 
ATOM     15  C   LIG    1       26.001 -19.323   3.859  0.00  0.00    +0.187 C 
ATOM     16  C   LIG    1       27.015 -18.121   3.918  0.00  0.00    +0.329 C 
ATOM     17  O   LIG    1       27.929 -17.993   3.120  0.00  0.00    -0.249 OA
ATOM     18  O   LIG    1       26.804 -17.266   4.956  0.00  0.00    -0.450 OA
ATOM     19  C   LIG    1       27.847 -16.339   5.348  0.00  0.00    +0.264 C 
ATOM     20  C   LIG    1       28.016 -15.065   4.471  0.00  0.00    +0.257 C 
ATOM     21  O   LIG    1       28.766 -15.046   3.495  0.00  0.00    -0.272 OA
ATOM     22  N   LIG    1       27.489 -13.874   4.997  0.00  0.00    -0.288 N 
ATOM     23  C   LIG    1       28.458 -12.789   5.082  0.00  0.00    +0.133 C 
ATOM     24  C   LIG    1       26.095 -13.431   4.680  0.00  0.00    +0.187 C 
ATOM     25  C   LIG    1       25.068 -13.932   5.733  0.00  0.00    +0.329 C 
ATOM     26  O   LIG    1       25.394 -14.489   6.778  0.00  0.00    -0.249 OA
ATOM     27  O   LIG    1       23.787 -13.543   5.439  0.00  0.00    -0.450 OA
ENDROOT
BRANCH   1  29
ATOM     28  C   LIG    1       21.996 -11.554   5.328  0.00  0.00    +0.011 C 
ATOM     29  C   LIG    1       21.945 -12.401   6.603  0.00  0.00    +0.033 C 
ATOM     30  C   LIG    1       20.474 -12.624   6.978  0.00  0.00    +0.011 C 
ENDBRANCH   1  29
BRANCH   6  31
ATOM     31  C   LIG    1       21.315 -16.405   3.358  0.00  0.00    +0.014 C 
ATOM     32  C   LIG    1       22.519 -15.587   2.861  0.00  0.00    +0.009 C 
ATOM     33  C   LIG    1       21.007 -17.425   2.253  0.00  0.00    +0.009 C 
ENDBRANCH   6  31
BRANCH  10  34
ATOM     34  C   LIG    1       21.717 -21.510   5.484  0.00  0.00    +0.033 C 
ATOM     35  C   LIG    1       20.608 -21.537   6.545  0.00  0.00    +0.011 C 
ATOM     36  C   LIG    1       21.053 -21.286   4.115  0.00  0.00    +0.011 C 
ENDBRANCH  10  34
BRANCH  15  37
ATOM     37  C   LIG    1       25.268 -19.315   2.466  0.00  0.00    +0.014 C 
ATOM     38  C   LIG    1       24.699 -20.671   2.088  0.00  0.00    +0.009 C 
ATOM     39  C   LIG    1       24.128 -18.292   2.346  0.00  0.00    +0.009 C 
ENDBRANCH  15  37
BRANCH  19  40
ATOM     40  C   LIG    1       29.249 -17.019   5.546  0.00  0.00    +0.033 C 
ATOM     41  C   LIG    1       29.475 -17.475   6.993  0.00  0.00    +0.011 C 
ATOM     42  C   LIG    1       29.475 -18.207   4.609  0.00  0.00    +0.011 C 
ENDBRANCH  19  40
BRANCH  24  43
ATOM     43  C   LIG    1       25.651 -13.573   3.200  0.00  0.00    +0.014 C 
ATOM     44  C   LIG    1       25.404 -15.021   2.753  0.00  0.00    +0.009 C 
ATOM     45  C   LIG    1       24.445 -12.724   2.850  0.00  0.00    +0.009 C 
ENDBRANCH  24  43
TORSDOF 6
ENDMDL
