MODEL 1
REMARK VINA RESULT:      -4.9      0.000      0.000
REMARK  Name = *****
REMARK                            x       y       z     vdW  Elec       q    Type
REMARK                         _______ _______ _______ _____ _____    ______ ____
ROOT
ATOM      1  C   LIG    1       25.627 -13.825   3.431  0.00  0.00    +0.077 A 
ATOM      2  C   LIG    1       25.414 -13.248   2.186  0.00  0.00    +0.125 A 
ATOM      3  N   LIG    1       24.546 -12.228   1.962  0.00  0.00    -0.262 NA
ATOM      4  C   LIG    1       23.862 -11.766   3.031  0.00  0.00    +0.111 A 
ATOM      5  C   LIG    1       24.001 -12.276   4.312  0.00  0.00    +0.020 A 
ATOM      6  C   LIG    1       24.898 -13.323   4.514  0.00  0.00    +0.018 A 
ENDROOT
BRANCH   1   7
ATOM      7  C   LIG    1       26.620 -14.918   3.544  0.00  0.00    +0.340 C 
ATOM      8  O   LIG    1       26.486 -16.007   3.013  0.00  0.00    -0.245 OA
BRANCH   7  10
ATOM      9  C   LIG    1       28.452 -13.463   3.729  0.00  0.00    +0.280 C 
ATOM     10  O   LIG    1       27.672 -14.517   4.299  0.00  0.00    -0.464 OA
ENDBRANCH   7  10
ENDBRANCH   1   7
TORSDOF 2
ENDMDL
MODEL 2
REMARK VINA RESULT:      -4.9      0.893      1.522
REMARK  Name = *****
REMARK                            x       y       z     vdW  Elec       q    Type
REMARK                         _______ _______ _______ _____ _____    ______ ____
ROOT
ATOM      1  C   LIG    1       25.700 -13.745   3.373  0.00  0.00    +0.077 A 
ATOM      2  C   LIG    1       24.998 -13.294   4.483  0.00  0.00    +0.125 A 
ATOM      3  N   LIG    1       24.064 -12.309   4.440  0.00  0.00    -0.262 NA
ATOM      4  C   LIG    1       23.824 -11.752   3.234  0.00  0.00    +0.111 A 
ATOM      5  C   LIG    1       24.474 -12.128   2.069  0.00  0.00    +0.020 A 
ATOM      6  C   LIG    1       25.428 -13.142   2.141  0.00  0.00    +0.018 A 
ENDROOT
BRANCH   1   7
ATOM      7  C   LIG    1       26.678 -14.843   3.553  0.00  0.00    +0.340 C 
ATOM      8  O   LIG    1       26.543 -15.953   3.066  0.00  0.00    -0.245 OA
BRANCH   7  10
ATOM      9  C   LIG    1       28.506 -13.381   3.727  0.00  0.00    +0.280 C 
ATOM     10  O   LIG    1       27.718 -14.421   4.312  0.00  0.00    -0.464 OA
ENDBRANCH   7  10
ENDBRANCH   1   7
TORSDOF 2
ENDMDL
MODEL 3
REMARK VINA RESULT:      -4.8      6.769      7.286
REMARK  Name = *****
REMARK                            x       y       z     vdW  Elec       q    Type
REMARK                         _______ _______ _______ _____ _____    ______ ____
ROOT
ATOM      1  C   LIG    1       25.400 -20.509   5.801  0.00  0.00    +0.077 A 
ATOM      2  C   LIG    1       25.138 -20.046   4.518  0.00  0.00    +0.125 A 
ATOM      3  N   LIG    1       23.891 -19.821   4.033  0.00  0.00    -0.262 NA
ATOM      4  C   LIG    1       22.859 -20.070   4.869  0.00  0.00    +0.111 A 
ATOM      5  C   LIG    1       23.015 -20.537   6.164  0.00  0.00    +0.020 A 
ATOM      6  C   LIG    1       24.307 -20.760   6.637  0.00  0.00    +0.018 A 
ENDROOT
BRANCH   1   7
ATOM      7  C   LIG    1       26.811 -20.692   6.213  0.00  0.00    +0.340 C 
ATOM      8  O   LIG    1       27.167 -21.496   7.057  0.00  0.00    -0.245 OA
BRANCH   7  10
ATOM      9  C   LIG    1       28.851 -19.533   6.154  0.00  0.00    +0.280 C 
ATOM     10  O   LIG    1       27.613 -19.854   5.512  0.00  0.00    -0.464 OA
ENDBRANCH   7  10
ENDBRANCH   1   7
TORSDOF 2
ENDMDL
MODEL 4
REMARK VINA RESULT:      -4.6      6.937      7.513
REMARK  Name = *****
REMARK                            x       y       z     vdW  Elec       q    Type
REMARK                         _______ _______ _______ _____ _____    ______ ____
ROOT
ATOM      1  C   LIG    1       25.537 -20.512   5.765  0.00  0.00    +0.077 A 
ATOM      2  C   LIG    1       24.485 -20.794   6.627  0.00  0.00    +0.125 A 
ATOM      3  N   LIG    1       23.176 -20.664   6.293  0.00  0.00    -0.262 NA
ATOM      4  C   LIG    1       22.908 -20.232   5.041  0.00  0.00    +0.111 A 
ATOM      5  C   LIG    1       23.886 -19.920   4.110  0.00  0.00    +0.020 A 
ATOM      6  C   LIG    1       25.223 -20.063   4.479  0.00  0.00    +0.018 A 
ENDROOT
BRANCH   1   7
ATOM      7  C   LIG    1       26.922 -20.717   6.249  0.00  0.00    +0.340 C 
ATOM      8  O   LIG    1       27.233 -21.572   7.062  0.00  0.00    -0.245 OA
BRANCH   7  10
ATOM      9  C   LIG    1       29.005 -19.638   6.327  0.00  0.00    +0.280 C 
ATOM     10  O   LIG    1       27.761 -19.837   5.650  0.00  0.00    -0.464 OA
ENDBRANCH   7  10
ENDBRANCH   1   7
TORSDOF 2
ENDMDL
MODEL 5
REMARK VINA RESULT:      -4.6      2.257      3.500
REMARK  Name = *****
REMARK                            x       y       z     vdW  Elec       q    Type
REMARK                         _______ _______ _______ _____ _____    ______ ____
ROOT
ATOM      1  C   LIG    1       25.541 -13.794   3.869  0.00  0.00    +0.077 A 
ATOM      2  C   LIG    1       26.315 -14.006   2.734  0.00  0.00    +0.125 A 
ATOM      3  N   LIG    1       27.669 -13.924   2.715  0.00  0.00    -0.262 NA
ATOM      4  C   LIG    1       28.277 -13.617   3.881  0.00  0.00    +0.111 A 
ATOM      5  C   LIG    1       27.595 -13.383   5.065  0.00  0.00    +0.020 A 
ATOM      6  C   LIG    1       26.204 -13.473   5.058  0.00  0.00    +0.018 A 
ENDROOT
BRANCH   1   7
ATOM      7  C   LIG    1       24.071 -13.935   3.759  0.00  0.00    +0.340 C 
ATOM      8  O   LIG    1       23.426 -14.765   4.377  0.00  0.00    -0.245 OA
BRANCH   7  10
ATOM      9  C   LIG    1       23.729 -11.656   3.317  0.00  0.00    +0.280 C 
ATOM     10  O   LIG    1       23.577 -13.014   2.896  0.00  0.00    -0.464 OA
ENDBRANCH   7  10
ENDBRANCH   1   7
TORSDOF 2
ENDMDL
MODEL 6
REMARK VINA RESULT:      -4.4      1.198      2.309
REMARK  Name = *****
REMARK                            x       y       z     vdW  Elec       q    Type
REMARK                         _______ _______ _______ _____ _____    ______ ____
ROOT
ATOM      1  C   LIG    1       25.657 -13.822   3.340  0.00  0.00    +0.077 A 
ATOM      2  C   LIG    1       24.954 -13.434   4.474  0.00  0.00    +0.125 A 
ATOM      3  N   LIG    1       24.058 -12.416   4.499  0.00  0.00    -0.262 NA
ATOM      4  C   LIG    1       23.856 -11.755   3.338  0.00  0.00    +0.111 A 
ATOM      5  C   LIG    1       24.510 -12.062   2.155  0.00  0.00    +0.020 A 
ATOM      6  C   LIG    1       25.425 -13.112   2.158  0.00  0.00    +0.018 A 
ENDROOT
BRANCH   1   7
ATOM      7  C   LIG    1       26.592 -14.966   3.444  0.00  0.00    +0.340 C 
ATOM      8  O   LIG    1       27.644 -14.924   4.058  0.00  0.00    -0.245 OA
BRANCH   7  10
ATOM      9  C   LIG    1       26.292 -17.294   3.424  0.00  0.00    +0.280 C 
ATOM     10  O   LIG    1       26.095 -16.035   2.774  0.00  0.00    -0.464 OA
ENDBRANCH   7  10
ENDBRANCH   1   7
TORSDOF 2
ENDMDL
MODEL 7
REMARK VINA RESULT:      -4.4      6.750      7.967
REMARK  Name = *****
REMARK                            x       y       z     vdW  Elec       q    Type
REMARK                         _______ _______ _______ _____ _____    ______ ____
ROOT
ATOM      1  C   LIG    1       24.167 -20.353   5.584  0.00  0.00    +0.077 A 
ATOM      2  C   LIG    1       25.117 -20.000   4.635  0.00  0.00    +0.125 A 
ATOM      3  N   LIG    1       26.457 -20.074   4.840  0.00  0.00    -0.262 NA
ATOM      4  C   LIG    1       26.863 -20.522   6.048  0.00  0.00    +0.111 A 
ATOM      5  C   LIG    1       25.994 -20.894   7.062  0.00  0.00    +0.020 A 
ATOM      6  C   LIG    1       24.624 -20.808   6.825  0.00  0.00    +0.018 A 
ENDROOT
BRANCH   1   7
ATOM      7  C   LIG    1       22.734 -20.245   5.224  0.00  0.00    +0.340 C 
ATOM      8  O   LIG    1       22.027 -21.207   4.976  0.00  0.00    -0.245 OA
BRANCH   7  10
ATOM      9  C   LIG    1       21.632 -18.529   4.063  0.00  0.00    +0.280 C 
ATOM     10  O   LIG    1       22.349 -18.945   5.228  0.00  0.00    -0.464 OA
ENDBRANCH   7  10
ENDBRANCH   1   7
TORSDOF 2
ENDMDL
MODEL 8
REMARK VINA RESULT:      -4.2      7.126      8.186
REMARK  Name = *****
REMARK                            x       y       z     vdW  Elec       q    Type
REMARK                         _______ _______ _______ _____ _____    ______ ____
ROOT
ATOM      1  C   LIG    1       25.399 -20.614   5.306  0.00  0.00    +0.077 A 
ATOM      2  C   LIG    1       25.662 -21.450   6.384  0.00  0.00    +0.125 A 
ATOM      3  N   LIG    1       26.837 -21.465   7.062  0.00  0.00    -0.262 NA
ATOM      4  C   LIG    1       27.792 -20.606   6.643  0.00  0.00    +0.111 A 
ATOM      5  C   LIG    1       27.629 -19.736   5.576  0.00  0.00    +0.020 A 
ATOM      6  C   LIG    1       26.412 -19.741   4.897  0.00  0.00    +0.018 A 
ENDROOT
BRANCH   1   7
ATOM      7  C   LIG    1       24.064 -20.683   4.666  0.00  0.00    +0.340 C 
ATOM      8  O   LIG    1       23.860 -21.216   3.589  0.00  0.00    -0.245 OA
BRANCH   7  10
ATOM      9  C   LIG    1       22.356 -19.080   4.807  0.00  0.00    +0.280 C 
ATOM     10  O   LIG    1       23.138 -20.086   5.456  0.00  0.00    -0.464 OA
ENDBRANCH   7  10
ENDBRANCH   1   7
TORSDOF 2
ENDMDL
MODEL 9
REMARK VINA RESULT:      -4.2      2.577      3.895
REMARK  Name = *****
REMARK                            x       y       z     vdW  Elec       q    Type
REMARK                         _______ _______ _______ _____ _____    ______ ____
ROOT
ATOM      1  C   LIG    1       25.406 -13.583   3.923  0.00  0.00    +0.077 A 
ATOM      2  C   LIG    1       25.133 -14.841   3.401  0.00  0.00    +0.125 A 
ATOM      3  N   LIG    1       26.052 -15.835   3.297  0.00  0.00    -0.262 NA
ATOM      4  C   LIG    1       27.299 -15.557   3.734  0.00  0.00    +0.111 A 
ATOM      5  C   LIG    1       27.673 -14.333   4.266  0.00  0.00    +0.020 A 
ATOM      6  C   LIG    1       26.710 -13.330   4.362  0.00  0.00    +0.018 A 
ENDROOT
BRANCH   1   7
ATOM      7  C   LIG    1       24.306 -12.595   4.001  0.00  0.00    +0.340 C 
ATOM      8  O   LIG    1       23.985 -12.023   5.028  0.00  0.00    -0.245 OA
BRANCH   7  10
ATOM      9  C   LIG    1       24.428 -11.516   1.920  0.00  0.00    +0.280 C 
ATOM     10  O   LIG    1       23.741 -12.429   2.779  0.00  0.00    -0.464 OA
ENDBRANCH   7  10
ENDBRANCH   1   7
TORSDOF 2
ENDMDL
