MODEL 1
REMARK VINA RESULT:      -7.6      0.000      0.000
REMARK  Name = *****
REMARK                            x       y       z     vdW  Elec       q    Type
REMARK                         _______ _______ _______ _____ _____    ______ ____
ROOT
ATOM      1  C   LIG    1       29.791 -19.962   6.388  0.00  0.00    +0.075 C 
ENDROOT
BRANCH   1   6
ATOM      2  C   LIG    1       26.545 -21.890   7.032  0.00  0.00    +0.165 A 
ATOM      3  C   LIG    1       25.650 -21.215   6.163  0.00  0.00    +0.203 A 
ATOM      4  C   LIG    1       26.125 -20.157   5.362  0.00  0.00    +0.165 A 
ATOM      5  C   LIG    1       27.471 -19.788   5.459  0.00  0.00    +0.053 A 
ATOM      6  C   LIG    1       28.351 -20.425   6.342  0.00  0.00    -0.036 A 
ATOM      7  C   LIG    1       27.883 -21.482   7.127  0.00  0.00    +0.053 A 
BRANCH   2   9
ATOM      8  C   LIG    1       25.862 -24.180   7.141  0.00  0.00    +0.277 C 
ATOM      9  O   LIG    1       26.024 -22.918   7.784  0.00  0.00    -0.491 OA
ENDBRANCH   2   9
BRANCH   3  10
ATOM     10  O   LIG    1       24.339 -21.629   6.253  0.00  0.00    -0.488 OA
ATOM     11  C   LIG    1       23.430 -20.839   7.007  0.00  0.00    +0.277 C 
ENDBRANCH   3  10
BRANCH   4  12
ATOM     12  O   LIG    1       25.257 -19.497   4.533  0.00  0.00    -0.491 OA
ATOM     13  C   LIG    1       24.793 -20.178   3.371  0.00  0.00    +0.277 C 
ENDBRANCH   4  12
ENDBRANCH   1   6
BRANCH   1  14
ATOM     14  C   LIG    1       30.224 -19.332   7.684  0.00  0.00    +0.015 A 
ATOM     15  C   LIG    1       30.996 -20.004   8.611  0.00  0.00    +0.125 A 
ATOM     16  N   LIG    1       31.328 -19.492   9.808  0.00  0.00    -0.200 NA
ATOM     17  C   LIG    1       30.855 -18.280  10.097  0.00  0.00    +0.214 A 
ATOM     18  N   LIG    1       30.110 -17.536   9.291  0.00  0.00    -0.223 NA
ATOM     19  C   LIG    1       29.792 -18.089   8.102  0.00  0.00    +0.121 A 
BRANCH  15  20
ATOM     20  N   LIG    1       31.477 -21.293   8.374  0.00  0.00    -0.343 N 
ATOM     21  H   LIG    1       31.937 -21.362   7.475  0.00  0.00    +0.144 HD
ATOM     22  H   LIG    1       32.128 -21.502   9.129  0.00  0.00    +0.144 HD
ENDBRANCH  15  20
BRANCH  17  23
ATOM     23  N   LIG    1       31.217 -17.725  11.313  0.00  0.00    -0.327 N 
ATOM     24  H   LIG    1       30.549 -17.018  11.575  0.00  0.00    +0.145 HD
ATOM     25  H   LIG    1       31.396 -18.466  11.975  0.00  0.00    +0.145 HD
ENDBRANCH  17  23
ENDBRANCH   1  14
TORSDOF 7
ENDMDL
MODEL 2
REMARK VINA RESULT:      -7.5      0.536      2.655
REMARK  Name = *****
REMARK                            x       y       z     vdW  Elec       q    Type
REMARK                         _______ _______ _______ _____ _____    ______ ____
ROOT
ATOM      1  C   LIG    1       29.862 -19.835   6.303  0.00  0.00    +0.075 C 
ENDROOT
BRANCH   1   6
ATOM      2  C   LIG    1       26.219 -19.997   5.132  0.00  0.00    +0.165 A 
ATOM      3  C   LIG    1       25.694 -20.980   6.010  0.00  0.00    +0.203 A 
ATOM      4  C   LIG    1       26.531 -21.558   6.986  0.00  0.00    +0.165 A 
ATOM      5  C   LIG    1       27.869 -21.155   7.052  0.00  0.00    +0.053 A 
ATOM      6  C   LIG    1       28.403 -20.213   6.165  0.00  0.00    -0.036 A 
ATOM      7  C   LIG    1       27.570 -19.631   5.205  0.00  0.00    +0.053 A 
BRANCH   2   9
ATOM      8  C   LIG    1       25.793 -18.323   3.477  0.00  0.00    +0.277 C 
ATOM      9  O   LIG    1       25.351 -19.465   4.206  0.00  0.00    -0.491 OA
ENDBRANCH   2   9
BRANCH   3  10
ATOM     10  O   LIG    1       24.388 -21.340   5.756  0.00  0.00    -0.488 OA
ATOM     11  C   LIG    1       23.368 -20.820   6.597  0.00  0.00    +0.277 C 
ENDBRANCH   3  10
BRANCH   4  12
ATOM     12  O   LIG    1       26.027 -22.517   7.824  0.00  0.00    -0.491 OA
ATOM     13  C   LIG    1       25.862 -23.835   7.308  0.00  0.00    +0.277 C 
ENDBRANCH   4  12
ENDBRANCH   1   6
BRANCH   1  14
ATOM     14  C   LIG    1       30.253 -19.251   7.633  0.00  0.00    +0.015 A 
ATOM     15  C   LIG    1       30.994 -19.957   8.560  0.00  0.00    +0.125 A 
ATOM     16  N   LIG    1       31.287 -19.487   9.785  0.00  0.00    -0.200 NA
ATOM     17  C   LIG    1       30.806 -18.286  10.101  0.00  0.00    +0.214 A 
ATOM     18  N   LIG    1       30.088 -17.513   9.298  0.00  0.00    -0.223 NA
ATOM     19  C   LIG    1       29.808 -18.023   8.081  0.00  0.00    +0.121 A 
BRANCH  15  20
ATOM     20  N   LIG    1       31.483 -21.238   8.295  0.00  0.00    -0.343 N 
ATOM     21  H   LIG    1       31.815 -21.693   9.136  0.00  0.00    +0.144 HD
ATOM     22  H   LIG    1       30.713 -21.760   7.882  0.00  0.00    +0.144 HD
ENDBRANCH  15  20
BRANCH  17  23
ATOM     23  N   LIG    1       31.128 -17.774  11.347  0.00  0.00    -0.327 N 
ATOM     24  H   LIG    1       30.417 -18.031  12.014  0.00  0.00    +0.145 HD
ATOM     25  H   LIG    1       32.084 -18.016  11.567  0.00  0.00    +0.145 HD
ENDBRANCH  17  23
ENDBRANCH   1  14
TORSDOF 7
ENDMDL
MODEL 3
REMARK VINA RESULT:      -7.2      4.605      7.203
REMARK  Name = *****
REMARK                            x       y       z     vdW  Elec       q    Type
REMARK                         _______ _______ _______ _____ _____    ______ ____
ROOT
ATOM      1  C   LIG    1       25.151 -22.669   7.693  0.00  0.00    +0.075 C 
ENDROOT
BRANCH   1   6
ATOM      2  C   LIG    1       26.584 -20.041   5.303  0.00  0.00    +0.165 A 
ATOM      3  C   LIG    1       27.929 -19.972   5.748  0.00  0.00    +0.203 A 
ATOM      4  C   LIG    1       28.354 -20.803   6.805  0.00  0.00    +0.165 A 
ATOM      5  C   LIG    1       27.428 -21.664   7.401  0.00  0.00    +0.053 A 
ATOM      6  C   LIG    1       26.089 -21.710   6.992  0.00  0.00    -0.036 A 
ATOM      7  C   LIG    1       25.671 -20.896   5.936  0.00  0.00    +0.053 A 
BRANCH   2   9
ATOM      8  C   LIG    1       24.969 -19.441   3.644  0.00  0.00    +0.277 C 
ATOM      9  O   LIG    1       26.231 -19.211   4.264  0.00  0.00    -0.491 OA
ENDBRANCH   2   9
BRANCH   3  10
ATOM     10  O   LIG    1       28.692 -19.007   5.128  0.00  0.00    -0.488 OA
ATOM     11  C   LIG    1       29.568 -18.222   5.925  0.00  0.00    +0.277 C 
ENDBRANCH   3  10
BRANCH   4  12
ATOM     12  O   LIG    1       29.650 -20.726   7.243  0.00  0.00    -0.491 OA
ATOM     13  C   LIG    1       29.986 -21.395   8.455  0.00  0.00    +0.277 C 
ENDBRANCH   4  12
ENDBRANCH   1   6
BRANCH   1  14
ATOM     14  C   LIG    1       24.941 -23.987   6.997  0.00  0.00    +0.015 A 
ATOM     15  C   LIG    1       23.700 -24.396   6.549  0.00  0.00    +0.125 A 
ATOM     16  N   LIG    1       23.474 -25.601   5.998  0.00  0.00    -0.200 NA
ATOM     17  C   LIG    1       24.513 -26.430   5.913  0.00  0.00    +0.214 A 
ATOM     18  N   LIG    1       25.749 -26.152   6.303  0.00  0.00    -0.223 NA
ATOM     19  C   LIG    1       25.934 -24.936   6.858  0.00  0.00    +0.121 A 
BRANCH  15  20
ATOM     20  N   LIG    1       22.571 -23.583   6.658  0.00  0.00    -0.343 N 
ATOM     21  H   LIG    1       21.810 -23.920   6.081  0.00  0.00    +0.144 HD
ATOM     22  H   LIG    1       22.307 -23.584   7.641  0.00  0.00    +0.144 HD
ENDBRANCH  15  20
BRANCH  17  23
ATOM     23  N   LIG    1       24.302 -27.662   5.316  0.00  0.00    -0.327 N 
ATOM     24  H   LIG    1       23.325 -27.904   5.373  0.00  0.00    +0.145 HD
ATOM     25  H   LIG    1       24.731 -27.665   4.402  0.00  0.00    +0.145 HD
ENDBRANCH  17  23
ENDBRANCH   1  14
TORSDOF 7
ENDMDL
MODEL 4
REMARK VINA RESULT:      -7.1      4.347      6.889
REMARK  Name = *****
REMARK                            x       y       z     vdW  Elec       q    Type
REMARK                         _______ _______ _______ _____ _____    ______ ____
ROOT
ATOM      1  C   LIG    1       26.279 -21.791   6.608  0.00  0.00    +0.075 C 
ENDROOT
BRANCH   1   6
ATOM      2  C   LIG    1       29.217 -19.352   6.301  0.00  0.00    +0.165 A 
ATOM      3  C   LIG    1       30.025 -19.759   7.394  0.00  0.00    +0.203 A 
ATOM      4  C   LIG    1       29.610 -20.839   8.199  0.00  0.00    +0.165 A 
ATOM      5  C   LIG    1       28.397 -21.472   7.908  0.00  0.00    +0.053 A 
ATOM      6  C   LIG    1       27.577 -21.052   6.854  0.00  0.00    -0.036 A 
ATOM      7  C   LIG    1       27.994 -19.990   6.048  0.00  0.00    +0.053 A 
BRANCH   2   9
ATOM      8  C   LIG    1       28.721 -17.578   4.775  0.00  0.00    +0.277 C 
ATOM      9  O   LIG    1       29.678 -18.297   5.548  0.00  0.00    -0.491 OA
ENDBRANCH   2   9
BRANCH   3  10
ATOM     10  O   LIG    1       31.137 -18.976   7.610  0.00  0.00    -0.488 OA
ATOM     11  C   LIG    1       31.090 -18.007   8.650  0.00  0.00    +0.277 C 
ENDBRANCH   3  10
BRANCH   4  12
ATOM     12  O   LIG    1       30.384 -21.222   9.263  0.00  0.00    -0.491 OA
ATOM     13  C   LIG    1       31.438 -22.151   9.023  0.00  0.00    +0.277 C 
ENDBRANCH   4  12
ENDBRANCH   1   6
BRANCH   1  14
ATOM     14  C   LIG    1       25.168 -20.962   6.023  0.00  0.00    +0.015 A 
ATOM     15  C   LIG    1       23.967 -20.769   6.677  0.00  0.00    +0.125 A 
ATOM     16  N   LIG    1       22.932 -20.100   6.140  0.00  0.00    -0.200 NA
ATOM     17  C   LIG    1       23.094 -19.630   4.905  0.00  0.00    +0.214 A 
ATOM     18  N   LIG    1       24.197 -19.747   4.178  0.00  0.00    -0.223 NA
ATOM     19  C   LIG    1       25.210 -20.432   4.748  0.00  0.00    +0.121 A 
BRANCH  15  20
ATOM     20  N   LIG    1       23.732 -21.280   7.955  0.00  0.00    -0.343 N 
ATOM     21  H   LIG    1       22.802 -21.672   8.035  0.00  0.00    +0.144 HD
ATOM     22  H   LIG    1       24.439 -21.994   8.115  0.00  0.00    +0.144 HD
ENDBRANCH  15  20
BRANCH  17  23
ATOM     23  N   LIG    1       22.048 -18.909   4.352  0.00  0.00    -0.327 N 
ATOM     24  H   LIG    1       22.045 -19.029   3.351  0.00  0.00    +0.145 HD
ATOM     25  H   LIG    1       21.197 -19.126   4.850  0.00  0.00    +0.145 HD
ENDBRANCH  17  23
ENDBRANCH   1  14
TORSDOF 7
ENDMDL
MODEL 5
REMARK VINA RESULT:      -7.1      4.609      6.817
REMARK  Name = *****
REMARK                            x       y       z     vdW  Elec       q    Type
REMARK                         _______ _______ _______ _____ _____    ______ ____
ROOT
ATOM      1  C   LIG    1       25.170 -22.689   7.719  0.00  0.00    +0.075 C 
ENDROOT
BRANCH   1   6
ATOM      2  C   LIG    1       28.424 -20.833   6.922  0.00  0.00    +0.165 A 
ATOM      3  C   LIG    1       28.017 -20.025   5.829  0.00  0.00    +0.203 A 
ATOM      4  C   LIG    1       26.680 -20.080   5.386  0.00  0.00    +0.165 A 
ATOM      5  C   LIG    1       25.791 -20.948   6.027  0.00  0.00    +0.053 A 
ATOM      6  C   LIG    1       26.195 -21.777   7.082  0.00  0.00    -0.036 A 
ATOM      7  C   LIG    1       27.518 -21.713   7.530  0.00  0.00    +0.053 A 
BRANCH   2   9
ATOM      8  C   LIG    1       30.122 -21.409   8.505  0.00  0.00    +0.277 C 
ATOM      9  O   LIG    1       29.740 -20.730   7.313  0.00  0.00    -0.491 OA
ENDBRANCH   2   9
BRANCH   3  10
ATOM     10  O   LIG    1       29.029 -19.298   5.242  0.00  0.00    -0.488 OA
ATOM     11  C   LIG    1       29.427 -18.077   5.851  0.00  0.00    +0.277 C 
ENDBRANCH   3  10
BRANCH   4  12
ATOM     12  O   LIG    1       26.291 -19.310   4.322  0.00  0.00    -0.491 OA
ATOM     13  C   LIG    1       25.022 -19.578   3.731  0.00  0.00    +0.277 C 
ENDBRANCH   4  12
ENDBRANCH   1   6
BRANCH   1  14
ATOM     14  C   LIG    1       24.954 -24.003   7.019  0.00  0.00    +0.015 A 
ATOM     15  C   LIG    1       23.713 -24.402   6.564  0.00  0.00    +0.125 A 
ATOM     16  N   LIG    1       23.480 -25.603   6.007  0.00  0.00    -0.200 NA
ATOM     17  C   LIG    1       24.513 -26.439   5.923  0.00  0.00    +0.214 A 
ATOM     18  N   LIG    1       25.750 -26.171   6.320  0.00  0.00    -0.223 NA
ATOM     19  C   LIG    1       25.941 -24.959   6.880  0.00  0.00    +0.121 A 
BRANCH  15  20
ATOM     20  N   LIG    1       22.589 -23.580   6.670  0.00  0.00    -0.343 N 
ATOM     21  H   LIG    1       21.736 -24.085   6.462  0.00  0.00    +0.144 HD
ATOM     22  H   LIG    1       22.577 -23.230   7.625  0.00  0.00    +0.144 HD
ENDBRANCH  15  20
BRANCH  17  23
ATOM     23  N   LIG    1       24.296 -27.667   5.321  0.00  0.00    -0.327 N 
ATOM     24  H   LIG    1       24.510 -28.407   5.972  0.00  0.00    +0.145 HD
ATOM     25  H   LIG    1       23.381 -27.670   4.895  0.00  0.00    +0.145 HD
ENDBRANCH  17  23
ENDBRANCH   1  14
TORSDOF 7
ENDMDL
MODEL 6
REMARK VINA RESULT:      -7.0      1.732      3.477
REMARK  Name = *****
REMARK                            x       y       z     vdW  Elec       q    Type
REMARK                         _______ _______ _______ _____ _____    ______ ____
ROOT
ATOM      1  C   LIG    1       27.730 -20.044   5.497  0.00  0.00    +0.075 C 
ENDROOT
BRANCH   1   6
ATOM      2  C   LIG    1       24.094 -20.791   6.440  0.00  0.00    +0.165 A 
ATOM      3  C   LIG    1       24.223 -22.075   7.030  0.00  0.00    +0.203 A 
ATOM      4  C   LIG    1       25.498 -22.667   7.132  0.00  0.00    +0.165 A 
ATOM      5  C   LIG    1       26.606 -21.975   6.631  0.00  0.00    +0.053 A 
ATOM      6  C   LIG    1       26.481 -20.724   6.015  0.00  0.00    -0.036 A 
ATOM      7  C   LIG    1       25.219 -20.132   5.924  0.00  0.00    +0.053 A 
BRANCH   2   9
ATOM      8  C   LIG    1       22.475 -19.547   5.194  0.00  0.00    +0.277 C 
ATOM      9  O   LIG    1       22.825 -20.263   6.375  0.00  0.00    -0.491 OA
ENDBRANCH   2   9
BRANCH   3  10
ATOM     10  O   LIG    1       23.031 -22.668   7.385  0.00  0.00    -0.488 OA
ATOM     11  C   LIG    1       22.529 -23.718   6.569  0.00  0.00    +0.277 C 
ENDBRANCH   3  10
BRANCH   4  12
ATOM     12  O   LIG    1       25.620 -23.912   7.689  0.00  0.00    -0.491 OA
ATOM     13  C   LIG    1       25.874 -25.011   6.819  0.00  0.00    +0.277 C 
ENDBRANCH   4  12
ENDBRANCH   1   6
BRANCH   1  14
ATOM     14  C   LIG    1       28.813 -19.822   6.518  0.00  0.00    +0.015 A 
ATOM     15  C   LIG    1       29.798 -18.868   6.355  0.00  0.00    +0.125 A 
ATOM     16  N   LIG    1       30.819 -18.706   7.214  0.00  0.00    -0.200 NA
ATOM     17  C   LIG    1       30.869 -19.535   8.254  0.00  0.00    +0.214 A 
ATOM     18  N   LIG    1       29.983 -20.485   8.521  0.00  0.00    -0.223 NA
ATOM     19  C   LIG    1       28.978 -20.622   7.631  0.00  0.00    +0.121 A 
BRANCH  15  20
ATOM     20  N   LIG    1       29.815 -18.005   5.258  0.00  0.00    -0.343 N 
ATOM     21  H   LIG    1       29.901 -18.511   4.385  0.00  0.00    +0.144 HD
ATOM     22  H   LIG    1       28.942 -17.483   5.288  0.00  0.00    +0.144 HD
ENDBRANCH  15  20
BRANCH  17  23
ATOM     23  N   LIG    1       31.897 -19.357   9.166  0.00  0.00    -0.327 N 
ATOM     24  H   LIG    1       32.724 -19.834   8.843  0.00  0.00    +0.145 HD
ATOM     25  H   LIG    1       31.979 -18.375   9.384  0.00  0.00    +0.145 HD
ENDBRANCH  17  23
ENDBRANCH   1  14
TORSDOF 7
ENDMDL
MODEL 7
REMARK VINA RESULT:      -7.0      4.368      7.076
REMARK  Name = *****
REMARK                            x       y       z     vdW  Elec       q    Type
REMARK                         _______ _______ _______ _____ _____    ______ ____
ROOT
ATOM      1  C   LIG    1       26.079 -21.071   7.524  0.00  0.00    +0.075 C 
ENDROOT
BRANCH   1   6
ATOM      2  C   LIG    1       29.353 -19.397   6.452  0.00  0.00    +0.165 A 
ATOM      3  C   LIG    1       30.256 -19.925   7.411  0.00  0.00    +0.203 A 
ATOM      4  C   LIG    1       29.788 -20.838   8.377  0.00  0.00    +0.165 A 
ATOM      5  C   LIG    1       28.433 -21.188   8.375  0.00  0.00    +0.053 A 
ATOM      6  C   LIG    1       27.529 -20.642   7.456  0.00  0.00    -0.036 A 
ATOM      7  C   LIG    1       27.996 -19.746   6.490  0.00  0.00    +0.053 A 
BRANCH   2   9
ATOM      8  C   LIG    1       28.950 -17.686   4.830  0.00  0.00    +0.277 C 
ATOM      9  O   LIG    1       29.872 -18.516   5.531  0.00  0.00    -0.491 OA
ENDBRANCH   2   9
BRANCH   3  10
ATOM     10  O   LIG    1       31.532 -19.410   7.344  0.00  0.00    -0.488 OA
ATOM     11  C   LIG    1       31.900 -18.392   8.265  0.00  0.00    +0.277 C 
ENDBRANCH   3  10
BRANCH   4  12
ATOM     12  O   LIG    1       30.657 -21.337   9.311  0.00  0.00    -0.491 OA
ATOM     13  C   LIG    1       31.511 -22.409   8.924  0.00  0.00    +0.277 C 
ENDBRANCH   4  12
ENDBRANCH   1   6
BRANCH   1  14
ATOM     14  C   LIG    1       25.751 -22.347   6.797  0.00  0.00    +0.015 A 
ATOM     15  C   LIG    1       25.202 -22.355   5.529  0.00  0.00    +0.125 A 
ATOM     16  N   LIG    1       24.827 -23.478   4.893  0.00  0.00    -0.200 NA
ATOM     17  C   LIG    1       24.984 -24.625   5.552  0.00  0.00    +0.214 A 
ATOM     18  N   LIG    1       25.501 -24.747   6.767  0.00  0.00    -0.223 NA
ATOM     19  C   LIG    1       25.858 -23.597   7.375  0.00  0.00    +0.121 A 
BRANCH  15  20
ATOM     20  N   LIG    1       24.976 -21.176   4.816  0.00  0.00    -0.343 N 
ATOM     21  H   LIG    1       25.729 -20.511   4.944  0.00  0.00    +0.144 HD
ATOM     22  H   LIG    1       24.892 -21.443   3.837  0.00  0.00    +0.144 HD
ENDBRANCH  15  20
BRANCH  17  23
ATOM     23  N   LIG    1       24.634 -25.793   4.895  0.00  0.00    -0.327 N 
ATOM     24  H   LIG    1       24.503 -26.534   5.567  0.00  0.00    +0.145 HD
ATOM     25  H   LIG    1       23.874 -25.600   4.259  0.00  0.00    +0.145 HD
ENDBRANCH  17  23
ENDBRANCH   1  14
TORSDOF 7
ENDMDL
MODEL 8
REMARK VINA RESULT:      -6.9      4.323      6.340
REMARK  Name = *****
REMARK                            x       y       z     vdW  Elec       q    Type
REMARK                         _______ _______ _______ _____ _____    ______ ____
ROOT
ATOM      1  C   LIG    1       26.381 -21.822   6.612  0.00  0.00    +0.075 C 
ENDROOT
BRANCH   1   6
ATOM      2  C   LIG    1       29.687 -20.698   8.185  0.00  0.00    +0.165 A 
ATOM      3  C   LIG    1       30.043 -19.621   7.333  0.00  0.00    +0.203 A 
ATOM      4  C   LIG    1       29.187 -19.263   6.273  0.00  0.00    +0.165 A 
ATOM      5  C   LIG    1       28.010 -19.994   6.078  0.00  0.00    +0.053 A 
ATOM      6  C   LIG    1       27.671 -21.082   6.892  0.00  0.00    -0.036 A 
ATOM      7  C   LIG    1       28.514 -21.429   7.951  0.00  0.00    +0.053 A 
BRANCH   2   9
ATOM      8  C   LIG    1       31.278 -22.223   9.116  0.00  0.00    +0.277 C 
ATOM      9  O   LIG    1       30.561 -20.995   9.206  0.00  0.00    -0.491 OA
ENDBRANCH   2   9
BRANCH   3  10
ATOM     10  O   LIG    1       31.276 -19.064   7.592  0.00  0.00    -0.488 OA
ATOM     11  C   LIG    1       31.345 -17.956   8.479  0.00  0.00    +0.277 C 
ENDBRANCH   3  10
BRANCH   4  12
ATOM     12  O   LIG    1       29.537 -18.232   5.441  0.00  0.00    -0.491 OA
ATOM     13  C   LIG    1       28.500 -17.569   4.724  0.00  0.00    +0.277 C 
ENDBRANCH   4  12
ENDBRANCH   1   6
BRANCH   1  14
ATOM     14  C   LIG    1       25.270 -20.984   6.039  0.00  0.00    +0.015 A 
ATOM     15  C   LIG    1       24.064 -20.812   6.689  0.00  0.00    +0.125 A 
ATOM     16  N   LIG    1       23.029 -20.136   6.161  0.00  0.00    -0.200 NA
ATOM     17  C   LIG    1       23.198 -19.635   4.938  0.00  0.00    +0.214 A 
ATOM     18  N   LIG    1       24.306 -19.730   4.217  0.00  0.00    -0.223 NA
ATOM     19  C   LIG    1       25.319 -20.423   4.778  0.00  0.00    +0.121 A 
BRANCH  15  20
ATOM     20  N   LIG    1       23.822 -21.356   7.952  0.00  0.00    -0.343 N 
ATOM     21  H   LIG    1       23.767 -22.366   7.920  0.00  0.00    +0.144 HD
ATOM     22  H   LIG    1       24.591 -21.055   8.548  0.00  0.00    +0.144 HD
ENDBRANCH  15  20
BRANCH  17  23
ATOM     23  N   LIG    1       22.152 -18.906   4.395  0.00  0.00    -0.327 N 
ATOM     24  H   LIG    1       21.398 -19.528   4.148  0.00  0.00    +0.145 HD
ATOM     25  H   LIG    1       21.937 -18.131   5.006  0.00  0.00    +0.145 HD
ENDBRANCH  17  23
ENDBRANCH   1  14
TORSDOF 7
ENDMDL
MODEL 9
REMARK VINA RESULT:      -6.8      1.765      2.536
REMARK  Name = *****
REMARK                            x       y       z     vdW  Elec       q    Type
REMARK                         _______ _______ _______ _____ _____    ______ ____
ROOT
ATOM      1  C   LIG    1       27.646 -19.931   5.507  0.00  0.00    +0.075 C 
ENDROOT
BRANCH   1   6
ATOM      2  C   LIG    1       25.447 -22.686   7.006  0.00  0.00    +0.165 A 
ATOM      3  C   LIG    1       24.156 -22.114   6.860  0.00  0.00    +0.203 A 
ATOM      4  C   LIG    1       24.022 -20.850   6.252  0.00  0.00    +0.165 A 
ATOM      5  C   LIG    1       25.173 -20.181   5.823  0.00  0.00    +0.053 A 
ATOM      6  C   LIG    1       26.452 -20.722   5.998  0.00  0.00    -0.036 A 
ATOM      7  C   LIG    1       26.585 -21.981   6.589  0.00  0.00    +0.053 A 
BRANCH   2   9
ATOM      8  C   LIG    1       25.828 -25.035   6.764  0.00  0.00    +0.277 C 
ATOM      9  O   LIG    1       25.513 -23.925   7.600  0.00  0.00    -0.491 OA
ENDBRANCH   2   9
BRANCH   3  10
ATOM     10  O   LIG    1       23.134 -22.850   7.419  0.00  0.00    -0.488 OA
ATOM     11  C   LIG    1       22.344 -23.667   6.567  0.00  0.00    +0.277 C 
ENDBRANCH   3  10
BRANCH   4  12
ATOM     12  O   LIG    1       22.777 -20.293   6.124  0.00  0.00    -0.491 OA
ATOM     13  C   LIG    1       22.561 -19.378   5.054  0.00  0.00    +0.277 C 
ENDBRANCH   4  12
ENDBRANCH   1   6
BRANCH   1  14
ATOM     14  C   LIG    1       28.759 -19.760   6.505  0.00  0.00    +0.015 A 
ATOM     15  C   LIG    1       29.783 -18.853   6.321  0.00  0.00    +0.125 A 
ATOM     16  N   LIG    1       30.829 -18.739   7.158  0.00  0.00    -0.200 NA
ATOM     17  C   LIG    1       30.864 -19.571   8.197  0.00  0.00    +0.214 A 
ATOM     18  N   LIG    1       29.941 -20.480   8.482  0.00  0.00    -0.223 NA
ATOM     19  C   LIG    1       28.912 -20.569   7.614  0.00  0.00    +0.121 A 
BRANCH  15  20
ATOM     20  N   LIG    1       29.816 -17.990   5.225  0.00  0.00    -0.343 N 
ATOM     21  H   LIG    1       29.059 -18.177   4.579  0.00  0.00    +0.144 HD
ATOM     22  H   LIG    1       29.747 -17.045   5.598  0.00  0.00    +0.144 HD
ENDBRANCH  15  20
BRANCH  17  23
ATOM     23  N   LIG    1       31.918 -19.442   9.086  0.00  0.00    -0.327 N 
ATOM     24  H   LIG    1       32.524 -18.694   8.788  0.00  0.00    +0.145 HD
ATOM     25  H   LIG    1       31.554 -19.402  10.027  0.00  0.00    +0.145 HD
ENDBRANCH  17  23
ENDBRANCH   1  14
TORSDOF 7
ENDMDL
