MODEL 1
REMARK VINA RESULT:      -8.1      0.000      0.000
REMARK  Name = *****
REMARK                            x       y       z     vdW  Elec       q    Type
REMARK                         _______ _______ _______ _____ _____    ______ ____
ROOT
ATOM      1  C   LIG    1       25.282 -28.685   7.373  0.00  0.00    +0.034 C 
ENDROOT
BRANCH   1   2
ATOM      2  C   LIG    1       24.492 -28.863   6.074  0.00  0.00    +0.085 C 
BRANCH   2   3
ATOM      3  N   LIG    1       24.502 -27.721   5.126  0.00  0.00    -0.305 NA
ATOM      4  C   LIG    1       25.836 -27.509   4.547  0.00  0.00    +0.105 C 
BRANCH   3   5
ATOM      5  C   LIG    1       24.084 -26.474   5.824  0.00  0.00    +0.092 C 
BRANCH   5  10
ATOM      6  C   LIG    1       24.906 -21.780   7.786  0.00  0.00    +0.162 A 
ATOM      7  C   LIG    1       23.784 -21.903   6.922  0.00  0.00    +0.162 A 
ATOM      8  C   LIG    1       23.614 -23.065   6.164  0.00  0.00    +0.053 A 
ATOM      9  C   LIG    1       24.600 -24.018   6.235  0.00  0.00    -0.036 A 
ATOM     10  C   LIG    1       25.058 -25.310   5.612  0.00  0.00    +0.038 C 
ATOM     11  C   LIG    1       26.315 -25.185   6.550  0.00  0.00    +0.045 C 
ATOM     12  C   LIG    1       25.719 -23.882   7.012  0.00  0.00    -0.040 A 
ATOM     13  C   LIG    1       25.901 -22.775   7.804  0.00  0.00    +0.053 A 
BRANCH   6  15
ATOM     14  C   LIG    1       26.587 -20.359   8.685  0.00  0.00    +0.277 C 
ATOM     15  O   LIG    1       25.205 -20.679   8.552  0.00  0.00    -0.491 OA
ENDBRANCH   6  15
BRANCH   7  16
ATOM     16  O   LIG    1       22.916 -20.849   6.828  0.00  0.00    -0.491 OA
ATOM     17  C   LIG    1       22.876 -20.155   5.586  0.00  0.00    +0.277 C 
ENDBRANCH   7  16
ENDBRANCH   5  10
ENDBRANCH   3   5
ENDBRANCH   2   3
ENDBRANCH   1   2
BRANCH   1  18
ATOM     18  C   LIG    1       25.421 -30.009   8.149  0.00  0.00    +0.109 C 
BRANCH  18  19
ATOM     19  N   LIG    1       25.105 -29.980   9.588  0.00  0.00    -0.301 N 
ATOM     20  C   LIG    1       26.142 -29.578  10.442  0.00  0.00    +0.220 C 
ATOM     21  O   LIG    1       27.216 -29.182  10.020  0.00  0.00    -0.275 OA
ATOM     22  C   LIG    1       25.957 -29.738  11.945  0.00  0.00    +0.131 C 
ATOM     23  C   LIG    1       24.850 -28.886  12.486  0.00  0.00    -0.032 A 
ATOM     24  C   LIG    1       23.519 -29.235  12.245  0.00  0.00    -0.039 A 
ATOM     25  C   LIG    1       22.496 -28.377  12.675  0.00  0.00    +0.053 A 
ATOM     26  C   LIG    1       22.799 -27.152  13.296  0.00  0.00    +0.162 A 
ATOM     27  C   LIG    1       24.141 -26.820  13.554  0.00  0.00    +0.162 A 
ATOM     28  C   LIG    1       23.251 -30.447  11.392  0.00  0.00    +0.054 C 
ATOM     29  C   LIG    1       25.150 -27.695  13.149  0.00  0.00    +0.053 A 
ATOM     30  C   LIG    1       23.674 -30.154   9.942  0.00  0.00    +0.112 C 
BRANCH  27  31
ATOM     31  O   LIG    1       24.403 -25.654  14.211  0.00  0.00    -0.491 OA
ATOM     32  C   LIG    1       25.409 -24.794  13.702  0.00  0.00    +0.277 C 
ENDBRANCH  27  31
BRANCH  26  33
ATOM     33  O   LIG    1       21.701 -26.387  13.613  0.00  0.00    -0.491 OA
ATOM     34  C   LIG    1       20.441 -26.867  13.145  0.00  0.00    +0.277 C 
ENDBRANCH  26  33
ENDBRANCH  18  19
ENDBRANCH   1  18
TORSDOF 10
ENDMDL
MODEL 2
REMARK VINA RESULT:      -8.0      3.632      6.787
REMARK  Name = *****
REMARK                            x       y       z     vdW  Elec       q    Type
REMARK                         _______ _______ _______ _____ _____    ______ ____
ROOT
ATOM      1  C   LIG    1       24.050 -21.033   7.072  0.00  0.00    +0.034 C 
ENDROOT
BRANCH   1   2
ATOM      2  C   LIG    1       23.630 -20.518   5.693  0.00  0.00    +0.085 C 
BRANCH   2   3
ATOM      3  N   LIG    1       24.622 -20.661   4.598  0.00  0.00    -0.305 NA
ATOM      4  C   LIG    1       24.254 -21.742   3.673  0.00  0.00    +0.105 C 
BRANCH   3   5
ATOM      5  C   LIG    1       25.967 -20.957   5.162  0.00  0.00    +0.092 C 
BRANCH   5  10
ATOM      6  C   LIG    1       30.556 -19.745   7.169  0.00  0.00    +0.162 A 
ATOM      7  C   LIG    1       29.704 -20.526   7.997  0.00  0.00    +0.162 A 
ATOM      8  C   LIG    1       28.365 -20.708   7.641  0.00  0.00    +0.053 A 
ATOM      9  C   LIG    1       27.910 -20.046   6.527  0.00  0.00    -0.036 A 
ATOM     10  C   LIG    1       26.655 -19.726   5.760  0.00  0.00    +0.038 C 
ATOM     11  C   LIG    1       27.578 -18.844   4.840  0.00  0.00    +0.045 C 
ATOM     12  C   LIG    1       28.703 -19.237   5.760  0.00  0.00    -0.040 A 
ATOM     13  C   LIG    1       30.034 -19.068   6.051  0.00  0.00    +0.053 A 
BRANCH   6  15
ATOM     14  C   LIG    1       32.128 -18.339   8.266  0.00  0.00    +0.277 C 
ATOM     15  O   LIG    1       31.876 -19.462   7.426  0.00  0.00    -0.491 OA
ENDBRANCH   6  15
BRANCH   7  16
ATOM     16  O   LIG    1       30.219 -21.048   9.153  0.00  0.00    -0.491 OA
ATOM     17  C   LIG    1       31.192 -22.078   9.018  0.00  0.00    +0.277 C 
ENDBRANCH   7  16
ENDBRANCH   5  10
ENDBRANCH   3   5
ENDBRANCH   2   3
ENDBRANCH   1   2
BRANCH   1  18
ATOM     18  C   LIG    1       23.464 -22.426   7.371  0.00  0.00    +0.109 C 
BRANCH  18  19
ATOM     19  N   LIG    1       24.187 -23.589   6.827  0.00  0.00    -0.301 N 
ATOM     20  C   LIG    1       25.480 -23.802   7.325  0.00  0.00    +0.220 C 
ATOM     21  O   LIG    1       25.951 -23.126   8.225  0.00  0.00    -0.275 OA
ATOM     22  C   LIG    1       26.363 -24.842   6.649  0.00  0.00    +0.131 C 
ATOM     23  C   LIG    1       25.820 -26.233   6.777  0.00  0.00    -0.032 A 
ATOM     24  C   LIG    1       24.713 -26.622   6.019  0.00  0.00    -0.039 A 
ATOM     25  C   LIG    1       24.157 -27.894   6.220  0.00  0.00    +0.053 A 
ATOM     26  C   LIG    1       24.670 -28.754   7.207  0.00  0.00    +0.162 A 
ATOM     27  C   LIG    1       25.798 -28.362   7.949  0.00  0.00    +0.162 A 
ATOM     28  C   LIG    1       24.070 -25.592   5.128  0.00  0.00    +0.054 C 
ATOM     29  C   LIG    1       26.361 -27.107   7.721  0.00  0.00    +0.053 A 
ATOM     30  C   LIG    1       23.386 -24.522   5.997  0.00  0.00    +0.112 C 
BRANCH  27  31
ATOM     31  O   LIG    1       26.310 -29.241   8.859  0.00  0.00    -0.491 OA
ATOM     32  C   LIG    1       26.812 -28.738  10.086  0.00  0.00    +0.277 C 
ENDBRANCH  27  31
BRANCH  26  33
ATOM     33  O   LIG    1       23.992 -29.945   7.333  0.00  0.00    -0.491 OA
ATOM     34  C   LIG    1       24.168 -30.886   6.273  0.00  0.00    +0.277 C 
ENDBRANCH  26  33
ENDBRANCH  18  19
ENDBRANCH   1  18
TORSDOF 10
ENDMDL
MODEL 3
REMARK VINA RESULT:      -8.0      1.092      2.003
REMARK  Name = *****
REMARK                            x       y       z     vdW  Elec       q    Type
REMARK                         _______ _______ _______ _____ _____    ______ ____
ROOT
ATOM      1  C   LIG    1       24.620 -28.834   7.152  0.00  0.00    +0.034 C 
ENDROOT
BRANCH   1   2
ATOM      2  C   LIG    1       25.527 -28.332   6.026  0.00  0.00    +0.085 C 
BRANCH   2   3
ATOM      3  N   LIG    1       25.307 -26.938   5.564  0.00  0.00    -0.305 NA
ATOM      4  C   LIG    1       25.791 -26.741   4.190  0.00  0.00    +0.105 C 
BRANCH   3   5
ATOM      5  C   LIG    1       26.019 -25.985   6.459  0.00  0.00    +0.092 C 
BRANCH   5  10
ATOM      6  C   LIG    1       24.620 -21.069   5.807  0.00  0.00    +0.162 A 
ATOM      7  C   LIG    1       25.914 -21.277   6.358  0.00  0.00    +0.162 A 
ATOM      8  C   LIG    1       26.290 -22.554   6.786  0.00  0.00    +0.053 A 
ATOM      9  C   LIG    1       25.345 -23.548   6.722  0.00  0.00    -0.036 A 
ATOM     10  C   LIG    1       25.084 -24.973   7.129  0.00  0.00    +0.038 C 
ATOM     11  C   LIG    1       23.642 -24.759   6.537  0.00  0.00    +0.045 C 
ATOM     12  C   LIG    1       24.074 -23.345   6.256  0.00  0.00    -0.040 A 
ATOM     13  C   LIG    1       23.680 -22.116   5.787  0.00  0.00    +0.053 A 
BRANCH   6  15
ATOM     14  C   LIG    1       22.700 -19.724   5.409  0.00  0.00    +0.277 C 
ATOM     15  O   LIG    1       24.118 -19.861   5.386  0.00  0.00    -0.491 OA
ENDBRANCH   6  15
BRANCH   7  16
ATOM     16  O   LIG    1       26.746 -20.199   6.492  0.00  0.00    -0.491 OA
ATOM     17  C   LIG    1       28.142 -20.465   6.552  0.00  0.00    +0.277 C 
ENDBRANCH   7  16
ENDBRANCH   5  10
ENDBRANCH   3   5
ENDBRANCH   2   3
ENDBRANCH   1   2
BRANCH   1  18
ATOM     18  C   LIG    1       25.305 -29.923   8.002  0.00  0.00    +0.109 C 
BRANCH  18  19
ATOM     19  N   LIG    1       25.087 -29.874   9.458  0.00  0.00    -0.301 N 
ATOM     20  C   LIG    1       26.152 -29.385  10.227  0.00  0.00    +0.220 C 
ATOM     21  O   LIG    1       27.168 -28.936   9.721  0.00  0.00    -0.275 OA
ATOM     22  C   LIG    1       26.082 -29.515  11.742  0.00  0.00    +0.131 C 
ATOM     23  C   LIG    1       24.963 -28.719  12.340  0.00  0.00    -0.032 A 
ATOM     24  C   LIG    1       23.644 -29.155  12.202  0.00  0.00    -0.039 A 
ATOM     25  C   LIG    1       22.600 -28.350  12.682  0.00  0.00    +0.053 A 
ATOM     26  C   LIG    1       22.867 -27.092  13.252  0.00  0.00    +0.162 A 
ATOM     27  C   LIG    1       24.200 -26.671  13.407  0.00  0.00    +0.162 A 
ATOM     28  C   LIG    1       23.395 -30.404  11.398  0.00  0.00    +0.054 C 
ATOM     29  C   LIG    1       25.231 -27.493  12.953  0.00  0.00    +0.053 A 
ATOM     30  C   LIG    1       23.698 -30.126   9.916  0.00  0.00    +0.112 C 
BRANCH  27  31
ATOM     31  O   LIG    1       24.432 -25.473  14.017  0.00  0.00    -0.491 OA
ATOM     32  C   LIG    1       24.681 -25.455  15.413  0.00  0.00    +0.277 C 
ENDBRANCH  27  31
BRANCH  26  33
ATOM     33  O   LIG    1       21.747 -26.387  13.627  0.00  0.00    -0.491 OA
ATOM     34  C   LIG    1       20.507 -26.834  13.079  0.00  0.00    +0.277 C 
ENDBRANCH  26  33
ENDBRANCH  18  19
ENDBRANCH   1  18
TORSDOF 10
ENDMDL
MODEL 4
REMARK VINA RESULT:      -7.9      1.350      2.062
REMARK  Name = *****
REMARK                            x       y       z     vdW  Elec       q    Type
REMARK                         _______ _______ _______ _____ _____    ______ ____
ROOT
ATOM      1  C   LIG    1       24.356 -28.519   6.830  0.00  0.00    +0.034 C 
ENDROOT
BRANCH   1   2
ATOM      2  C   LIG    1       25.067 -28.050   5.558  0.00  0.00    +0.085 C 
BRANCH   2   3
ATOM      3  N   LIG    1       25.767 -26.743   5.629  0.00  0.00    -0.305 NA
ATOM      4  C   LIG    1       26.258 -26.466   6.987  0.00  0.00    +0.105 C 
BRANCH   3   5
ATOM      5  C   LIG    1       24.844 -25.646   5.226  0.00  0.00    +0.092 C 
BRANCH   5  10
ATOM      6  C   LIG    1       23.424 -20.723   5.770  0.00  0.00    +0.162 A 
ATOM      7  C   LIG    1       24.783 -20.940   5.416  0.00  0.00    +0.162 A 
ATOM      8  C   LIG    1       25.319 -22.230   5.472  0.00  0.00    +0.053 A 
ATOM      9  C   LIG    1       24.510 -23.232   5.950  0.00  0.00    -0.036 A 
ATOM     10  C   LIG    1       24.523 -24.678   6.368  0.00  0.00    +0.038 C 
ATOM     11  C   LIG    1       23.021 -24.454   6.781  0.00  0.00    +0.045 C 
ATOM     12  C   LIG    1       23.220 -23.023   6.358  0.00  0.00    -0.040 A 
ATOM     13  C   LIG    1       22.644 -21.779   6.277  0.00  0.00    +0.053 A 
BRANCH   6  15
ATOM     14  C   LIG    1       22.166 -19.095   4.579  0.00  0.00    +0.277 C 
ATOM     15  O   LIG    1       22.791 -19.503   5.792  0.00  0.00    -0.491 OA
ENDBRANCH   6  15
BRANCH   7  16
ATOM     16  O   LIG    1       25.546 -19.859   5.066  0.00  0.00    -0.491 OA
ATOM     17  C   LIG    1       25.578 -19.512   3.687  0.00  0.00    +0.277 C 
ENDBRANCH   7  16
ENDBRANCH   5  10
ENDBRANCH   3   5
ENDBRANCH   2   3
ENDBRANCH   1   2
BRANCH   1  18
ATOM     18  C   LIG    1       25.116 -29.666   7.526  0.00  0.00    +0.109 C 
BRANCH  18  19
ATOM     19  N   LIG    1       24.929 -29.809   8.980  0.00  0.00    -0.301 N 
ATOM     20  C   LIG    1       26.027 -29.468   9.782  0.00  0.00    +0.220 C 
ATOM     21  O   LIG    1       27.049 -28.990   9.317  0.00  0.00    -0.275 OA
ATOM     22  C   LIG    1       25.982 -29.802  11.267  0.00  0.00    +0.131 C 
ATOM     23  C   LIG    1       24.906 -29.056  11.995  0.00  0.00    -0.032 A 
ATOM     24  C   LIG    1       23.569 -29.422  11.832  0.00  0.00    -0.039 A 
ATOM     25  C   LIG    1       22.567 -28.654  12.442  0.00  0.00    +0.053 A 
ATOM     26  C   LIG    1       22.893 -27.496  13.171  0.00  0.00    +0.162 A 
ATOM     27  C   LIG    1       24.244 -27.148  13.350  0.00  0.00    +0.162 A 
ATOM     28  C   LIG    1       23.256 -30.540  10.872  0.00  0.00    +0.054 C 
ATOM     29  C   LIG    1       25.234 -27.936  12.762  0.00  0.00    +0.053 A 
ATOM     30  C   LIG    1       23.540 -30.072   9.434  0.00  0.00    +0.112 C 
BRANCH  27  31
ATOM     31  O   LIG    1       24.535 -26.054  14.111  0.00  0.00    -0.491 OA
ATOM     32  C   LIG    1       25.416 -25.074  13.590  0.00  0.00    +0.277 C 
ENDBRANCH  27  31
BRANCH  26  33
ATOM     33  O   LIG    1       21.809 -26.810  13.667  0.00  0.00    -0.491 OA
ATOM     34  C   LIG    1       20.523 -27.321  13.314  0.00  0.00    +0.277 C 
ENDBRANCH  26  33
ENDBRANCH  18  19
ENDBRANCH   1  18
TORSDOF 10
ENDMDL
MODEL 5
REMARK VINA RESULT:      -7.9      3.865      9.659
REMARK  Name = *****
REMARK                            x       y       z     vdW  Elec       q    Type
REMARK                         _______ _______ _______ _____ _____    ______ ____
ROOT
ATOM      1  C   LIG    1       24.598 -21.555   6.742  0.00  0.00    +0.034 C 
ENDROOT
BRANCH   1   2
ATOM      2  C   LIG    1       24.833 -22.565   5.616  0.00  0.00    +0.085 C 
BRANCH   2   3
ATOM      3  N   LIG    1       24.531 -23.986   5.921  0.00  0.00    -0.305 NA
ATOM      4  C   LIG    1       23.338 -24.115   6.769  0.00  0.00    +0.105 C 
BRANCH   3   5
ATOM      5  C   LIG    1       25.683 -24.614   6.624  0.00  0.00    +0.092 C 
BRANCH   5  10
ATOM      6  C   LIG    1       24.315 -29.578   6.428  0.00  0.00    +0.162 A 
ATOM      7  C   LIG    1       24.939 -29.155   7.634  0.00  0.00    +0.162 A 
ATOM      8  C   LIG    1       25.550 -27.899   7.695  0.00  0.00    +0.053 A 
ATOM      9  C   LIG    1       25.586 -27.154   6.543  0.00  0.00    -0.036 A 
ATOM     10  C   LIG    1       26.172 -25.900   5.951  0.00  0.00    +0.038 C 
ATOM     11  C   LIG    1       25.502 -26.359   4.603  0.00  0.00    +0.045 C 
ATOM     12  C   LIG    1       25.049 -27.579   5.358  0.00  0.00    -0.040 A 
ATOM     13  C   LIG    1       24.401 -28.787   5.268  0.00  0.00    +0.053 A 
BRANCH   6  15
ATOM     14  C   LIG    1       24.573 -31.867   5.840  0.00  0.00    +0.277 C 
ATOM     15  O   LIG    1       23.715 -30.798   6.228  0.00  0.00    -0.491 OA
ENDBRANCH   6  15
BRANCH   7  16
ATOM     16  O   LIG    1       24.957 -30.017   8.696  0.00  0.00    -0.491 OA
ATOM     17  C   LIG    1       26.142 -30.047   9.482  0.00  0.00    +0.277 C 
ENDBRANCH   7  16
ENDBRANCH   5  10
ENDBRANCH   3   5
ENDBRANCH   2   3
ENDBRANCH   1   2
BRANCH   1  18
ATOM     18  C   LIG    1       25.499 -20.312   6.600  0.00  0.00    +0.109 C 
BRANCH  18  19
ATOM     19  N   LIG    1       26.953 -20.521   6.714  0.00  0.00    -0.301 N 
ATOM     20  C   LIG    1       27.749 -19.871   5.761  0.00  0.00    +0.220 C 
ATOM     21  O   LIG    1       27.281 -19.099   4.940  0.00  0.00    -0.275 OA
ATOM     22  C   LIG    1       29.229 -20.219   5.681  0.00  0.00    +0.131 C 
ATOM     23  C   LIG    1       29.979 -19.844   6.923  0.00  0.00    -0.032 A 
ATOM     24  C   LIG    1       29.823 -20.599   8.087  0.00  0.00    -0.039 A 
ATOM     25  C   LIG    1       30.455 -20.180   9.267  0.00  0.00    +0.053 A 
ATOM     26  C   LIG    1       31.198 -18.986   9.299  0.00  0.00    +0.162 A 
ATOM     27  C   LIG    1       31.368 -18.245   8.116  0.00  0.00    +0.162 A 
ATOM     28  C   LIG    1       28.850 -21.748   8.058  0.00  0.00    +0.054 C 
ATOM     29  C   LIG    1       30.759 -18.687   6.942  0.00  0.00    +0.053 A 
ATOM     30  C   LIG    1       27.416 -21.200   7.950  0.00  0.00    +0.112 C 
BRANCH  27  31
ATOM     31  O   LIG    1       32.143 -17.123   8.163  0.00  0.00    -0.491 OA
ATOM     32  C   LIG    1       31.927 -16.187   9.205  0.00  0.00    +0.277 C 
ENDBRANCH  27  31
BRANCH  26  33
ATOM     33  O   LIG    1       31.715 -18.669  10.534  0.00  0.00    -0.491 OA
ATOM     34  C   LIG    1       30.849 -17.951  11.414  0.00  0.00    +0.277 C 
ENDBRANCH  26  33
ENDBRANCH  18  19
ENDBRANCH   1  18
TORSDOF 10
ENDMDL
MODEL 6
REMARK VINA RESULT:      -7.8      2.694      4.301
REMARK  Name = *****
REMARK                            x       y       z     vdW  Elec       q    Type
REMARK                         _______ _______ _______ _____ _____    ______ ____
ROOT
ATOM      1  C   LIG    1       24.604 -26.361   6.438  0.00  0.00    +0.034 C 
ENDROOT
BRANCH   1   2
ATOM      2  C   LIG    1       25.461 -25.093   6.478  0.00  0.00    +0.085 C 
BRANCH   2   3
ATOM      3  N   LIG    1       24.747 -23.813   6.712  0.00  0.00    -0.305 NA
ATOM      4  C   LIG    1       23.289 -23.996   6.694  0.00  0.00    +0.105 C 
BRANCH   3   5
ATOM      5  C   LIG    1       25.114 -22.824   5.662  0.00  0.00    +0.092 C 
BRANCH   5  10
ATOM      6  C   LIG    1       29.283 -20.122   7.029  0.00  0.00    +0.162 A 
ATOM      7  C   LIG    1       28.892 -21.153   7.926  0.00  0.00    +0.162 A 
ATOM      8  C   LIG    1       27.654 -21.782   7.764  0.00  0.00    +0.053 A 
ATOM      9  C   LIG    1       26.828 -21.310   6.775  0.00  0.00    -0.036 A 
ATOM     10  C   LIG    1       25.432 -21.435   6.225  0.00  0.00    +0.038 C 
ATOM     11  C   LIG    1       25.840 -20.284   5.234  0.00  0.00    +0.045 C 
ATOM     12  C   LIG    1       27.165 -20.272   5.948  0.00  0.00    -0.040 A 
ATOM     13  C   LIG    1       28.389 -19.658   6.047  0.00  0.00    +0.053 A 
BRANCH   6  15
ATOM     14  C   LIG    1       30.420 -18.225   7.902  0.00  0.00    +0.277 C 
ATOM     15  O   LIG    1       30.453 -19.404   7.103  0.00  0.00    -0.491 OA
ENDBRANCH   6  15
BRANCH   7  16
ATOM     16  O   LIG    1       29.734 -21.474   8.957  0.00  0.00    -0.491 OA
ATOM     17  C   LIG    1       31.015 -21.985   8.608  0.00  0.00    +0.277 C 
ENDBRANCH   7  16
ENDBRANCH   5  10
ENDBRANCH   3   5
ENDBRANCH   2   3
ENDBRANCH   1   2
BRANCH   1  18
ATOM     18  C   LIG    1       25.463 -27.634   6.309  0.00  0.00    +0.109 C 
BRANCH  18  19
ATOM     19  N   LIG    1       25.271 -28.679   7.330  0.00  0.00    -0.301 N 
ATOM     20  C   LIG    1       26.036 -28.552   8.498  0.00  0.00    +0.220 C 
ATOM     21  O   LIG    1       26.751 -27.586   8.706  0.00  0.00    -0.275 OA
ATOM     22  C   LIG    1       26.055 -29.707   9.490  0.00  0.00    +0.131 C 
ATOM     23  C   LIG    1       24.712 -29.964  10.105  0.00  0.00    -0.032 A 
ATOM     24  C   LIG    1       23.706 -30.575   9.353  0.00  0.00    -0.039 A 
ATOM     25  C   LIG    1       22.427 -30.721   9.908  0.00  0.00    +0.053 A 
ATOM     26  C   LIG    1       22.138 -30.215  11.188  0.00  0.00    +0.162 A 
ATOM     27  C   LIG    1       23.162 -29.622  11.946  0.00  0.00    +0.162 A 
ATOM     28  C   LIG    1       24.004 -30.908   7.914  0.00  0.00    +0.054 C 
ATOM     29  C   LIG    1       24.439 -29.508  11.395  0.00  0.00    +0.053 A 
ATOM     30  C   LIG    1       24.133 -29.605   7.105  0.00  0.00    +0.112 C 
BRANCH  27  31
ATOM     31  O   LIG    1       22.868 -29.194  13.208  0.00  0.00    -0.491 OA
ATOM     32  C   LIG    1       22.989 -30.108  14.285  0.00  0.00    +0.277 C 
ENDBRANCH  27  31
BRANCH  26  33
ATOM     33  O   LIG    1       20.830 -30.378  11.584  0.00  0.00    -0.491 OA
ATOM     34  C   LIG    1       19.946 -30.951  10.619  0.00  0.00    +0.277 C 
ENDBRANCH  26  33
ENDBRANCH  18  19
ENDBRANCH   1  18
TORSDOF 10
ENDMDL
MODEL 7
REMARK VINA RESULT:      -7.8      3.014      5.426
REMARK  Name = *****
REMARK                            x       y       z     vdW  Elec       q    Type
REMARK                         _______ _______ _______ _____ _____    ______ ____
ROOT
ATOM      1  C   LIG    1       23.320 -24.690   6.504  0.00  0.00    +0.034 C 
ENDROOT
BRANCH   1   2
ATOM      2  C   LIG    1       23.499 -23.220   6.118  0.00  0.00    +0.085 C 
BRANCH   2   3
ATOM      3  N   LIG    1       24.455 -22.429   6.932  0.00  0.00    -0.305 NA
ATOM      4  C   LIG    1       23.846 -21.185   7.426  0.00  0.00    +0.105 C 
BRANCH   3   5
ATOM      5  C   LIG    1       25.652 -22.080   6.118  0.00  0.00    +0.092 C 
BRANCH   5  10
ATOM      6  C   LIG    1       30.240 -19.941   7.081  0.00  0.00    +0.162 A 
ATOM      7  C   LIG    1       29.682 -20.713   8.137  0.00  0.00    +0.162 A 
ATOM      8  C   LIG    1       28.352 -21.137   8.060  0.00  0.00    +0.053 A 
ATOM      9  C   LIG    1       27.613 -20.712   6.984  0.00  0.00    -0.036 A 
ATOM     10  C   LIG    1       26.212 -20.690   6.434  0.00  0.00    +0.038 C 
ATOM     11  C   LIG    1       26.807 -19.822   5.264  0.00  0.00    +0.045 C 
ATOM     12  C   LIG    1       28.120 -19.913   5.995  0.00  0.00    -0.040 A 
ATOM     13  C   LIG    1       29.433 -19.512   6.012  0.00  0.00    +0.053 A 
BRANCH   6  15
ATOM     14  C   LIG    1       31.832 -18.462   8.045  0.00  0.00    +0.277 C 
ATOM     15  O   LIG    1       31.518 -19.436   7.054  0.00  0.00    -0.491 OA
ENDBRANCH   6  15
BRANCH   7  16
ATOM     16  O   LIG    1       30.463 -20.986   9.228  0.00  0.00    -0.491 OA
ATOM     17  C   LIG    1       31.222 -22.189   9.193  0.00  0.00    +0.277 C 
ENDBRANCH   7  16
ENDBRANCH   5  10
ENDBRANCH   3   5
ENDBRANCH   2   3
ENDBRANCH   1   2
BRANCH   1  18
ATOM     18  C   LIG    1       24.071 -25.634   5.543  0.00  0.00    +0.109 C 
BRANCH  18  19
ATOM     19  N   LIG    1       24.742 -26.802   6.140  0.00  0.00    -0.301 N 
ATOM     20  C   LIG    1       25.867 -26.532   6.932  0.00  0.00    +0.220 C 
ATOM     21  O   LIG    1       26.220 -25.393   7.195  0.00  0.00    -0.275 OA
ATOM     22  C   LIG    1       26.736 -27.694   7.391  0.00  0.00    +0.131 C 
ATOM     23  C   LIG    1       26.011 -28.631   8.308  0.00  0.00    -0.032 A 
ATOM     24  C   LIG    1       25.047 -29.503   7.796  0.00  0.00    -0.039 A 
ATOM     25  C   LIG    1       24.308 -30.304   8.679  0.00  0.00    +0.053 A 
ATOM     26  C   LIG    1       24.494 -30.202  10.069  0.00  0.00    +0.162 A 
ATOM     27  C   LIG    1       25.482 -29.338  10.574  0.00  0.00    +0.162 A 
ATOM     28  C   LIG    1       24.736 -29.424   6.324  0.00  0.00    +0.054 C 
ATOM     29  C   LIG    1       26.231 -28.567   9.685  0.00  0.00    +0.053 A 
ATOM     30  C   LIG    1       24.023 -28.095   6.024  0.00  0.00    +0.112 C 
BRANCH  27  31
ATOM     31  O   LIG    1       25.681 -29.303  11.923  0.00  0.00    -0.491 OA
ATOM     32  C   LIG    1       25.330 -28.128  12.634  0.00  0.00    +0.277 C 
ENDBRANCH  27  31
BRANCH  26  33
ATOM     33  O   LIG    1       23.663 -31.005  10.816  0.00  0.00    -0.491 OA
ATOM     34  C   LIG    1       22.956 -32.019  10.101  0.00  0.00    +0.277 C 
ENDBRANCH  26  33
ENDBRANCH  18  19
ENDBRANCH   1  18
TORSDOF 10
ENDMDL
MODEL 8
REMARK VINA RESULT:      -7.8      2.086      8.184
REMARK  Name = *****
REMARK                            x       y       z     vdW  Elec       q    Type
REMARK                         _______ _______ _______ _____ _____    ______ ____
ROOT
ATOM      1  C   LIG    1       24.535 -28.009   6.352  0.00  0.00    +0.034 C 
ENDROOT
BRANCH   1   2
ATOM      2  C   LIG    1       25.180 -29.186   5.617  0.00  0.00    +0.085 C 
BRANCH   2   3
ATOM      3  N   LIG    1       25.275 -30.467   6.362  0.00  0.00    -0.305 NA
ATOM      4  C   LIG    1       25.549 -31.597   5.463  0.00  0.00    +0.105 C 
BRANCH   3   5
ATOM      5  C   LIG    1       24.000 -30.734   7.084  0.00  0.00    +0.092 C 
BRANCH   5  10
ATOM      6  C   LIG    1       25.090 -28.986  11.807  0.00  0.00    +0.162 A 
ATOM      7  C   LIG    1       26.175 -29.004  10.888  0.00  0.00    +0.162 A 
ATOM      8  C   LIG    1       26.039 -29.670   9.666  0.00  0.00    +0.053 A 
ATOM      9  C   LIG    1       24.869 -30.353   9.443  0.00  0.00    -0.036 A 
ATOM     10  C   LIG    1       24.211 -31.312   8.487  0.00  0.00    +0.038 C 
ATOM     11  C   LIG    1       23.007 -31.318   9.499  0.00  0.00    +0.045 C 
ATOM     12  C   LIG    1       23.844 -30.400  10.349  0.00  0.00    -0.040 A 
ATOM     13  C   LIG    1       23.922 -29.723  11.541  0.00  0.00    +0.053 A 
BRANCH   6  15
ATOM     14  C   LIG    1       24.243 -27.286  13.236  0.00  0.00    +0.277 C 
ATOM     15  O   LIG    1       25.110 -28.401  13.051  0.00  0.00    -0.491 OA
ENDBRANCH   6  15
BRANCH   7  16
ATOM     16  O   LIG    1       27.346 -28.395  11.249  0.00  0.00    -0.491 OA
ATOM     17  C   LIG    1       28.379 -29.232  11.756  0.00  0.00    +0.277 C 
ENDBRANCH   7  16
ENDBRANCH   5  10
ENDBRANCH   3   5
ENDBRANCH   2   3
ENDBRANCH   1   2
BRANCH   1  18
ATOM     18  C   LIG    1       24.429 -26.758   5.457  0.00  0.00    +0.109 C 
BRANCH  18  19
ATOM     19  N   LIG    1       24.478 -25.448   6.128  0.00  0.00    -0.301 N 
ATOM     20  C   LIG    1       25.750 -24.990   6.502  0.00  0.00    +0.220 C 
ATOM     21  O   LIG    1       26.770 -25.592   6.207  0.00  0.00    -0.275 OA
ATOM     22  C   LIG    1       25.854 -23.760   7.392  0.00  0.00    +0.131 C 
ATOM     23  C   LIG    1       25.333 -22.521   6.730  0.00  0.00    -0.032 A 
ATOM     24  C   LIG    1       23.958 -22.339   6.572  0.00  0.00    -0.039 A 
ATOM     25  C   LIG    1       23.490 -21.222   5.864  0.00  0.00    +0.053 A 
ATOM     26  C   LIG    1       24.390 -20.317   5.274  0.00  0.00    +0.162 A 
ATOM     27  C   LIG    1       25.772 -20.496   5.457  0.00  0.00    +0.162 A 
ATOM     28  C   LIG    1       23.042 -23.442   7.036  0.00  0.00    +0.054 C 
ATOM     29  C   LIG    1       26.226 -21.595   6.188  0.00  0.00    +0.053 A 
ATOM     30  C   LIG    1       23.216 -24.667   6.123  0.00  0.00    +0.112 C 
BRANCH  27  31
ATOM     31  O   LIG    1       26.620 -19.570   4.924  0.00  0.00    -0.491 OA
ATOM     32  C   LIG    1       27.960 -19.526   5.386  0.00  0.00    +0.277 C 
ENDBRANCH  27  31
BRANCH  26  33
ATOM     33  O   LIG    1       23.793 -19.301   4.564  0.00  0.00    -0.491 OA
ATOM     34  C   LIG    1       22.387 -19.139   4.754  0.00  0.00    +0.277 C 
ENDBRANCH  26  33
ENDBRANCH  18  19
ENDBRANCH   1  18
TORSDOF 10
ENDMDL
MODEL 9
REMARK VINA RESULT:      -7.3      2.109      3.467
REMARK  Name = *****
REMARK                            x       y       z     vdW  Elec       q    Type
REMARK                         _______ _______ _______ _____ _____    ______ ____
ROOT
ATOM      1  C   LIG    1       24.649 -27.259   6.408  0.00  0.00    +0.034 C 
ENDROOT
BRANCH   1   2
ATOM      2  C   LIG    1       25.350 -25.989   6.898  0.00  0.00    +0.085 C 
BRANCH   2   3
ATOM      3  N   LIG    1       25.000 -24.724   6.204  0.00  0.00    -0.305 NA
ATOM      4  C   LIG    1       24.919 -24.910   4.748  0.00  0.00    +0.105 C 
BRANCH   3   5
ATOM      5  C   LIG    1       26.023 -23.682   6.493  0.00  0.00    +0.092 C 
BRANCH   5  10
ATOM      6  C   LIG    1       23.250 -19.822   4.503  0.00  0.00    +0.162 A 
ATOM      7  C   LIG    1       24.622 -19.856   4.131  0.00  0.00    +0.162 A 
ATOM      8  C   LIG    1       25.501 -20.717   4.794  0.00  0.00    +0.053 A 
ATOM      9  C   LIG    1       25.002 -21.446   5.845  0.00  0.00    -0.036 A 
ATOM     10  C   LIG    1       25.418 -22.358   6.968  0.00  0.00    +0.038 C 
ATOM     11  C   LIG    1       23.907 -22.322   7.405  0.00  0.00    +0.045 C 
ATOM     12  C   LIG    1       23.699 -21.372   6.256  0.00  0.00    -0.040 A 
ATOM     13  C   LIG    1       22.794 -20.571   5.603  0.00  0.00    +0.053 A 
BRANCH   6  15
ATOM     14  C   LIG    1       22.193 -17.693   4.519  0.00  0.00    +0.277 C 
ATOM     15  O   LIG    1       22.297 -18.998   3.955  0.00  0.00    -0.491 OA
ENDBRANCH   6  15
BRANCH   7  16
ATOM     16  O   LIG    1       25.053 -19.004   3.150  0.00  0.00    -0.491 OA
ATOM     17  C   LIG    1       25.787 -17.858   3.567  0.00  0.00    +0.277 C 
ENDBRANCH   7  16
ENDBRANCH   5  10
ENDBRANCH   3   5
ENDBRANCH   2   3
ENDBRANCH   1   2
BRANCH   1  18
ATOM     18  C   LIG    1       25.516 -28.515   6.621  0.00  0.00    +0.109 C 
BRANCH  18  19
ATOM     19  N   LIG    1       25.215 -29.346   7.799  0.00  0.00    -0.301 N 
ATOM     20  C   LIG    1       25.931 -29.048   8.967  0.00  0.00    +0.220 C 
ATOM     21  O   LIG    1       26.691 -28.096   9.039  0.00  0.00    -0.275 OA
ATOM     22  C   LIG    1       25.836 -30.003  10.149  0.00  0.00    +0.131 C 
ATOM     23  C   LIG    1       24.453 -30.078  10.722  0.00  0.00    -0.032 A 
ATOM     24  C   LIG    1       23.450 -30.764  10.036  0.00  0.00    -0.039 A 
ATOM     25  C   LIG    1       22.139 -30.744  10.535  0.00  0.00    +0.053 A 
ATOM     26  C   LIG    1       21.820 -30.001  11.686  0.00  0.00    +0.162 A 
ATOM     27  C   LIG    1       22.842 -29.331  12.382  0.00  0.00    +0.162 A 
ATOM     28  C   LIG    1       23.794 -31.367   8.699  0.00  0.00    +0.054 C 
ATOM     29  C   LIG    1       24.147 -29.382  11.893  0.00  0.00    +0.053 A 
ATOM     30  C   LIG    1       24.037 -30.241   7.679  0.00  0.00    +0.112 C 
BRANCH  27  31
ATOM     31  O   LIG    1       22.515 -28.667  13.529  0.00  0.00    -0.491 OA
ATOM     32  C   LIG    1       22.205 -27.286  13.453  0.00  0.00    +0.277 C 
ENDBRANCH  27  31
BRANCH  26  33
ATOM     33  O   LIG    1       20.488 -30.025  12.029  0.00  0.00    -0.491 OA
ATOM     34  C   LIG    1       19.691 -31.026  11.396  0.00  0.00    +0.277 C 
ENDBRANCH  26  33
ENDBRANCH  18  19
ENDBRANCH   1  18
TORSDOF 10
ENDMDL
