MODEL 1
REMARK VINA RESULT:      -7.6      0.000      0.000
REMARK  Name = *****
REMARK                            x       y       z     vdW  Elec       q    Type
REMARK                         _______ _______ _______ _____ _____    ______ ____
ROOT
ATOM      1  C   LIG    1       24.812 -23.773   5.791  0.00  0.00    +0.027 C 
ATOM      2  C   LIG    1       25.217 -22.858   6.944  0.00  0.00    +0.084 C 
ATOM      3  C   LIG    1       24.327 -21.574   7.072  0.00  0.00    +0.165 C 
ATOM      4  O   LIG    1       24.773 -20.767   8.185  0.00  0.00    -0.369 OA
ATOM      5  C   LIG    1       26.172 -20.465   8.110  0.00  0.00    +0.176 C 
ATOM      6  C   LIG    1       27.023 -21.741   8.060  0.00  0.00    +0.109 C 
ATOM      7  N   LIG    1       26.678 -22.609   6.922  0.00  0.00    -0.309 NA
ATOM      8  H   LIG    1       26.927 -22.129   6.061  0.00  0.00    +0.122 HD
ENDROOT
BRANCH   3   9
ATOM      9  C   LIG    1       24.056 -20.664   5.883  0.00  0.00    -0.017 A 
ATOM     10  C   LIG    1       22.798 -20.032   5.814  0.00  0.00    +0.006 A 
ATOM     11  C   LIG    1       22.470 -19.173   4.764  0.00  0.00    +0.000 A 
ATOM     12  C   LIG    1       23.400 -18.919   3.761  0.00  0.00    +0.000 A 
ATOM     13  C   LIG    1       24.655 -19.518   3.817  0.00  0.00    +0.000 A 
ATOM     14  C   LIG    1       24.982 -20.378   4.870  0.00  0.00    +0.006 A 
ENDBRANCH   3   9
TORSDOF 1
ENDMDL
MODEL 2
REMARK VINA RESULT:      -6.7      1.727      4.155
REMARK  Name = *****
REMARK                            x       y       z     vdW  Elec       q    Type
REMARK                         _______ _______ _______ _____ _____    ______ ____
ROOT
ATOM      1  C   LIG    1       27.587 -21.021   7.269  0.00  0.00    +0.027 C 
ATOM      2  C   LIG    1       26.445 -20.409   6.460  0.00  0.00    +0.084 C 
ATOM      3  C   LIG    1       25.051 -21.067   6.741  0.00  0.00    +0.165 C 
ATOM      4  O   LIG    1       24.029 -20.430   5.941  0.00  0.00    -0.369 OA
ATOM      5  C   LIG    1       24.362 -20.414   4.548  0.00  0.00    +0.176 C 
ATOM      6  C   LIG    1       25.696 -19.700   4.295  0.00  0.00    +0.109 C 
ATOM      7  N   LIG    1       26.816 -20.312   5.028  0.00  0.00    -0.309 NA
ATOM      8  H   LIG    1       26.977 -21.244   4.655  0.00  0.00    +0.122 HD
ENDROOT
BRANCH   3   9
ATOM      9  C   LIG    1       24.849 -22.575   6.686  0.00  0.00    -0.017 A 
ATOM     10  C   LIG    1       23.525 -23.058   6.669  0.00  0.00    +0.006 A 
ATOM     11  C   LIG    1       23.250 -24.426   6.608  0.00  0.00    +0.000 A 
ATOM     12  C   LIG    1       24.296 -25.341   6.554  0.00  0.00    +0.000 A 
ATOM     13  C   LIG    1       25.611 -24.886   6.553  0.00  0.00    +0.000 A 
ATOM     14  C   LIG    1       25.885 -23.515   6.613  0.00  0.00    +0.006 A 
ENDBRANCH   3   9
TORSDOF 1
ENDMDL
MODEL 3
REMARK VINA RESULT:      -6.6      1.897      4.533
REMARK  Name = *****
REMARK                            x       y       z     vdW  Elec       q    Type
REMARK                         _______ _______ _______ _____ _____    ______ ____
ROOT
ATOM      1  C   LIG    1       25.959 -21.329   8.587  0.00  0.00    +0.027 C 
ATOM      2  C   LIG    1       25.253 -20.966   7.283  0.00  0.00    +0.084 C 
ATOM      3  C   LIG    1       24.229 -22.050   6.799  0.00  0.00    +0.165 C 
ATOM      4  O   LIG    1       23.604 -21.629   5.565  0.00  0.00    -0.369 OA
ATOM      5  C   LIG    1       24.565 -21.288   4.559  0.00  0.00    +0.176 C 
ATOM      6  C   LIG    1       25.508 -20.174   5.033  0.00  0.00    +0.109 C 
ATOM      7  N   LIG    1       26.236 -20.532   6.262  0.00  0.00    -0.309 NA
ATOM      8  H   LIG    1       26.869 -21.299   6.052  0.00  0.00    +0.122 HD
ENDROOT
BRANCH   3   9
ATOM      9  C   LIG    1       24.611 -23.519   6.680  0.00  0.00    -0.017 A 
ATOM     10  C   LIG    1       23.579 -24.446   6.432  0.00  0.00    +0.006 A 
ATOM     11  C   LIG    1       23.841 -25.810   6.299  0.00  0.00    +0.000 A 
ATOM     12  C   LIG    1       25.148 -26.277   6.402  0.00  0.00    +0.000 A 
ATOM     13  C   LIG    1       26.185 -25.378   6.630  0.00  0.00    +0.000 A 
ATOM     14  C   LIG    1       25.920 -24.011   6.763  0.00  0.00    +0.006 A 
ENDBRANCH   3   9
TORSDOF 1
ENDMDL
MODEL 4
REMARK VINA RESULT:      -6.6      1.911      3.781
REMARK  Name = *****
REMARK                            x       y       z     vdW  Elec       q    Type
REMARK                         _______ _______ _______ _____ _____    ______ ____
ROOT
ATOM      1  C   LIG    1       23.268 -20.394   6.137  0.00  0.00    +0.027 C 
ATOM      2  C   LIG    1       23.779 -21.699   6.744  0.00  0.00    +0.084 C 
ATOM      3  C   LIG    1       25.079 -21.528   7.603  0.00  0.00    +0.165 C 
ATOM      4  O   LIG    1       25.493 -22.804   8.141  0.00  0.00    -0.369 OA
ATOM      5  C   LIG    1       25.630 -23.802   7.123  0.00  0.00    +0.176 C 
ATOM      6  C   LIG    1       24.322 -24.001   6.347  0.00  0.00    +0.109 C 
ATOM      7  N   LIG    1       23.845 -22.762   5.712  0.00  0.00    -0.309 NA
ATOM      8  H   LIG    1       24.507 -22.492   4.989  0.00  0.00    +0.122 HD
ENDROOT
BRANCH   3   9
ATOM      9  C   LIG    1       26.304 -20.799   7.069  0.00  0.00    -0.017 A 
ATOM     10  C   LIG    1       27.366 -20.559   7.964  0.00  0.00    +0.006 A 
ATOM     11  C   LIG    1       28.531 -19.908   7.555  0.00  0.00    +0.000 A 
ATOM     12  C   LIG    1       28.663 -19.489   6.235  0.00  0.00    +0.000 A 
ATOM     13  C   LIG    1       27.635 -19.731   5.329  0.00  0.00    +0.000 A 
ATOM     14  C   LIG    1       26.468 -20.384   5.741  0.00  0.00    +0.006 A 
ENDBRANCH   3   9
TORSDOF 1
ENDMDL
MODEL 5
REMARK VINA RESULT:      -6.4      5.407      7.818
REMARK  Name = *****
REMARK                            x       y       z     vdW  Elec       q    Type
REMARK                         _______ _______ _______ _____ _____    ______ ____
ROOT
ATOM      1  C   LIG    1       31.149 -21.563   9.270  0.00  0.00    +0.027 C 
ATOM      2  C   LIG    1       30.678 -20.846   8.006  0.00  0.00    +0.084 C 
ATOM      3  C   LIG    1       31.307 -19.423   7.817  0.00  0.00    +0.165 C 
ATOM      4  O   LIG    1       30.814 -18.817   6.601  0.00  0.00    -0.369 OA
ATOM      5  C   LIG    1       29.383 -18.801   6.545  0.00  0.00    +0.176 C 
ATOM      6  C   LIG    1       28.797 -20.215   6.659  0.00  0.00    +0.109 C 
ATOM      7  N   LIG    1       29.200 -20.898   7.899  0.00  0.00    -0.309 NA
ATOM      8  H   LIG    1       28.786 -20.410   8.688  0.00  0.00    +0.122 HD
ENDROOT
BRANCH   3   9
ATOM      9  C   LIG    1       31.286 -18.382   8.928  0.00  0.00    -0.017 A 
ATOM     10  C   LIG    1       32.307 -17.411   8.935  0.00  0.00    +0.006 A 
ATOM     11  C   LIG    1       32.357 -16.414   9.911  0.00  0.00    +0.000 A 
ATOM     12  C   LIG    1       31.378 -16.361  10.898  0.00  0.00    +0.000 A 
ATOM     13  C   LIG    1       30.351 -17.299  10.900  0.00  0.00    +0.000 A 
ATOM     14  C   LIG    1       30.302 -18.298   9.922  0.00  0.00    +0.006 A 
ENDBRANCH   3   9
TORSDOF 1
ENDMDL
MODEL 6
REMARK VINA RESULT:      -6.4      1.482      2.397
REMARK  Name = *****
REMARK                            x       y       z     vdW  Elec       q    Type
REMARK                         _______ _______ _______ _____ _____    ______ ____
ROOT
ATOM      1  C   LIG    1       27.671 -19.884   5.962  0.00  0.00    +0.027 C 
ATOM      2  C   LIG    1       26.893 -21.011   6.638  0.00  0.00    +0.084 C 
ATOM      3  C   LIG    1       25.658 -21.508   5.811  0.00  0.00    +0.165 C 
ATOM      4  O   LIG    1       24.981 -22.573   6.516  0.00  0.00    -0.369 OA
ATOM      5  C   LIG    1       24.636 -22.202   7.856  0.00  0.00    +0.176 C 
ATOM      6  C   LIG    1       25.874 -21.791   8.664  0.00  0.00    +0.109 C 
ATOM      7  N   LIG    1       26.605 -20.669   8.051  0.00  0.00    -0.309 NA
ATOM      8  H   LIG    1       26.017 -19.841   8.087  0.00  0.00    +0.122 HD
ENDROOT
BRANCH   3   9
ATOM      9  C   LIG    1       24.616 -20.541   5.264  0.00  0.00    -0.017 A 
ATOM     10  C   LIG    1       24.931 -19.838   4.084  0.00  0.00    +0.006 A 
ATOM     11  C   LIG    1       24.029 -18.941   3.508  0.00  0.00    +0.000 A 
ATOM     12  C   LIG    1       22.786 -18.734   4.098  0.00  0.00    +0.000 A 
ATOM     13  C   LIG    1       22.447 -19.431   5.254  0.00  0.00    +0.000 A 
ATOM     14  C   LIG    1       23.352 -20.330   5.829  0.00  0.00    +0.006 A 
ENDBRANCH   3   9
TORSDOF 1
ENDMDL
MODEL 7
REMARK VINA RESULT:      -6.4      1.972      3.921
REMARK  Name = *****
REMARK                            x       y       z     vdW  Elec       q    Type
REMARK                         _______ _______ _______ _____ _____    ______ ____
ROOT
ATOM      1  C   LIG    1       24.265 -20.447   4.522  0.00  0.00    +0.027 C 
ATOM      2  C   LIG    1       24.319 -21.600   5.522  0.00  0.00    +0.084 C 
ATOM      3  C   LIG    1       25.083 -21.250   6.845  0.00  0.00    +0.165 C 
ATOM      4  O   LIG    1       25.086 -22.389   7.736  0.00  0.00    -0.369 OA
ATOM      5  C   LIG    1       25.589 -23.571   7.102  0.00  0.00    +0.176 C 
ATOM      6  C   LIG    1       24.777 -23.931   5.851  0.00  0.00    +0.109 C 
ATOM      7  N   LIG    1       24.760 -22.848   4.854  0.00  0.00    -0.309 NA
ATOM      8  H   LIG    1       25.702 -22.724   4.493  0.00  0.00    +0.122 HD
ENDROOT
BRANCH   3   9
ATOM      9  C   LIG    1       26.476 -20.635   6.830  0.00  0.00    -0.017 A 
ATOM     10  C   LIG    1       26.985 -20.196   5.591  0.00  0.00    +0.006 A 
ATOM     11  C   LIG    1       28.248 -19.611   5.488  0.00  0.00    +0.000 A 
ATOM     12  C   LIG    1       29.028 -19.444   6.628  0.00  0.00    +0.000 A 
ATOM     13  C   LIG    1       28.539 -19.855   7.864  0.00  0.00    +0.000 A 
ATOM     14  C   LIG    1       27.273 -20.441   7.965  0.00  0.00    +0.006 A 
ENDBRANCH   3   9
TORSDOF 1
ENDMDL
MODEL 8
REMARK VINA RESULT:      -6.3      2.322      4.440
REMARK  Name = *****
REMARK                            x       y       z     vdW  Elec       q    Type
REMARK                         _______ _______ _______ _____ _____    ______ ____
ROOT
ATOM      1  C   LIG    1       22.945 -21.960   6.603  0.00  0.00    +0.027 C 
ATOM      2  C   LIG    1       23.237 -21.119   5.362  0.00  0.00    +0.084 C 
ATOM      3  C   LIG    1       24.754 -21.081   4.970  0.00  0.00    +0.165 C 
ATOM      4  O   LIG    1       24.944 -20.270   3.788  0.00  0.00    -0.369 OA
ATOM      5  C   LIG    1       24.377 -18.962   3.933  0.00  0.00    +0.176 C 
ATOM      6  C   LIG    1       22.876 -19.028   4.243  0.00  0.00    +0.109 C 
ATOM      7  N   LIG    1       22.583 -19.793   5.467  0.00  0.00    -0.309 NA
ATOM      8  H   LIG    1       22.964 -19.289   6.264  0.00  0.00    +0.122 HD
ENDROOT
BRANCH   3   9
ATOM      9  C   LIG    1       25.837 -20.735   5.983  0.00  0.00    -0.017 A 
ATOM     10  C   LIG    1       27.093 -20.331   5.487  0.00  0.00    +0.006 A 
ATOM     11  C   LIG    1       28.138 -19.985   6.345  0.00  0.00    +0.000 A 
ATOM     12  C   LIG    1       27.946 -20.027   7.722  0.00  0.00    +0.000 A 
ATOM     13  C   LIG    1       26.709 -20.407   8.234  0.00  0.00    +0.000 A 
ATOM     14  C   LIG    1       25.663 -20.753   7.372  0.00  0.00    +0.006 A 
ENDBRANCH   3   9
TORSDOF 1
ENDMDL
MODEL 9
REMARK VINA RESULT:      -6.2      3.500      4.966
REMARK  Name = *****
REMARK                            x       y       z     vdW  Elec       q    Type
REMARK                         _______ _______ _______ _____ _____    ______ ____
ROOT
ATOM      1  C   LIG    1       29.053 -18.118   5.229  0.00  0.00    +0.027 C 
ATOM      2  C   LIG    1       29.854 -18.992   6.192  0.00  0.00    +0.084 C 
ATOM      3  C   LIG    1       29.174 -20.369   6.506  0.00  0.00    +0.165 C 
ATOM      4  O   LIG    1       29.995 -21.133   7.418  0.00  0.00    -0.369 OA
ATOM      5  C   LIG    1       30.322 -20.395   8.602  0.00  0.00    +0.176 C 
ATOM      6  C   LIG    1       31.052 -19.087   8.268  0.00  0.00    +0.109 C 
ATOM      7  N   LIG    1       30.268 -18.211   7.382  0.00  0.00    -0.309 NA
ATOM      8  H   LIG    1       29.443 -17.895   7.885  0.00  0.00    +0.122 HD
ENDROOT
BRANCH   3   9
ATOM      9  C   LIG    1       27.722 -20.464   6.954  0.00  0.00    -0.017 A 
ATOM     10  C   LIG    1       26.734 -20.563   5.955  0.00  0.00    +0.006 A 
ATOM     11  C   LIG    1       25.379 -20.666   6.278  0.00  0.00    +0.000 A 
ATOM     12  C   LIG    1       24.984 -20.680   7.611  0.00  0.00    +0.000 A 
ATOM     13  C   LIG    1       25.945 -20.600   8.615  0.00  0.00    +0.000 A 
ATOM     14  C   LIG    1       27.302 -20.498   8.290  0.00  0.00    +0.006 A 
ENDBRANCH   3   9
TORSDOF 1
ENDMDL
