MODEL 1
REMARK VINA RESULT:      -7.1      0.000      0.000
REMARK  Name = *****
REMARK                            x       y       z     vdW  Elec       q    Type
REMARK                         _______ _______ _______ _____ _____    ______ ____
ROOT
ATOM      1  C   LIG    1       29.586 -21.138   7.847  0.00  0.00    +0.314 C 
ATOM      2  C   LIG    1       28.169 -21.604   7.577  0.00  0.00    +0.201 C 
ATOM      3  C   LIG    1       27.730 -20.693   6.451  0.00  0.00    +0.201 C 
ATOM      4  C   LIG    1       26.234 -20.600   6.678  0.00  0.00    +0.314 C 
ATOM      5  C   LIG    1       26.188 -20.540   8.203  0.00  0.00    +0.215 C 
ATOM      6  O   LIG    1       28.391 -19.428   6.677  0.00  0.00    -0.366 OA
ATOM      7  O   LIG    1       27.294 -21.332   8.690  0.00  0.00    -0.366 OA
ATOM      8  C   LIG    1       29.428 -19.633   7.659  0.00  0.00    +0.215 C 
ENDROOT
BRANCH   1   9
ATOM      9  O   LIG    1       30.072 -21.415   9.153  0.00  0.00    -0.208 OA
BRANCH   9  11
ATOM     10  O   LIG    1       31.604 -22.996   9.048  0.00  0.00    +0.093 OA
ATOM     11  N   LIG    1       31.436 -21.783   9.174  0.00  0.00    +0.285 N 
ATOM     12  O   LIG    1       32.262 -20.890   9.355  0.00  0.00    -0.534 OA
ENDBRANCH   9  11
ENDBRANCH   1   9
BRANCH   4  13
ATOM     13  O   LIG    1       25.553 -21.800   6.293  0.00  0.00    -0.208 OA
BRANCH  13  14
ATOM     14  N   LIG    1       24.393 -21.563   5.526  0.00  0.00    +0.285 N 
ATOM     15  O   LIG    1       23.317 -21.562   6.127  0.00  0.00    -0.534 OA
ATOM     16  O   LIG    1       24.635 -21.361   4.340  0.00  0.00    +0.093 OA
ENDBRANCH  13  14
ENDBRANCH   4  13
TORSDOF 4
ENDMDL
MODEL 2
REMARK VINA RESULT:      -6.9      5.253      7.385
REMARK  Name = *****
REMARK                            x       y       z     vdW  Elec       q    Type
REMARK                         _______ _______ _______ _____ _____    ______ ____
ROOT
ATOM      1  C   LIG    1       32.541 -16.340  12.352  0.00  0.00    +0.314 C 
ATOM      2  C   LIG    1       31.672 -17.319  11.587  0.00  0.00    +0.201 C 
ATOM      3  C   LIG    1       32.402 -17.447  10.268  0.00  0.00    +0.201 C 
ATOM      4  C   LIG    1       31.272 -17.749   9.303  0.00  0.00    +0.314 C 
ATOM      5  C   LIG    1       30.183 -16.832   9.856  0.00  0.00    +0.215 C 
ATOM      6  O   LIG    1       33.002 -16.158  10.012  0.00  0.00    -0.366 OA
ATOM      7  O   LIG    1       30.376 -16.762  11.287  0.00  0.00    -0.366 OA
ATOM      8  C   LIG    1       32.947 -15.389  11.232  0.00  0.00    +0.215 C 
ENDROOT
BRANCH   1   9
ATOM      9  O   LIG    1       31.875 -15.622  13.381  0.00  0.00    -0.208 OA
BRANCH   9  11
ATOM     10  O   LIG    1       32.608 -14.998  15.364  0.00  0.00    +0.093 OA
ATOM     11  N   LIG    1       32.308 -15.975  14.679  0.00  0.00    +0.285 N 
ATOM     12  O   LIG    1       32.377 -17.173  14.947  0.00  0.00    -0.534 OA
ENDBRANCH   9  11
ENDBRANCH   1   9
BRANCH   4  13
ATOM     13  O   LIG    1       30.788 -19.090   9.440  0.00  0.00    -0.208 OA
BRANCH  13  14
ATOM     14  N   LIG    1       31.524 -20.030   8.689  0.00  0.00    +0.285 N 
ATOM     15  O   LIG    1       31.588 -19.845   7.471  0.00  0.00    -0.534 OA
ATOM     16  O   LIG    1       32.030 -20.908   9.381  0.00  0.00    +0.093 OA
ENDBRANCH  13  14
ENDBRANCH   4  13
TORSDOF 4
ENDMDL
MODEL 3
REMARK VINA RESULT:      -6.8      0.927      1.285
REMARK  Name = *****
REMARK                            x       y       z     vdW  Elec       q    Type
REMARK                         _______ _______ _______ _____ _____    ______ ____
ROOT
ATOM      1  C   LIG    1       29.582 -20.801   7.771  0.00  0.00    +0.314 C 
ATOM      2  C   LIG    1       28.229 -21.482   7.708  0.00  0.00    +0.201 C 
ATOM      3  C   LIG    1       27.673 -20.991   6.389  0.00  0.00    +0.201 C 
ATOM      4  C   LIG    1       26.179 -21.006   6.644  0.00  0.00    +0.314 C 
ATOM      5  C   LIG    1       26.140 -20.513   8.090  0.00  0.00    +0.215 C 
ATOM      6  O   LIG    1       28.179 -19.648   6.214  0.00  0.00    -0.366 OA
ATOM      7  O   LIG    1       27.339 -21.000   8.734  0.00  0.00    -0.366 OA
ATOM      8  C   LIG    1       29.242 -19.443   7.168  0.00  0.00    +0.215 C 
ENDROOT
BRANCH   1   9
ATOM      9  O   LIG    1       30.110 -20.632   9.079  0.00  0.00    -0.208 OA
BRANCH   9  11
ATOM     10  O   LIG    1       32.129 -19.747   9.083  0.00  0.00    +0.093 OA
ATOM     11  N   LIG    1       31.510 -20.809   9.143  0.00  0.00    +0.285 N 
ATOM     12  O   LIG    1       31.933 -21.963   9.202  0.00  0.00    -0.534 OA
ENDBRANCH   9  11
ENDBRANCH   1   9
BRANCH   4  13
ATOM     13  O   LIG    1       25.644 -22.334   6.648  0.00  0.00    -0.208 OA
BRANCH  13  14
ATOM     14  N   LIG    1       24.995 -22.680   5.445  0.00  0.00    +0.285 N 
ATOM     15  O   LIG    1       24.981 -23.874   5.141  0.00  0.00    -0.534 OA
ATOM     16  O   LIG    1       24.501 -21.713   4.872  0.00  0.00    +0.093 OA
ENDBRANCH  13  14
ENDBRANCH   4  13
TORSDOF 4
ENDMDL
MODEL 4
REMARK VINA RESULT:      -6.7      2.528      6.147
REMARK  Name = *****
REMARK                            x       y       z     vdW  Elec       q    Type
REMARK                         _______ _______ _______ _____ _____    ______ ____
ROOT
ATOM      1  C   LIG    1       28.507 -19.487   6.705  0.00  0.00    +0.314 C 
ATOM      2  C   LIG    1       29.092 -19.555   8.101  0.00  0.00    +0.201 C 
ATOM      3  C   LIG    1       30.241 -18.572   8.025  0.00  0.00    +0.201 C 
ATOM      4  C   LIG    1       31.222 -19.147   9.029  0.00  0.00    +0.314 C 
ATOM      5  C   LIG    1       31.052 -20.640   8.760  0.00  0.00    +0.215 C 
ATOM      6  O   LIG    1       30.746 -18.646   6.673  0.00  0.00    -0.366 OA
ATOM      7  O   LIG    1       29.674 -20.846   8.375  0.00  0.00    -0.366 OA
ATOM      8  C   LIG    1       29.777 -19.354   5.872  0.00  0.00    +0.215 C 
ENDROOT
BRANCH   1   9
ATOM      9  O   LIG    1       27.780 -20.638   6.300  0.00  0.00    -0.208 OA
BRANCH   9  11
ATOM     10  O   LIG    1       25.713 -20.533   7.060  0.00  0.00    +0.093 OA
ATOM     11  N   LIG    1       26.412 -20.379   6.059  0.00  0.00    +0.285 N 
ATOM     12  O   LIG    1       26.085 -20.086   4.910  0.00  0.00    -0.534 OA
ENDBRANCH   9  11
ENDBRANCH   1   9
BRANCH   4  13
ATOM     13  O   LIG    1       30.805 -18.923  10.381  0.00  0.00    -0.208 OA
BRANCH  13  14
ATOM     14  N   LIG    1       31.129 -17.637  10.861  0.00  0.00    +0.285 N 
ATOM     15  O   LIG    1       30.189 -16.878  11.102  0.00  0.00    -0.534 OA
ATOM     16  O   LIG    1       32.337 -17.466  10.996  0.00  0.00    +0.093 OA
ENDBRANCH  13  14
ENDBRANCH   4  13
TORSDOF 4
ENDMDL
MODEL 5
REMARK VINA RESULT:      -6.5      2.443      3.534
REMARK  Name = *****
REMARK                            x       y       z     vdW  Elec       q    Type
REMARK                         _______ _______ _______ _____ _____    ______ ____
ROOT
ATOM      1  C   LIG    1       30.698 -19.065   8.628  0.00  0.00    +0.314 C 
ATOM      2  C   LIG    1       29.294 -19.123   8.060  0.00  0.00    +0.201 C 
ATOM      3  C   LIG    1       28.927 -20.582   8.234  0.00  0.00    +0.201 C 
ATOM      4  C   LIG    1       27.967 -20.811   7.084  0.00  0.00    +0.314 C 
ATOM      5  C   LIG    1       28.641 -19.985   5.990  0.00  0.00    +0.215 C 
ATOM      6  O   LIG    1       30.154 -21.327   8.072  0.00  0.00    -0.366 OA
ATOM      7  O   LIG    1       29.279 -18.863   6.642  0.00  0.00    -0.366 OA
ATOM      8  C   LIG    1       31.255 -20.397   8.138  0.00  0.00    +0.215 C 
ENDROOT
BRANCH   1   9
ATOM      9  O   LIG    1       31.499 -17.997   8.144  0.00  0.00    -0.208 OA
BRANCH   9  11
ATOM     10  O   LIG    1       32.387 -16.107   8.849  0.00  0.00    +0.093 OA
ATOM     11  N   LIG    1       32.138 -17.268   9.172  0.00  0.00    +0.285 N 
ATOM     12  O   LIG    1       32.403 -17.869  10.212  0.00  0.00    -0.534 OA
ENDBRANCH   9  11
ENDBRANCH   1   9
BRANCH   4  13
ATOM     13  O   LIG    1       26.687 -20.213   7.320  0.00  0.00    -0.208 OA
BRANCH  13  14
ATOM     14  N   LIG    1       25.909 -20.912   8.266  0.00  0.00    +0.285 N 
ATOM     15  O   LIG    1       25.891 -20.464   9.414  0.00  0.00    -0.534 OA
ATOM     16  O   LIG    1       25.326 -21.880   7.787  0.00  0.00    +0.093 OA
ENDBRANCH  13  14
ENDBRANCH   4  13
TORSDOF 4
ENDMDL
MODEL 6
REMARK VINA RESULT:      -6.5      2.603      5.919
REMARK  Name = *****
REMARK                            x       y       z     vdW  Elec       q    Type
REMARK                         _______ _______ _______ _____ _____    ______ ____
ROOT
ATOM      1  C   LIG    1       28.055 -19.884   7.331  0.00  0.00    +0.314 C 
ATOM      2  C   LIG    1       29.125 -19.531   8.345  0.00  0.00    +0.201 C 
ATOM      3  C   LIG    1       30.104 -18.720   7.522  0.00  0.00    +0.201 C 
ATOM      4  C   LIG    1       31.420 -19.003   8.218  0.00  0.00    +0.314 C 
ATOM      5  C   LIG    1       31.247 -20.484   8.547  0.00  0.00    +0.215 C 
ATOM      6  O   LIG    1       30.066 -19.274   6.189  0.00  0.00    -0.366 OA
ATOM      7  O   LIG    1       29.840 -20.699   8.796  0.00  0.00    -0.366 OA
ATOM      8  C   LIG    1       28.909 -20.131   6.093  0.00  0.00    +0.215 C 
ENDROOT
BRANCH   1   9
ATOM      9  O   LIG    1       27.296 -21.045   7.636  0.00  0.00    -0.208 OA
BRANCH   9  11
ATOM     10  O   LIG    1       25.974 -20.726   9.372  0.00  0.00    +0.093 OA
ATOM     11  N   LIG    1       26.009 -20.754   8.142  0.00  0.00    +0.285 N 
ATOM     12  O   LIG    1       25.098 -20.614   7.327  0.00  0.00    -0.534 OA
ENDBRANCH   9  11
ENDBRANCH   1   9
BRANCH   4  13
ATOM     13  O   LIG    1       31.531 -18.314   9.469  0.00  0.00    -0.208 OA
BRANCH  13  14
ATOM     14  N   LIG    1       31.355 -16.920   9.357  0.00  0.00    +0.285 N 
ATOM     15  O   LIG    1       30.336 -16.443   9.861  0.00  0.00    -0.534 OA
ATOM     16  O   LIG    1       32.284 -16.364   8.779  0.00  0.00    +0.093 OA
ENDBRANCH  13  14
ENDBRANCH   4  13
TORSDOF 4
ENDMDL
MODEL 7
REMARK VINA RESULT:      -6.4      1.760      5.921
REMARK  Name = *****
REMARK                            x       y       z     vdW  Elec       q    Type
REMARK                         _______ _______ _______ _____ _____    ______ ____
ROOT
ATOM      1  C   LIG    1       26.010 -20.569   7.489  0.00  0.00    +0.314 C 
ATOM      2  C   LIG    1       27.334 -20.323   8.184  0.00  0.00    +0.201 C 
ATOM      3  C   LIG    1       28.138 -19.608   7.119  0.00  0.00    +0.201 C 
ATOM      4  C   LIG    1       29.558 -20.018   7.459  0.00  0.00    +0.314 C 
ATOM      5  C   LIG    1       29.338 -21.477   7.855  0.00  0.00    +0.215 C 
ATOM      6  O   LIG    1       27.705 -20.154   5.853  0.00  0.00    -0.366 OA
ATOM      7  O   LIG    1       28.029 -21.556   8.463  0.00  0.00    -0.366 OA
ATOM      8  C   LIG    1       26.488 -20.895   6.078  0.00  0.00    +0.215 C 
ENDROOT
BRANCH   1   9
ATOM      9  O   LIG    1       25.251 -21.653   8.006  0.00  0.00    -0.208 OA
BRANCH   9  11
ATOM     10  O   LIG    1       23.326 -20.653   7.610  0.00  0.00    +0.093 OA
ATOM     11  N   LIG    1       23.939 -21.713   7.486  0.00  0.00    +0.285 N 
ATOM     12  O   LIG    1       23.560 -22.791   7.028  0.00  0.00    -0.534 OA
ENDBRANCH   9  11
ENDBRANCH   1   9
BRANCH   4  13
ATOM     13  O   LIG    1       30.052 -19.346   8.623  0.00  0.00    -0.208 OA
BRANCH  13  14
ATOM     14  N   LIG    1       31.446 -19.138   8.600  0.00  0.00    +0.285 N 
ATOM     15  O   LIG    1       32.137 -19.912   9.266  0.00  0.00    -0.534 OA
ATOM     16  O   LIG    1       31.781 -18.204   7.877  0.00  0.00    +0.093 OA
ENDBRANCH  13  14
ENDBRANCH   4  13
TORSDOF 4
ENDMDL
MODEL 8
REMARK VINA RESULT:      -6.3      3.340      5.936
REMARK  Name = *****
REMARK                            x       y       z     vdW  Elec       q    Type
REMARK                         _______ _______ _______ _____ _____    ______ ____
ROOT
ATOM      1  C   LIG    1       24.681 -24.404   6.282  0.00  0.00    +0.314 C 
ATOM      2  C   LIG    1       25.358 -23.048   6.307  0.00  0.00    +0.201 C 
ATOM      3  C   LIG    1       24.638 -22.340   7.435  0.00  0.00    +0.201 C 
ATOM      4  C   LIG    1       24.722 -20.888   7.007  0.00  0.00    +0.314 C 
ATOM      5  C   LIG    1       24.507 -21.029   5.502  0.00  0.00    +0.215 C 
ATOM      6  O   LIG    1       23.279 -22.832   7.416  0.00  0.00    -0.366 OA
ATOM      7  O   LIG    1       25.088 -22.293   5.109  0.00  0.00    -0.366 OA
ATOM      8  C   LIG    1       23.239 -24.004   6.577  0.00  0.00    +0.215 C 
ENDROOT
BRANCH   1   9
ATOM      9  O   LIG    1       24.750 -25.088   5.040  0.00  0.00    -0.208 OA
BRANCH   9  11
ATOM     10  O   LIG    1       26.394 -26.555   4.958  0.00  0.00    +0.093 OA
ATOM     11  N   LIG    1       25.187 -26.426   5.163  0.00  0.00    +0.285 N 
ATOM     12  O   LIG    1       24.337 -27.281   5.406  0.00  0.00    -0.534 OA
ENDBRANCH   9  11
ENDBRANCH   1   9
BRANCH   4  13
ATOM     13  O   LIG    1       26.036 -20.346   7.186  0.00  0.00    -0.208 OA
BRANCH  13  14
ATOM     14  N   LIG    1       26.596 -20.640   8.446  0.00  0.00    +0.285 N 
ATOM     15  O   LIG    1       25.919 -20.360   9.438  0.00  0.00    -0.534 OA
ATOM     16  O   LIG    1       27.699 -21.172   8.369  0.00  0.00    +0.093 OA
ENDBRANCH  13  14
ENDBRANCH   4  13
TORSDOF 4
ENDMDL
MODEL 9
REMARK VINA RESULT:      -6.3      1.518      5.699
REMARK  Name = *****
REMARK                            x       y       z     vdW  Elec       q    Type
REMARK                         _______ _______ _______ _____ _____    ______ ____
ROOT
ATOM      1  C   LIG    1       26.816 -21.820   7.417  0.00  0.00    +0.314 C 
ATOM      2  C   LIG    1       28.275 -21.479   7.189  0.00  0.00    +0.201 C 
ATOM      3  C   LIG    1       28.613 -20.645   8.406  0.00  0.00    +0.201 C 
ATOM      4  C   LIG    1       29.696 -19.726   7.876  0.00  0.00    +0.314 C 
ATOM      5  C   LIG    1       29.153 -19.435   6.478  0.00  0.00    +0.215 C 
ATOM      6  O   LIG    1       27.409 -19.922   8.746  0.00  0.00    -0.366 OA
ATOM      7  O   LIG    1       28.451 -20.622   6.043  0.00  0.00    -0.366 OA
ATOM      8  C   LIG    1       26.312 -20.514   8.021  0.00  0.00    +0.215 C 
ENDROOT
BRANCH   1   9
ATOM      9  O   LIG    1       26.080 -22.128   6.243  0.00  0.00    -0.208 OA
BRANCH   9  11
ATOM     10  O   LIG    1       25.819 -24.062   7.270  0.00  0.00    +0.093 OA
ATOM     11  N   LIG    1       25.542 -23.435   6.247  0.00  0.00    +0.285 N 
ATOM     12  O   LIG    1       24.922 -23.796   5.248  0.00  0.00    -0.534 OA
ENDBRANCH   9  11
ENDBRANCH   1   9
BRANCH   4  13
ATOM     13  O   LIG    1       30.944 -20.407   7.698  0.00  0.00    -0.208 OA
BRANCH  13  14
ATOM     14  N   LIG    1       31.696 -20.515   8.886  0.00  0.00    +0.285 N 
ATOM     15  O   LIG    1       31.917 -21.653   9.305  0.00  0.00    -0.534 OA
ATOM     16  O   LIG    1       32.053 -19.427   9.330  0.00  0.00    +0.093 OA
ENDBRANCH  13  14
ENDBRANCH   4  13
TORSDOF 4
ENDMDL
