MODEL 1
REMARK VINA RESULT:      -8.3      0.000      0.000
REMARK  Name = *****
REMARK                            x       y       z     vdW  Elec       q    Type
REMARK                         _______ _______ _______ _____ _____    ______ ____
ROOT
ATOM      1  C   LIG    1       30.220 -20.824   7.865  0.00  0.00    +0.105 C 
ATOM      2  N   LIG    1       28.905 -20.453   8.383  0.00  0.00    -0.305 NA
ATOM      3  C   LIG    1       28.246 -19.441   7.546  0.00  0.00    +0.088 C 
ATOM      4  C   LIG    1       27.764 -19.952   6.177  0.00  0.00    +0.047 C 
ATOM      5  C   LIG    1       26.875 -21.185   6.290  0.00  0.00    -0.059 C 
ATOM      6  C   LIG    1       25.666 -21.321   5.669  0.00  0.00    -0.010 C 
ATOM      7  C   LIG    1       24.861 -22.550   5.942  0.00  0.00    -0.014 A 
ATOM      8  C   LIG    1       23.648 -22.452   6.652  0.00  0.00    -0.039 A 
ATOM      9  C   LIG    1       22.921 -23.619   6.939  0.00  0.00    +0.004 A 
ATOM     10  C   LIG    1       23.388 -24.865   6.522  0.00  0.00    +0.000 A 
ATOM     11  C   LIG    1       24.572 -24.961   5.795  0.00  0.00    +0.001 A 
ATOM     12  C   LIG    1       23.119 -21.104   7.087  0.00  0.00    +0.041 C 
ATOM     13  C   LIG    1       22.687 -20.234   5.904  0.00  0.00    +0.048 C 
ATOM     14  C   LIG    1       23.799 -19.803   4.977  0.00  0.00    -0.002 A 
ATOM     15  S   LIG    1       23.472 -18.526   3.874  0.00  0.00    -0.101 S 
ATOM     16  C   LIG    1       25.011 -18.654   3.156  0.00  0.00    +0.046 A 
ATOM     17  C   LIG    1       25.762 -19.656   3.726  0.00  0.00    +0.016 A 
ATOM     18  C   LIG    1       25.297 -23.808   5.492  0.00  0.00    +0.009 A 
ATOM     19  C   LIG    1       25.093 -20.281   4.830  0.00  0.00    -0.007 A 
ATOM     20  C   LIG    1       27.506 -22.223   7.218  0.00  0.00    +0.047 C 
ATOM     21  C   LIG    1       28.020 -21.617   8.537  0.00  0.00    +0.088 C 
ENDROOT
TORSDOF 0
ENDMDL
MODEL 2
REMARK VINA RESULT:      -6.9      1.921      4.779
REMARK  Name = *****
REMARK                            x       y       z     vdW  Elec       q    Type
REMARK                         _______ _______ _______ _____ _____    ______ ____
ROOT
ATOM      1  C   LIG    1       24.667 -26.671   6.667  0.00  0.00    +0.105 C 
ATOM      2  N   LIG    1       25.334 -25.885   5.631  0.00  0.00    -0.305 NA
ATOM      3  C   LIG    1       24.398 -25.010   4.912  0.00  0.00    +0.088 C 
ATOM      4  C   LIG    1       23.870 -23.820   5.731  0.00  0.00    +0.047 C 
ATOM      5  C   LIG    1       24.989 -22.985   6.342  0.00  0.00    -0.059 C 
ATOM      6  C   LIG    1       25.069 -21.624   6.252  0.00  0.00    -0.010 C 
ATOM      7  C   LIG    1       26.271 -20.943   6.823  0.00  0.00    -0.014 A 
ATOM      8  C   LIG    1       27.194 -20.311   5.966  0.00  0.00    -0.039 A 
ATOM      9  C   LIG    1       28.342 -19.712   6.510  0.00  0.00    +0.004 A 
ATOM     10  C   LIG    1       28.567 -19.734   7.887  0.00  0.00    +0.000 A 
ATOM     11  C   LIG    1       27.641 -20.332   8.738  0.00  0.00    +0.001 A 
ATOM     12  C   LIG    1       26.948 -20.260   4.475  0.00  0.00    +0.041 C 
ATOM     13  C   LIG    1       25.753 -19.375   4.108  0.00  0.00    +0.048 C 
ATOM     14  C   LIG    1       24.410 -19.872   4.588  0.00  0.00    -0.002 A 
ATOM     15  S   LIG    1       23.003 -19.167   3.897  0.00  0.00    -0.101 S 
ATOM     16  C   LIG    1       21.967 -20.066   4.907  0.00  0.00    +0.046 A 
ATOM     17  C   LIG    1       22.668 -20.877   5.770  0.00  0.00    +0.016 A 
ATOM     18  C   LIG    1       26.490 -20.921   8.210  0.00  0.00    +0.009 A 
ATOM     19  C   LIG    1       24.083 -20.824   5.543  0.00  0.00    -0.007 A 
ATOM     20  C   LIG    1       26.016 -23.880   7.033  0.00  0.00    +0.047 C 
ATOM     21  C   LIG    1       26.442 -25.082   6.170  0.00  0.00    +0.088 C 
ENDROOT
TORSDOF 0
ENDMDL
MODEL 3
REMARK VINA RESULT:      -6.2      6.832      9.831
REMARK  Name = *****
REMARK                            x       y       z     vdW  Elec       q    Type
REMARK                         _______ _______ _______ _____ _____    ______ ____
ROOT
ATOM      1  C   LIG    1       24.686 -33.825   4.227  0.00  0.00    +0.105 C 
ATOM      2  N   LIG    1       25.770 -33.272   5.037  0.00  0.00    -0.305 NA
ATOM      3  C   LIG    1       26.088 -31.887   4.662  0.00  0.00    +0.088 C 
ATOM      4  C   LIG    1       25.021 -30.851   5.057  0.00  0.00    +0.047 C 
ATOM      5  C   LIG    1       24.660 -30.915   6.536  0.00  0.00    -0.059 C 
ATOM      6  C   LIG    1       24.611 -29.829   7.363  0.00  0.00    -0.010 C 
ATOM      7  C   LIG    1       24.330 -30.051   8.814  0.00  0.00    -0.014 A 
ATOM      8  C   LIG    1       25.333 -29.803   9.771  0.00  0.00    -0.039 A 
ATOM      9  C   LIG    1       25.071 -30.057  11.127  0.00  0.00    +0.004 A 
ATOM     10  C   LIG    1       23.828 -30.543  11.529  0.00  0.00    +0.000 A 
ATOM     11  C   LIG    1       22.824 -30.761  10.588  0.00  0.00    +0.001 A 
ATOM     12  C   LIG    1       26.677 -29.252   9.349  0.00  0.00    +0.041 C 
ATOM     13  C   LIG    1       26.585 -27.813   8.833  0.00  0.00    +0.048 C 
ATOM     14  C   LIG    1       25.805 -27.636   7.552  0.00  0.00    -0.002 A 
ATOM     15  S   LIG    1       25.983 -26.149   6.707  0.00  0.00    -0.101 S 
ATOM     16  C   LIG    1       24.831 -26.594   5.534  0.00  0.00    +0.046 A 
ATOM     17  C   LIG    1       24.303 -27.840   5.780  0.00  0.00    +0.016 A 
ATOM     18  C   LIG    1       23.068 -30.502   9.238  0.00  0.00    +0.009 A 
ATOM     19  C   LIG    1       24.913 -28.481   6.908  0.00  0.00    -0.007 A 
ATOM     20  C   LIG    1       24.397 -32.358   6.967  0.00  0.00    +0.047 C 
ATOM     21  C   LIG    1       25.479 -33.338   6.476  0.00  0.00    +0.088 C 
ENDROOT
TORSDOF 0
ENDMDL
MODEL 4
REMARK VINA RESULT:      -6.1      6.907      9.873
REMARK  Name = *****
REMARK                            x       y       z     vdW  Elec       q    Type
REMARK                         _______ _______ _______ _____ _____    ______ ____
ROOT
ATOM      1  C   LIG    1       25.540 -26.389   4.428  0.00  0.00    +0.105 C 
ATOM      2  N   LIG    1       24.422 -26.864   5.241  0.00  0.00    -0.305 NA
ATOM      3  C   LIG    1       24.178 -28.302   5.061  0.00  0.00    +0.088 C 
ATOM      4  C   LIG    1       25.251 -29.218   5.674  0.00  0.00    +0.047 C 
ATOM      5  C   LIG    1       25.507 -28.920   7.146  0.00  0.00    -0.059 C 
ATOM      6  C   LIG    1       25.536 -29.869   8.129  0.00  0.00    -0.010 C 
ATOM      7  C   LIG    1       25.708 -29.421   9.544  0.00  0.00    -0.014 A 
ATOM      8  C   LIG    1       24.650 -29.569  10.462  0.00  0.00    -0.039 A 
ATOM      9  C   LIG    1       24.809 -29.106  11.779  0.00  0.00    +0.004 A 
ATOM     10  C   LIG    1       26.004 -28.511  12.180  0.00  0.00    +0.000 A 
ATOM     11  C   LIG    1       27.062 -28.391  11.282  0.00  0.00    +0.001 A 
ATOM     12  C   LIG    1       23.359 -30.236  10.045  0.00  0.00    +0.041 C 
ATOM     13  C   LIG    1       23.536 -31.730   9.758  0.00  0.00    +0.048 C 
ATOM     14  C   LIG    1       24.409 -32.061   8.571  0.00  0.00    -0.002 A 
ATOM     15  S   LIG    1       24.341 -33.663   7.950  0.00  0.00    -0.101 S 
ATOM     16  C   LIG    1       25.555 -33.345   6.798  0.00  0.00    +0.046 A 
ATOM     17  C   LIG    1       26.021 -32.054   6.886  0.00  0.00    +0.016 A 
ATOM     18  C   LIG    1       26.921 -28.857   9.975  0.00  0.00    +0.009 A 
ATOM     19  C   LIG    1       25.312 -31.281   7.864  0.00  0.00    -0.007 A 
ATOM     20  C   LIG    1       25.689 -27.420   7.370  0.00  0.00    +0.047 C 
ATOM     21  C   LIG    1       24.611 -26.572   6.670  0.00  0.00    +0.088 C 
ENDROOT
TORSDOF 0
ENDMDL
MODEL 5
REMARK VINA RESULT:      -5.9      8.447     10.539
REMARK  Name = *****
REMARK                            x       y       z     vdW  Elec       q    Type
REMARK                         _______ _______ _______ _____ _____    ______ ____
ROOT
ATOM      1  C   LIG    1       27.400 -28.225  12.842  0.00  0.00    +0.105 C 
ATOM      2  N   LIG    1       27.433 -29.553  12.232  0.00  0.00    -0.305 NA
ATOM      3  C   LIG    1       26.211 -30.320  12.512  0.00  0.00    +0.088 C 
ATOM      4  C   LIG    1       24.953 -29.816  11.783  0.00  0.00    +0.047 C 
ATOM      5  C   LIG    1       25.155 -29.700  10.277  0.00  0.00    -0.059 C 
ATOM      6  C   LIG    1       24.296 -30.210   9.345  0.00  0.00    -0.010 C 
ATOM      7  C   LIG    1       24.666 -30.100   7.901  0.00  0.00    -0.014 A 
ATOM      8  C   LIG    1       24.976 -31.260   7.165  0.00  0.00    -0.039 A 
ATOM      9  C   LIG    1       25.364 -31.141   5.820  0.00  0.00    +0.004 A 
ATOM     10  C   LIG    1       25.437 -29.887   5.213  0.00  0.00    +0.000 A 
ATOM     11  C   LIG    1       25.101 -28.742   5.931  0.00  0.00    +0.001 A 
ATOM     12  C   LIG    1       24.877 -32.627   7.806  0.00  0.00    +0.041 C 
ATOM     13  C   LIG    1       23.433 -33.020   8.128  0.00  0.00    +0.048 C 
ATOM     14  C   LIG    1       22.753 -32.176   9.181  0.00  0.00    -0.002 A 
ATOM     15  S   LIG    1       21.301 -32.780   9.875  0.00  0.00    -0.101 S 
ATOM     16  C   LIG    1       21.078 -31.375  10.811  0.00  0.00    +0.046 A 
ATOM     17  C   LIG    1       22.074 -30.450  10.595  0.00  0.00    +0.016 A 
ATOM     18  C   LIG    1       24.703 -28.848   7.264  0.00  0.00    +0.009 A 
ATOM     19  C   LIG    1       23.088 -30.935   9.704  0.00  0.00    -0.007 A 
ATOM     20  C   LIG    1       26.460 -28.970   9.960  0.00  0.00    +0.047 C 
ATOM     21  C   LIG    1       27.654 -29.492  10.780  0.00  0.00    +0.088 C 
ENDROOT
TORSDOF 0
ENDMDL
MODEL 6
REMARK VINA RESULT:      -5.9      2.648      4.880
REMARK  Name = *****
REMARK                            x       y       z     vdW  Elec       q    Type
REMARK                         _______ _______ _______ _____ _____    ______ ____
ROOT
ATOM      1  C   LIG    1       25.496 -27.359   5.259  0.00  0.00    +0.105 C 
ATOM      2  N   LIG    1       24.866 -26.588   6.329  0.00  0.00    -0.305 NA
ATOM      3  C   LIG    1       25.855 -25.897   7.167  0.00  0.00    +0.088 C 
ATOM      4  C   LIG    1       26.564 -24.714   6.485  0.00  0.00    +0.047 C 
ATOM      5  C   LIG    1       25.587 -23.702   5.900  0.00  0.00    -0.059 C 
ATOM      6  C   LIG    1       25.660 -22.354   6.109  0.00  0.00    -0.010 C 
ATOM      7  C   LIG    1       24.580 -21.487   5.547  0.00  0.00    -0.014 A 
ATOM      8  C   LIG    1       23.689 -20.823   6.413  0.00  0.00    -0.039 A 
ATOM      9  C   LIG    1       22.652 -20.046   5.872  0.00  0.00    +0.004 A 
ATOM     10  C   LIG    1       22.505 -19.924   4.490  0.00  0.00    +0.000 A 
ATOM     11  C   LIG    1       23.403 -20.556   3.633  0.00  0.00    +0.001 A 
ATOM     12  C   LIG    1       23.855 -20.927   7.912  0.00  0.00    +0.041 C 
ATOM     13  C   LIG    1       25.122 -20.228   8.413  0.00  0.00    +0.048 C 
ATOM     14  C   LIG    1       26.423 -20.841   7.953  0.00  0.00    -0.002 A 
ATOM     15  S   LIG    1       27.861 -20.372   8.771  0.00  0.00    -0.101 S 
ATOM     16  C   LIG    1       28.840 -21.301   7.732  0.00  0.00    +0.046 A 
ATOM     17  C   LIG    1       28.101 -21.946   6.768  0.00  0.00    +0.016 A 
ATOM     18  C   LIG    1       24.445 -21.322   4.158  0.00  0.00    +0.009 A 
ATOM     19  C   LIG    1       26.690 -21.741   6.932  0.00  0.00    -0.007 A 
ATOM     20  C   LIG    1       24.503 -24.405   5.084  0.00  0.00    +0.047 C 
ATOM     21  C   LIG    1       23.892 -25.615   5.814  0.00  0.00    +0.088 C 
ENDROOT
TORSDOF 0
ENDMDL
MODEL 7
REMARK VINA RESULT:      -5.6      9.321     11.113
REMARK  Name = *****
REMARK                            x       y       z     vdW  Elec       q    Type
REMARK                         _______ _______ _______ _____ _____    ______ ____
ROOT
ATOM      1  C   LIG    1       26.124 -26.007  13.234  0.00  0.00    +0.105 C 
ATOM      2  N   LIG    1       25.479 -26.884  14.209  0.00  0.00    -0.305 NA
ATOM      3  C   LIG    1       24.198 -26.339  14.680  0.00  0.00    +0.088 C 
ATOM      4  C   LIG    1       23.066 -26.362  13.637  0.00  0.00    +0.047 C 
ATOM      5  C   LIG    1       22.848 -27.746  13.037  0.00  0.00    -0.059 C 
ATOM      6  C   LIG    1       21.629 -28.354  12.931  0.00  0.00    -0.010 C 
ATOM      7  C   LIG    1       21.575 -29.751  12.404  0.00  0.00    -0.014 A 
ATOM      8  C   LIG    1       21.199 -30.809  13.254  0.00  0.00    -0.039 A 
ATOM      9  C   LIG    1       21.193 -32.123  12.759  0.00  0.00    +0.004 A 
ATOM     10  C   LIG    1       21.549 -32.383  11.436  0.00  0.00    +0.000 A 
ATOM     11  C   LIG    1       21.892 -31.335  10.586  0.00  0.00    +0.001 A 
ATOM     12  C   LIG    1       20.787 -30.537  14.684  0.00  0.00    +0.041 C 
ATOM     13  C   LIG    1       19.463 -29.774  14.777  0.00  0.00    +0.048 C 
ATOM     14  C   LIG    1       19.487 -28.367  14.229  0.00  0.00    -0.002 A 
ATOM     15  S   LIG    1       18.185 -27.324  14.645  0.00  0.00    -0.101 S 
ATOM     16  C   LIG    1       18.788 -26.064  13.670  0.00  0.00    +0.046 A 
ATOM     17  C   LIG    1       19.948 -26.424  13.023  0.00  0.00    +0.016 A 
ATOM     18  C   LIG    1       21.891 -30.023  11.062  0.00  0.00    +0.009 A 
ATOM     19  C   LIG    1       20.399 -27.734  13.397  0.00  0.00    -0.007 A 
ATOM     20  C   LIG    1       24.177 -28.365  12.609  0.00  0.00    +0.047 C 
ATOM     21  C   LIG    1       25.272 -28.242  13.684  0.00  0.00    +0.088 C 
ENDROOT
TORSDOF 0
ENDMDL
MODEL 8
REMARK VINA RESULT:      -5.6      9.955     12.278
REMARK  Name = *****
REMARK                            x       y       z     vdW  Elec       q    Type
REMARK                         _______ _______ _______ _____ _____    ______ ____
ROOT
ATOM      1  C   LIG    1       22.851 -32.742   9.582  0.00  0.00    +0.105 C 
ATOM      2  N   LIG    1       22.089 -31.496   9.518  0.00  0.00    -0.305 NA
ATOM      3  C   LIG    1       20.885 -31.541  10.359  0.00  0.00    +0.088 C 
ATOM      4  C   LIG    1       21.156 -31.510  11.874  0.00  0.00    +0.047 C 
ATOM      5  C   LIG    1       22.032 -30.335  12.290  0.00  0.00    -0.059 C 
ATOM      6  C   LIG    1       21.739 -29.484  13.318  0.00  0.00    -0.010 C 
ATOM      7  C   LIG    1       22.644 -28.320  13.557  0.00  0.00    -0.014 A 
ATOM      8  C   LIG    1       22.181 -27.010  13.325  0.00  0.00    -0.039 A 
ATOM      9  C   LIG    1       23.053 -25.926  13.513  0.00  0.00    +0.004 A 
ATOM     10  C   LIG    1       24.367 -26.138  13.931  0.00  0.00    +0.000 A 
ATOM     11  C   LIG    1       24.818 -27.430  14.190  0.00  0.00    +0.001 A 
ATOM     12  C   LIG    1       20.751 -26.766  12.896  0.00  0.00    +0.041 C 
ATOM     13  C   LIG    1       19.742 -27.103  13.997  0.00  0.00    +0.048 C 
ATOM     14  C   LIG    1       19.666 -28.563  14.377  0.00  0.00    -0.002 A 
ATOM     15  S   LIG    1       18.310 -29.078  15.301  0.00  0.00    -0.101 S 
ATOM     16  C   LIG    1       18.909 -30.668  15.427  0.00  0.00    +0.046 A 
ATOM     17  C   LIG    1       20.124 -30.811  14.798  0.00  0.00    +0.016 A 
ATOM     18  C   LIG    1       23.957 -28.515  14.019  0.00  0.00    +0.009 A 
ATOM     19  C   LIG    1       20.536 -29.613  14.125  0.00  0.00    -0.007 A 
ATOM     20  C   LIG    1       23.255 -30.223  11.381  0.00  0.00    +0.047 C 
ATOM     21  C   LIG    1       22.903 -30.328   9.885  0.00  0.00    +0.088 C 
ENDROOT
TORSDOF 0
ENDMDL
MODEL 9
REMARK VINA RESULT:      -5.4      9.739     11.892
REMARK  Name = *****
REMARK                            x       y       z     vdW  Elec       q    Type
REMARK                         _______ _______ _______ _____ _____    ______ ____
ROOT
ATOM      1  C   LIG    1       21.340 -33.750  14.643  0.00  0.00    +0.105 C 
ATOM      2  N   LIG    1       22.706 -33.231  14.650  0.00  0.00    -0.305 NA
ATOM      3  C   LIG    1       23.347 -33.343  13.332  0.00  0.00    +0.088 C 
ATOM      4  C   LIG    1       22.794 -32.384  12.263  0.00  0.00    +0.047 C 
ATOM      5  C   LIG    1       22.802 -30.929  12.718  0.00  0.00    -0.059 C 
ATOM      6  C   LIG    1       23.304 -29.896  11.979  0.00  0.00    -0.010 C 
ATOM      7  C   LIG    1       23.329 -28.532  12.589  0.00  0.00    -0.014 A 
ATOM      8  C   LIG    1       24.560 -27.925  12.904  0.00  0.00    -0.039 A 
ATOM      9  C   LIG    1       24.570 -26.661  13.516  0.00  0.00    +0.004 A 
ATOM     10  C   LIG    1       23.373 -26.005  13.804  0.00  0.00    +0.000 A 
ATOM     11  C   LIG    1       22.156 -26.590  13.466  0.00  0.00    +0.001 A 
ATOM     12  C   LIG    1       25.864 -28.616  12.573  0.00  0.00    +0.041 C 
ATOM     13  C   LIG    1       26.111 -28.712  11.065  0.00  0.00    +0.048 C 
ATOM     14  C   LIG    1       25.141 -29.585  10.305  0.00  0.00    -0.002 A 
ATOM     15  S   LIG    1       25.570 -30.056   8.709  0.00  0.00    -0.101 S 
ATOM     16  C   LIG    1       24.088 -30.860   8.470  0.00  0.00    +0.046 A 
ATOM     17  C   LIG    1       23.268 -30.764   9.570  0.00  0.00    +0.016 A 
ATOM     18  C   LIG    1       22.133 -27.841  12.847  0.00  0.00    +0.009 A 
ATOM     19  C   LIG    1       23.898 -30.086  10.665  0.00  0.00    -0.007 A 
ATOM     20  C   LIG    1       22.208 -30.798  14.120  0.00  0.00    +0.047 C 
ATOM     21  C   LIG    1       22.769 -31.836  15.110  0.00  0.00    +0.088 C 
ENDROOT
TORSDOF 0
ENDMDL
