MODEL 1
REMARK VINA RESULT:      23.2      0.000      0.000
REMARK  Name = *****
REMARK                            x       y       z     vdW  Elec       q    Type
REMARK                         _______ _______ _______ _____ _____    ______ ____
ROOT
ATOM      1  C   LIG    1       25.683 -19.127   3.699  0.00  0.00    +0.015 C 
ATOM      2  C   LIG    1       26.013 -18.782   2.222  0.00  0.00    +0.018 C 
ATOM      3  C   LIG    1       25.040 -20.589   3.924  0.00  0.00    +0.128 C 
ATOM      4  C   LIG    1       23.594 -21.174   3.550  0.00  0.00    +0.022 C 
ATOM      5  C   LIG    1       23.474 -21.571   2.064  0.00  0.00    +0.010 C 
ATOM      6  C   LIG    1       22.245 -20.673   4.297  0.00  0.00    -0.014 C 
ATOM      7  C   LIG    1       22.398 -19.331   4.959  0.00  0.00    +0.071 C 
ATOM      8  C   LIG    1       23.045 -19.604   6.309  0.00  0.00    +0.138 C 
ATOM      9  O   LIG    1       23.497 -18.738   7.062  0.00  0.00    -0.297 OA
ATOM     10  C   LIG    1       22.794 -21.027   6.729  0.00  0.00    +0.075 C 
ATOM     11  C   LIG    1       22.498 -18.178   3.931  0.00  0.00    +0.018 C 
ATOM     12  C   LIG    1       22.780 -18.430   2.425  0.00  0.00    +0.016 C 
ATOM     13  C   LIG    1       20.985 -17.774   3.778  0.00  0.00    -0.004 C 
ATOM     14  C   LIG    1       20.433 -16.871   4.884  0.00  0.00    +0.008 C 
ATOM     15  C   LIG    1       20.126 -19.132   3.612  0.00  0.00    +0.004 C 
ATOM     16  C   LIG    1       23.622 -17.248   4.405  0.00  0.00    +0.184 C 
ATOM     17  C   LIG    1       20.920 -20.519   3.442  0.00  0.00    +0.008 C 
ATOM     18  C   LIG    1       21.967 -21.572   5.555  0.00  0.00    +0.015 C 
ATOM     19  C   LIG    1       25.054 -17.918   4.513  0.00  0.00    +0.058 C 
ENDROOT
BRANCH   1  21
ATOM     20  C   LIG    1       27.649 -19.701   5.397  0.00  0.00    +0.004 C 
ATOM     21  C   LIG    1       27.169 -19.144   4.274  0.00  0.00    -0.025 C 
ENDBRANCH   1  21
BRANCH   3  22
ATOM     22  O   LIG    1       25.192 -20.940   5.307  0.00  0.00    -0.391 OA
ATOM     23  H   LIG    1       25.210 -20.130   5.844  0.00  0.00    +0.210 HD
ENDBRANCH   3  22
BRANCH  16  24
ATOM     24  O   LIG    1       23.671 -16.039   3.613  0.00  0.00    -0.460 OA
BRANCH  24  25
ATOM     25  C   LIG    1       23.413 -14.877   4.277  0.00  0.00    +0.317 C 
ATOM     26  O   LIG    1       23.074 -14.789   5.455  0.00  0.00    -0.250 OA
BRANCH  25  27
ATOM     27  C   LIG    1       23.454 -13.699   3.361  0.00  0.00    +0.189 C 
BRANCH  27  28
ATOM     28  S   LIG    1       23.814 -12.191   4.321  0.00  0.00    -0.146 S 
BRANCH  28  29
ATOM     29  C   LIG    1       25.663 -12.264   4.443  0.00  0.00    +0.050 C 
ATOM     30  C   LIG    1       26.156 -13.303   5.470  0.00  0.00    +0.033 C 
ATOM     31  C   LIG    1       27.574 -13.823   5.174  0.00  0.00    +0.058 C 
ATOM     32  N   LIG    1       27.693 -14.337   3.807  0.00  0.00    -0.299 NA
ATOM     33  C   LIG    1       26.772 -15.407   3.459  0.00  0.00    +0.105 C 
ATOM     34  C   LIG    1       27.600 -13.128   2.981  0.00  0.00    +0.058 C 
ATOM     35  C   LIG    1       28.628 -12.231   3.678  0.00  0.00    +0.020 C 
ATOM     36  C   LIG    1       28.601 -12.684   5.140  0.00  0.00    +0.020 C 
ATOM     37  C   LIG    1       26.195 -12.506   3.015  0.00  0.00    +0.033 C 
ENDBRANCH  28  29
ENDBRANCH  27  28
ENDBRANCH  25  27
ENDBRANCH  24  25
ENDBRANCH  16  24
TORSDOF 7
ENDMDL
