MODEL 1
REMARK VINA RESULT:      -3.2      0.000      0.000
REMARK  Name = *****
REMARK                            x       y       z     vdW  Elec       q    Type
REMARK                         _______ _______ _______ _____ _____    ______ ____
ROOT
ATOM      1  C   LIG    1       25.340 -18.000   3.675  0.00  0.00    +0.041 A 
ATOM      2  C   LIG    1       26.061 -18.925   4.440  0.00  0.00    +0.062 A 
ATOM      3  C   LIG    1       25.482 -20.134   4.843  0.00  0.00    +0.163 A 
ATOM      4  C   LIG    1       24.159 -20.421   4.476  0.00  0.00    +0.168 A 
ATOM      5  C   LIG    1       23.459 -19.513   3.663  0.00  0.00    +0.050 A 
ATOM      6  C   LIG    1       24.039 -18.298   3.271  0.00  0.00    +0.017 A 
ENDROOT
BRANCH   1   8
ATOM      7  O   LIG    1       27.091 -16.838   2.650  0.00  0.00    -0.270 OA
ATOM      8  C   LIG    1       26.051 -16.752   3.280  0.00  0.00    +0.248 C 
ATOM      9  N   LIG    1       25.514 -15.562   3.763  0.00  0.00    -0.279 N 
ATOM     10  H   LIG    1       25.023 -15.633   4.650  0.00  0.00    +0.155 HD
BRANCH   9  11
ATOM     11  C   LIG    1       26.224 -14.348   3.515  0.00  0.00    +0.074 A 
ATOM     12  C   LIG    1       27.545 -14.190   3.960  0.00  0.00    +0.082 A 
ATOM     13 CL   LIG    1       28.373 -15.423   4.834  0.00  0.00    -0.080 Cl
ATOM     14  C   LIG    1       28.218 -13.017   3.636  0.00  0.00    +0.132 A 
ATOM     15  N   LIG    1       27.671 -11.998   2.931  0.00  0.00    -0.260 NA
ATOM     16  C   LIG    1       26.382 -12.158   2.548  0.00  0.00    +0.132 A 
ATOM     17  C   LIG    1       25.623 -13.289   2.821  0.00  0.00    +0.082 A 
ATOM     18 CL   LIG    1       23.938 -13.261   2.438  0.00  0.00    -0.080 Cl
ENDBRANCH   9  11
ENDBRANCH   1   8
BRANCH   3  19
ATOM     19  O   LIG    1       26.158 -21.085   5.554  0.00  0.00    -0.488 OA
BRANCH  19  20
ATOM     20  C   LIG    1       26.992 -20.656   6.622  0.00  0.00    +0.232 C 
BRANCH  20  21
ATOM     21  C   LIG    1       28.372 -20.433   6.085  0.00  0.00    +0.027 C 
ATOM     22  C   LIG    1       28.987 -19.058   6.117  0.00  0.00    +0.007 C 
ATOM     23  C   LIG    1       29.475 -20.120   7.061  0.00  0.00    +0.007 C 
ENDBRANCH  20  21
ENDBRANCH  19  20
ENDBRANCH   3  19
BRANCH   4  24
ATOM     24  O   LIG    1       23.477 -21.571   4.789  0.00  0.00    -0.430 OA
BRANCH  24  25
ATOM     25  C   LIG    1       22.384 -21.440   5.692  0.00  0.00    +0.541 C 
ATOM     26  F   LIG    1       21.246 -21.422   4.946  0.00  0.00    -0.166 F 
ATOM     27  F   LIG    1       22.453 -20.229   6.304  0.00  0.00    -0.166 F 
ENDBRANCH  24  25
ENDBRANCH   4  24
TORSDOF 7
ENDMDL
MODEL 2
REMARK VINA RESULT:      -2.6      4.171      7.992
REMARK  Name = *****
REMARK                            x       y       z     vdW  Elec       q    Type
REMARK                         _______ _______ _______ _____ _____    ______ ____
ROOT
ATOM      1  C   LIG    1       25.951 -16.851   3.608  0.00  0.00    +0.041 A 
ATOM      2  C   LIG    1       25.355 -15.774   2.941  0.00  0.00    +0.062 A 
ATOM      3  C   LIG    1       26.036 -14.562   2.777  0.00  0.00    +0.163 A 
ATOM      4  C   LIG    1       27.333 -14.425   3.291  0.00  0.00    +0.168 A 
ATOM      5  C   LIG    1       27.947 -15.527   3.912  0.00  0.00    +0.050 A 
ATOM      6  C   LIG    1       27.256 -16.736   4.084  0.00  0.00    +0.017 A 
ENDROOT
BRANCH   1   8
ATOM      7  O   LIG    1       25.294 -18.969   2.865  0.00  0.00    -0.270 OA
ATOM      8  C   LIG    1       25.152 -18.104   3.713  0.00  0.00    +0.248 C 
ATOM      9  N   LIG    1       24.209 -18.146   4.737  0.00  0.00    -0.279 N 
ATOM     10  H   LIG    1       23.822 -17.247   5.010  0.00  0.00    +0.155 HD
BRANCH   9  11
ATOM     11  C   LIG    1       23.335 -19.272   4.808  0.00  0.00    +0.074 A 
ATOM     12  C   LIG    1       22.020 -19.187   4.328  0.00  0.00    +0.082 A 
ATOM     13 CL   LIG    1       21.383 -17.736   3.649  0.00  0.00    -0.080 Cl
ATOM     14  C   LIG    1       21.228 -20.330   4.356  0.00  0.00    +0.132 A 
ATOM     15  N   LIG    1       21.638 -21.526   4.841  0.00  0.00    -0.260 NA
ATOM     16  C   LIG    1       22.899 -21.572   5.336  0.00  0.00    +0.132 A 
ATOM     17  C   LIG    1       23.767 -20.489   5.354  0.00  0.00    +0.082 A 
ATOM     18 CL   LIG    1       25.269 -20.653   6.196  0.00  0.00    -0.080 Cl
ENDBRANCH   9  11
ENDBRANCH   1   8
BRANCH   3  19
ATOM     19  O   LIG    1       25.512 -13.498   2.098  0.00  0.00    -0.488 OA
BRANCH  19  20
ATOM     20  C   LIG    1       24.285 -12.948   2.557  0.00  0.00    +0.232 C 
BRANCH  20  21
ATOM     21  C   LIG    1       24.583 -11.977   3.657  0.00  0.00    +0.027 C 
ATOM     22  C   LIG    1       23.474 -11.465   4.539  0.00  0.00    +0.007 C 
ATOM     23  C   LIG    1       24.468 -12.454   5.080  0.00  0.00    +0.007 C 
ENDBRANCH  20  21
ENDBRANCH  19  20
ENDBRANCH   3  19
BRANCH   4  24
ATOM     24  O   LIG    1       28.117 -13.302   3.187  0.00  0.00    -0.430 OA
BRANCH  24  25
ATOM     25  C   LIG    1       28.700 -12.817   4.393  0.00  0.00    +0.541 C 
ATOM     26  F   LIG    1       27.701 -12.726   5.313  0.00  0.00    -0.166 F 
ATOM     27  F   LIG    1       29.147 -11.550   4.194  0.00  0.00    -0.166 F 
ENDBRANCH  24  25
ENDBRANCH   4  24
TORSDOF 7
ENDMDL
MODEL 3
REMARK VINA RESULT:      -2.2      0.388      1.844
REMARK  Name = *****
REMARK                            x       y       z     vdW  Elec       q    Type
REMARK                         _______ _______ _______ _____ _____    ______ ____
ROOT
ATOM      1  C   LIG    1       25.348 -17.985   3.702  0.00  0.00    +0.041 A 
ATOM      2  C   LIG    1       26.077 -18.956   4.398  0.00  0.00    +0.062 A 
ATOM      3  C   LIG    1       25.484 -20.164   4.786  0.00  0.00    +0.163 A 
ATOM      4  C   LIG    1       24.138 -20.402   4.473  0.00  0.00    +0.168 A 
ATOM      5  C   LIG    1       23.426 -19.446   3.727  0.00  0.00    +0.050 A 
ATOM      6  C   LIG    1       24.021 -18.233   3.351  0.00  0.00    +0.017 A 
ENDROOT
BRANCH   1   8
ATOM      7  O   LIG    1       27.193 -16.835   2.843  0.00  0.00    -0.270 OA
ATOM      8  C   LIG    1       26.074 -16.743   3.317  0.00  0.00    +0.248 C 
ATOM      9  N   LIG    1       25.445 -15.542   3.634  0.00  0.00    -0.279 N 
ATOM     10  H   LIG    1       24.838 -15.570   4.449  0.00  0.00    +0.155 HD
BRANCH   9  11
ATOM     11  C   LIG    1       26.151 -14.323   3.398  0.00  0.00    +0.074 A 
ATOM     12  C   LIG    1       25.568 -13.296   2.643  0.00  0.00    +0.082 A 
ATOM     13 CL   LIG    1       23.997 -13.443   1.950  0.00  0.00    -0.080 Cl
ATOM     14  C   LIG    1       26.266 -12.102   2.498  0.00  0.00    +0.132 A 
ATOM     15  N   LIG    1       27.493 -11.871   3.023  0.00  0.00    -0.260 NA
ATOM     16  C   LIG    1       28.051 -12.894   3.713  0.00  0.00    +0.132 A 
ATOM     17  C   LIG    1       27.438 -14.123   3.915  0.00  0.00    +0.082 A 
ATOM     18 CL   LIG    1       28.358 -15.391   4.647  0.00  0.00    -0.080 Cl
ENDBRANCH   9  11
ENDBRANCH   1   8
BRANCH   3  19
ATOM     19  O   LIG    1       26.166 -21.158   5.429  0.00  0.00    -0.488 OA
BRANCH  19  20
ATOM     20  C   LIG    1       26.394 -21.019   6.824  0.00  0.00    +0.232 C 
BRANCH  20  21
ATOM     21  C   LIG    1       27.872 -20.976   7.062  0.00  0.00    +0.027 C 
ATOM     22  C   LIG    1       28.810 -20.605   5.943  0.00  0.00    +0.007 C 
ATOM     23  C   LIG    1       28.556 -19.635   7.062  0.00  0.00    +0.007 C 
ENDBRANCH  20  21
ENDBRANCH  19  20
ENDBRANCH   3  19
BRANCH   4  24
ATOM     24  O   LIG    1       23.439 -21.544   4.777  0.00  0.00    -0.430 OA
BRANCH  24  25
ATOM     25  C   LIG    1       22.324 -21.397   5.651  0.00  0.00    +0.541 C 
ATOM     26  F   LIG    1       21.205 -21.390   4.877  0.00  0.00    -0.166 F 
ATOM     27  F   LIG    1       22.381 -20.177   6.246  0.00  0.00    -0.166 F 
ENDBRANCH  24  25
ENDBRANCH   4  24
TORSDOF 7
ENDMDL
MODEL 4
REMARK VINA RESULT:      -1.8      1.564      1.955
REMARK  Name = *****
REMARK                            x       y       z     vdW  Elec       q    Type
REMARK                         _______ _______ _______ _____ _____    ______ ____
ROOT
ATOM      1  C   LIG    1       23.860 -16.951   4.060  0.00  0.00    +0.041 A 
ATOM      2  C   LIG    1       24.622 -18.087   3.763  0.00  0.00    +0.062 A 
ATOM      3  C   LIG    1       24.033 -19.355   3.699  0.00  0.00    +0.163 A 
ATOM      4  C   LIG    1       22.657 -19.488   3.938  0.00  0.00    +0.168 A 
ATOM      5  C   LIG    1       21.887 -18.338   4.183  0.00  0.00    +0.050 A 
ATOM      6  C   LIG    1       22.485 -17.071   4.257  0.00  0.00    +0.017 A 
ENDROOT
BRANCH   1   8
ATOM      7  O   LIG    1       24.032 -14.682   4.599  0.00  0.00    -0.270 OA
ATOM      8  C   LIG    1       24.576 -15.645   4.085  0.00  0.00    +0.248 C 
ATOM      9  N   LIG    1       25.793 -15.600   3.411  0.00  0.00    -0.279 N 
ATOM     10  H   LIG    1       25.878 -16.236   2.622  0.00  0.00    +0.155 HD
BRANCH   9  11
ATOM     11  C   LIG    1       26.462 -14.344   3.300  0.00  0.00    +0.074 A 
ATOM     12  C   LIG    1       27.672 -14.118   3.971  0.00  0.00    +0.082 A 
ATOM     13 CL   LIG    1       28.408 -15.317   4.967  0.00  0.00    -0.080 Cl
ATOM     14  C   LIG    1       28.321 -12.903   3.778  0.00  0.00    +0.132 A 
ATOM     15  N   LIG    1       27.845 -11.904   2.997  0.00  0.00    -0.260 NA
ATOM     16  C   LIG    1       26.654 -12.131   2.392  0.00  0.00    +0.132 A 
ATOM     17  C   LIG    1       25.929 -13.308   2.520  0.00  0.00    +0.082 A 
ATOM     18 CL   LIG    1       24.338 -13.371   1.847  0.00  0.00    -0.080 Cl
ENDBRANCH   9  11
ENDBRANCH   1   8
BRANCH   3  19
ATOM     19  O   LIG    1       24.727 -20.485   3.372  0.00  0.00    -0.488 OA
BRANCH  19  20
ATOM     20  C   LIG    1       25.213 -21.302   4.428  0.00  0.00    +0.232 C 
BRANCH  20  21
ATOM     21  C   LIG    1       25.753 -20.412   5.505  0.00  0.00    +0.027 C 
ATOM     22  C   LIG    1       25.363 -20.637   6.943  0.00  0.00    +0.007 C 
ATOM     23  C   LIG    1       26.747 -20.990   6.477  0.00  0.00    +0.007 C 
ENDBRANCH  20  21
ENDBRANCH  19  20
ENDBRANCH   3  19
BRANCH   4  24
ATOM     24  O   LIG    1       21.951 -20.665   3.892  0.00  0.00    -0.430 OA
BRANCH  24  25
ATOM     25  C   LIG    1       21.839 -21.391   5.112  0.00  0.00    +0.541 C 
ATOM     26  F   LIG    1       20.512 -21.571   5.352  0.00  0.00    -0.166 F 
ATOM     27  F   LIG    1       22.308 -20.626   6.131  0.00  0.00    -0.166 F 
ENDBRANCH  24  25
ENDBRANCH   4  24
TORSDOF 7
ENDMDL
MODEL 5
REMARK VINA RESULT:      -0.4      1.674      3.960
REMARK  Name = *****
REMARK                            x       y       z     vdW  Elec       q    Type
REMARK                         _______ _______ _______ _____ _____    ______ ____
ROOT
ATOM      1  C   LIG    1       25.423 -18.156   3.662  0.00  0.00    +0.041 A 
ATOM      2  C   LIG    1       24.026 -18.071   3.684  0.00  0.00    +0.062 A 
ATOM      3  C   LIG    1       23.240 -19.187   3.998  0.00  0.00    +0.163 A 
ATOM      4  C   LIG    1       23.864 -20.408   4.292  0.00  0.00    +0.168 A 
ATOM      5  C   LIG    1       25.268 -20.473   4.320  0.00  0.00    +0.050 A 
ATOM      6  C   LIG    1       26.050 -19.355   3.994  0.00  0.00    +0.017 A 
ENDROOT
BRANCH   1   8
ATOM      7  O   LIG    1       27.291 -16.996   2.867  0.00  0.00    -0.270 OA
ATOM      8  C   LIG    1       26.169 -16.908   3.336  0.00  0.00    +0.248 C 
ATOM      9  N   LIG    1       25.553 -15.713   3.699  0.00  0.00    -0.279 N 
ATOM     10  H   LIG    1       24.939 -15.767   4.506  0.00  0.00    +0.155 HD
BRANCH   9  11
ATOM     11  C   LIG    1       26.278 -14.496   3.520  0.00  0.00    +0.074 A 
ATOM     12  C   LIG    1       27.564 -14.345   4.057  0.00  0.00    +0.082 A 
ATOM     13 CL   LIG    1       28.331 -15.592   4.966  0.00  0.00    -0.080 Cl
ATOM     14  C   LIG    1       28.257 -13.167   3.798  0.00  0.00    +0.132 A 
ATOM     15  N   LIG    1       27.759 -12.137   3.074  0.00  0.00    -0.260 NA
ATOM     16  C   LIG    1       26.499 -12.291   2.601  0.00  0.00    +0.132 A 
ATOM     17  C   LIG    1       25.725 -13.425   2.803  0.00  0.00    +0.082 A 
ATOM     18 CL   LIG    1       24.069 -13.391   2.305  0.00  0.00    -0.080 Cl
ENDBRANCH   9  11
ENDBRANCH   1   8
BRANCH   3  19
ATOM     19  O   LIG    1       21.877 -19.143   4.074  0.00  0.00    -0.488 OA
BRANCH  19  20
ATOM     20  C   LIG    1       21.245 -17.870   4.040  0.00  0.00    +0.232 C 
BRANCH  20  21
ATOM     21  C   LIG    1       19.802 -18.067   3.694  0.00  0.00    +0.027 C 
ATOM     22  C   LIG    1       19.350 -18.012   2.258  0.00  0.00    +0.007 C 
ATOM     23  C   LIG    1       19.405 -19.330   2.977  0.00  0.00    +0.007 C 
ENDBRANCH  20  21
ENDBRANCH  19  20
ENDBRANCH   3  19
BRANCH   4  24
ATOM     24  O   LIG    1       23.219 -21.572   4.631  0.00  0.00    -0.430 OA
BRANCH  24  25
ATOM     25  C   LIG    1       22.418 -21.538   5.809  0.00  0.00    +0.541 C 
ATOM     26  F   LIG    1       21.146 -21.250   5.421  0.00  0.00    -0.166 F 
ATOM     27  F   LIG    1       22.819 -20.503   6.591  0.00  0.00    -0.166 F 
ENDBRANCH  24  25
ENDBRANCH   4  24
TORSDOF 7
ENDMDL
