MODEL 1
REMARK VINA RESULT:      -4.0      0.000      0.000
REMARK  Name = *****
REMARK                            x       y       z     vdW  Elec       q    Type
REMARK                         _______ _______ _______ _____ _____    ______ ____
ROOT
ATOM      1  C   LIG    1       23.825 -19.354   3.600  0.00  0.00    +0.122 A 
ATOM      2  C   LIG    1       24.880 -18.473   3.355  0.00  0.00    +0.062 A 
ATOM      3  C   LIG    1       24.703 -17.102   3.664  0.00  0.00    +0.044 A 
ATOM      4  C   LIG    1       23.513 -16.617   4.193  0.00  0.00    +0.081 A 
ATOM      5  N   LIG    1       23.478 -15.257   4.428  0.00  0.00    -0.225 NA
ATOM      6  C   LIG    1       24.605 -14.691   4.074  0.00  0.00    +0.161 A 
ATOM      7  C   LIG    1       22.471 -17.513   4.441  0.00  0.00    +0.032 A 
ATOM      8  S   LIG    1       25.804 -15.809   3.485  0.00  0.00    -0.052 S 
ATOM      9  C   LIG    1       22.634 -18.869   4.142  0.00  0.00    +0.048 A 
ENDROOT
BRANCH   6  10
ATOM     10  N   LIG    1       24.858 -13.337   4.172  0.00  0.00    -0.316 N 
ATOM     11  C   LIG    1       24.241 -12.488   3.158  0.00  0.00    +0.131 C 
ATOM     12  C   LIG    1       26.159 -12.895   4.648  0.00  0.00    +0.131 C 
ENDBRANCH   6  10
BRANCH   1  13
ATOM     13  O   LIG    1       24.041 -20.668   3.266  0.00  0.00    -0.491 OA
BRANCH  13  14
ATOM     14  C   LIG    1       24.429 -21.567   4.322  0.00  0.00    +0.244 C 
BRANCH  14  15
ATOM     15  C   LIG    1       25.734 -21.099   5.011  0.00  0.00    +0.125 C 
BRANCH  15  16
ATOM     16  N   LIG    1       25.773 -21.120   6.495  0.00  0.00    -0.300 NA
BRANCH  16  18
ATOM     17  C   LIG    1       27.948 -19.936   6.019  0.00  0.00    +0.020 C 
ATOM     18  C   LIG    1       26.959 -20.461   7.062  0.00  0.00    +0.081 C 
ENDBRANCH  16  18
BRANCH  16  19
ATOM     19  C   LIG    1       24.507 -20.606   7.054  0.00  0.00    +0.081 C 
ATOM     20  C   LIG    1       23.319 -21.569   7.061  0.00  0.00    +0.020 C 
ENDBRANCH  16  19
ENDBRANCH  15  16
ENDBRANCH  14  15
ENDBRANCH  13  14
ENDBRANCH   1  13
TORSDOF 7
ENDMDL
MODEL 2
REMARK VINA RESULT:      -3.1      0.998      2.312
REMARK  Name = *****
REMARK                            x       y       z     vdW  Elec       q    Type
REMARK                         _______ _______ _______ _____ _____    ______ ____
ROOT
ATOM      1  C   LIG    1       24.064 -19.157   3.713  0.00  0.00    +0.122 A 
ATOM      2  C   LIG    1       23.266 -18.081   4.103  0.00  0.00    +0.062 A 
ATOM      3  C   LIG    1       23.811 -16.775   4.035  0.00  0.00    +0.044 A 
ATOM      4  C   LIG    1       25.110 -16.544   3.600  0.00  0.00    +0.081 A 
ATOM      5  N   LIG    1       25.511 -15.223   3.602  0.00  0.00    -0.225 NA
ATOM      6  C   LIG    1       24.556 -14.444   4.045  0.00  0.00    +0.161 A 
ATOM      7  C   LIG    1       25.892 -17.631   3.204  0.00  0.00    +0.032 A 
ATOM      8  S   LIG    1       23.079 -15.283   4.430  0.00  0.00    -0.052 S 
ATOM      9  C   LIG    1       25.365 -18.925   3.266  0.00  0.00    +0.048 A 
ENDROOT
BRANCH   6  10
ATOM     10  N   LIG    1       24.671 -13.074   4.181  0.00  0.00    -0.316 N 
ATOM     11  C   LIG    1       24.387 -12.279   2.990  0.00  0.00    +0.131 C 
ATOM     12  C   LIG    1       25.697 -12.535   5.060  0.00  0.00    +0.131 C 
ENDBRANCH   6  10
BRANCH   1  13
ATOM     13  O   LIG    1       23.496 -20.403   3.816  0.00  0.00    -0.491 OA
BRANCH  13  14
ATOM     14  C   LIG    1       24.363 -21.504   4.145  0.00  0.00    +0.244 C 
BRANCH  14  15
ATOM     15  C   LIG    1       25.626 -21.022   4.898  0.00  0.00    +0.125 C 
BRANCH  15  16
ATOM     16  N   LIG    1       25.482 -20.682   6.336  0.00  0.00    -0.300 NA
BRANCH  16  18
ATOM     17  C   LIG    1       23.104 -21.107   7.062  0.00  0.00    +0.020 C 
ATOM     18  C   LIG    1       24.562 -21.572   7.062  0.00  0.00    +0.081 C 
ENDBRANCH  16  18
BRANCH  16  19
ATOM     19  C   LIG    1       26.807 -20.575   6.979  0.00  0.00    +0.081 C 
ATOM     20  C   LIG    1       27.939 -20.003   6.127  0.00  0.00    +0.020 C 
ENDBRANCH  16  19
ENDBRANCH  15  16
ENDBRANCH  14  15
ENDBRANCH  13  14
ENDBRANCH   1  13
TORSDOF 7
ENDMDL
MODEL 3
REMARK VINA RESULT:      -3.0      2.089      3.405
REMARK  Name = *****
REMARK                            x       y       z     vdW  Elec       q    Type
REMARK                         _______ _______ _______ _____ _____    ______ ____
ROOT
ATOM      1  C   LIG    1       26.339 -19.513   4.243  0.00  0.00    +0.122 A 
ATOM      2  C   LIG    1       25.670 -18.425   3.679  0.00  0.00    +0.062 A 
ATOM      3  C   LIG    1       26.300 -17.156   3.706  0.00  0.00    +0.044 A 
ATOM      4  C   LIG    1       27.551 -16.971   4.280  0.00  0.00    +0.081 A 
ATOM      5  N   LIG    1       28.033 -15.677   4.249  0.00  0.00    -0.225 NA
ATOM      6  C   LIG    1       27.173 -14.870   3.680  0.00  0.00    +0.161 A 
ATOM      7  C   LIG    1       28.211 -18.071   4.831  0.00  0.00    +0.032 A 
ATOM      8  S   LIG    1       25.738 -15.665   3.093  0.00  0.00    -0.052 S 
ATOM      9  C   LIG    1       27.600 -19.329   4.809  0.00  0.00    +0.048 A 
ENDROOT
BRANCH   6  10
ATOM     10  N   LIG    1       27.368 -13.511   3.523  0.00  0.00    -0.316 N 
ATOM     11  C   LIG    1       26.524 -12.846   2.536  0.00  0.00    +0.131 C 
ATOM     12  C   LIG    1       28.710 -12.970   3.662  0.00  0.00    +0.131 C 
ENDBRANCH   6  10
BRANCH   1  13
ATOM     13  O   LIG    1       25.678 -20.716   4.208  0.00  0.00    -0.491 OA
BRANCH  13  14
ATOM     14  C   LIG    1       24.430 -20.768   3.490  0.00  0.00    +0.244 C 
BRANCH  14  15
ATOM     15  C   LIG    1       23.308 -21.395   4.353  0.00  0.00    +0.125 C 
BRANCH  15  16
ATOM     16  N   LIG    1       22.373 -20.471   5.041  0.00  0.00    -0.300 NA
BRANCH  16  18
ATOM     17  C   LIG    1       23.773 -21.034   7.062  0.00  0.00    +0.020 C 
ATOM     18  C   LIG    1       22.841 -20.039   6.367  0.00  0.00    +0.081 C 
ENDBRANCH  16  18
BRANCH  16  19
ATOM     19  C   LIG    1       22.018 -19.340   4.160  0.00  0.00    +0.081 C 
ATOM     20  C   LIG    1       22.340 -17.939   4.678  0.00  0.00    +0.020 C 
ENDBRANCH  16  19
ENDBRANCH  15  16
ENDBRANCH  14  15
ENDBRANCH  13  14
ENDBRANCH   1  13
TORSDOF 7
ENDMDL
MODEL 4
REMARK VINA RESULT:      -2.7      2.352      6.886
REMARK  Name = *****
REMARK                            x       y       z     vdW  Elec       q    Type
REMARK                         _______ _______ _______ _____ _____    ______ ____
ROOT
ATOM      1  C   LIG    1       26.752 -17.102   3.456  0.00  0.00    +0.122 A 
ATOM      2  C   LIG    1       25.374 -17.324   3.431  0.00  0.00    +0.062 A 
ATOM      3  C   LIG    1       24.862 -18.469   4.089  0.00  0.00    +0.044 A 
ATOM      4  C   LIG    1       25.691 -19.371   4.745  0.00  0.00    +0.081 A 
ATOM      5  N   LIG    1       25.054 -20.449   5.326  0.00  0.00    -0.225 NA
ATOM      6  C   LIG    1       23.763 -20.401   5.115  0.00  0.00    +0.161 A 
ATOM      7  C   LIG    1       27.066 -19.129   4.768  0.00  0.00    +0.032 A 
ATOM      8  S   LIG    1       23.241 -18.989   4.236  0.00  0.00    -0.052 S 
ATOM      9  C   LIG    1       27.584 -18.001   4.123  0.00  0.00    +0.048 A 
ENDROOT
BRANCH   6  10
ATOM     10  N   LIG    1       22.866 -21.354   5.557  0.00  0.00    -0.316 N 
ATOM     11  C   LIG    1       21.650 -21.516   4.767  0.00  0.00    +0.131 C 
ATOM     12  C   LIG    1       22.714 -21.570   6.987  0.00  0.00    +0.131 C 
ENDBRANCH   6  10
BRANCH   1  13
ATOM     13  O   LIG    1       27.199 -15.988   2.788  0.00  0.00    -0.491 OA
BRANCH  13  14
ATOM     14  C   LIG    1       27.563 -14.841   3.578  0.00  0.00    +0.244 C 
BRANCH  14  15
ATOM     15  C   LIG    1       27.157 -13.521   2.878  0.00  0.00    +0.125 C 
BRANCH  15  16
ATOM     16  N   LIG    1       25.826 -12.952   3.205  0.00  0.00    -0.300 NA
BRANCH  16  18
ATOM     17  C   LIG    1       24.274 -11.532   1.815  0.00  0.00    +0.020 C 
ATOM     18  C   LIG    1       24.909 -12.903   2.056  0.00  0.00    +0.081 C 
ENDBRANCH  16  18
BRANCH  16  19
ATOM     19  C   LIG    1       25.243 -13.635   4.378  0.00  0.00    +0.081 C 
ATOM     20  C   LIG    1       23.946 -14.410   4.145  0.00  0.00    +0.020 C 
ENDBRANCH  16  19
ENDBRANCH  15  16
ENDBRANCH  14  15
ENDBRANCH  13  14
ENDBRANCH   1  13
TORSDOF 7
ENDMDL
MODEL 5
REMARK VINA RESULT:      -2.3      1.282      1.926
REMARK  Name = *****
REMARK                            x       y       z     vdW  Elec       q    Type
REMARK                         _______ _______ _______ _____ _____    ______ ____
ROOT
ATOM      1  C   LIG    1       22.702 -18.269   4.184  0.00  0.00    +0.122 A 
ATOM      2  C   LIG    1       23.969 -17.976   3.677  0.00  0.00    +0.062 A 
ATOM      3  C   LIG    1       24.448 -16.647   3.782  0.00  0.00    +0.044 A 
ATOM      4  C   LIG    1       23.692 -15.638   4.365  0.00  0.00    +0.081 A 
ATOM      5  N   LIG    1       24.279 -14.389   4.383  0.00  0.00    -0.225 NA
ATOM      6  C   LIG    1       25.458 -14.417   3.812  0.00  0.00    +0.161 A 
ATOM      7  C   LIG    1       22.430 -15.951   4.876  0.00  0.00    +0.032 A 
ATOM      8  S   LIG    1       25.944 -16.001   3.270  0.00  0.00    -0.052 S 
ATOM      9  C   LIG    1       21.946 -17.259   4.779  0.00  0.00    +0.048 A 
ENDROOT
BRANCH   6  10
ATOM     10  N   LIG    1       26.275 -13.314   3.661  0.00  0.00    -0.316 N 
ATOM     11  C   LIG    1       26.178 -12.605   2.389  0.00  0.00    +0.131 C 
ATOM     12  C   LIG    1       27.596 -13.326   4.270  0.00  0.00    +0.131 C 
ENDBRANCH   6  10
BRANCH   1  13
ATOM     13  O   LIG    1       22.276 -19.567   4.040  0.00  0.00    -0.491 OA
BRANCH  13  14
ATOM     14  C   LIG    1       21.988 -20.309   5.240  0.00  0.00    +0.244 C 
BRANCH  14  15
ATOM     15  C   LIG    1       23.121 -20.156   6.284  0.00  0.00    +0.125 C 
BRANCH  15  16
ATOM     16  N   LIG    1       24.498 -20.512   5.860  0.00  0.00    -0.300 NA
BRANCH  16  18
ATOM     17  C   LIG    1       26.857 -20.435   6.749  0.00  0.00    +0.020 C 
ATOM     18  C   LIG    1       25.396 -20.829   6.981  0.00  0.00    +0.081 C 
ENDBRANCH  16  18
BRANCH  16  19
ATOM     19  C   LIG    1       24.466 -21.571   4.831  0.00  0.00    +0.081 C 
ATOM     20  C   LIG    1       24.909 -21.173   3.423  0.00  0.00    +0.020 C 
ENDBRANCH  16  19
ENDBRANCH  15  16
ENDBRANCH  14  15
ENDBRANCH  13  14
ENDBRANCH   1  13
TORSDOF 7
ENDMDL
MODEL 6
REMARK VINA RESULT:      -1.8      2.756      6.449
REMARK  Name = *****
REMARK                            x       y       z     vdW  Elec       q    Type
REMARK                         _______ _______ _______ _____ _____    ______ ____
ROOT
ATOM      1  C   LIG    1       23.883 -14.828   4.016  0.00  0.00    +0.122 A 
ATOM      2  C   LIG    1       24.510 -16.008   3.611  0.00  0.00    +0.062 A 
ATOM      3  C   LIG    1       23.935 -17.245   3.994  0.00  0.00    +0.044 A 
ATOM      4  C   LIG    1       22.779 -17.311   4.760  0.00  0.00    +0.081 A 
ATOM      5  N   LIG    1       22.343 -18.583   5.072  0.00  0.00    -0.225 NA
ATOM      6  C   LIG    1       23.149 -19.489   4.576  0.00  0.00    +0.161 A 
ATOM      7  C   LIG    1       22.159 -16.121   5.149  0.00  0.00    +0.032 A 
ATOM      8  S   LIG    1       24.464 -18.831   3.641  0.00  0.00    -0.052 S 
ATOM      9  C   LIG    1       22.716 -14.894   4.777  0.00  0.00    +0.048 A 
ENDROOT
BRANCH   6  10
ATOM     10  N   LIG    1       22.983 -20.850   4.740  0.00  0.00    -0.316 N 
ATOM     11  C   LIG    1       21.610 -21.343   4.718  0.00  0.00    +0.131 C 
ATOM     12  C   LIG    1       23.890 -21.571   5.620  0.00  0.00    +0.131 C 
ENDBRANCH   6  10
BRANCH   1  13
ATOM     13  O   LIG    1       24.491 -13.657   3.635  0.00  0.00    -0.491 OA
BRANCH  13  14
ATOM     14  C   LIG    1       25.422 -13.718   2.538  0.00  0.00    +0.244 C 
BRANCH  14  15
ATOM     15  C   LIG    1       26.702 -12.902   2.839  0.00  0.00    +0.125 C 
BRANCH  15  16
ATOM     16  N   LIG    1       27.888 -13.643   3.337  0.00  0.00    -0.300 NA
BRANCH  16  18
ATOM     17  C   LIG    1       28.847 -12.122   5.105  0.00  0.00    +0.020 C 
ATOM     18  C   LIG    1       29.006 -12.771   3.728  0.00  0.00    +0.081 C 
ENDBRANCH  16  18
BRANCH  16  19
ATOM     19  C   LIG    1       27.498 -14.590   4.401  0.00  0.00    +0.081 C 
ATOM     20  C   LIG    1       27.634 -16.078   4.077  0.00  0.00    +0.020 C 
ENDBRANCH  16  19
ENDBRANCH  15  16
ENDBRANCH  14  15
ENDBRANCH  13  14
ENDBRANCH   1  13
TORSDOF 7
ENDMDL
MODEL 7
REMARK VINA RESULT:      -1.8      2.193      3.699
REMARK  Name = *****
REMARK                            x       y       z     vdW  Elec       q    Type
REMARK                         _______ _______ _______ _____ _____    ______ ____
ROOT
ATOM      1  C   LIG    1       27.227 -19.635   5.146  0.00  0.00    +0.122 A 
ATOM      2  C   LIG    1       26.357 -18.828   4.412  0.00  0.00    +0.062 A 
ATOM      3  C   LIG    1       26.769 -17.512   4.084  0.00  0.00    +0.044 A 
ATOM      4  C   LIG    1       28.002 -17.010   4.479  0.00  0.00    +0.081 A 
ATOM      5  N   LIG    1       28.261 -15.707   4.104  0.00  0.00    -0.225 NA
ATOM      6  C   LIG    1       27.249 -15.198   3.448  0.00  0.00    +0.161 A 
ATOM      7  C   LIG    1       28.865 -17.834   5.205  0.00  0.00    +0.032 A 
ATOM      8  S   LIG    1       25.934 -16.314   3.198  0.00  0.00    -0.052 S 
ATOM      9  C   LIG    1       28.470 -19.135   5.534  0.00  0.00    +0.048 A 
ENDROOT
BRANCH   6  10
ATOM     10  N   LIG    1       27.208 -13.905   2.962  0.00  0.00    -0.316 N 
ATOM     11  C   LIG    1       28.163 -12.966   3.541  0.00  0.00    +0.131 C 
ATOM     12  C   LIG    1       25.925 -13.335   2.580  0.00  0.00    +0.131 C 
ENDBRANCH   6  10
BRANCH   1  13
ATOM     13  O   LIG    1       26.772 -20.894   5.454  0.00  0.00    -0.491 OA
BRANCH  13  14
ATOM     14  C   LIG    1       26.068 -21.060   6.698  0.00  0.00    +0.244 C 
BRANCH  14  15
ATOM     15  C   LIG    1       24.552 -21.270   6.465  0.00  0.00    +0.125 C 
BRANCH  15  16
ATOM     16  N   LIG    1       23.950 -20.650   5.258  0.00  0.00    -0.300 NA
BRANCH  16  18
ATOM     17  C   LIG    1       24.093 -20.854   2.748  0.00  0.00    +0.020 C 
ATOM     18  C   LIG    1       23.901 -21.552   4.096  0.00  0.00    +0.081 C 
ENDBRANCH  16  18
BRANCH  16  19
ATOM     19  C   LIG    1       22.638 -20.054   5.580  0.00  0.00    +0.081 C 
ATOM     20  C   LIG    1       22.355 -18.667   5.004  0.00  0.00    +0.020 C 
ENDBRANCH  16  19
ENDBRANCH  15  16
ENDBRANCH  14  15
ENDBRANCH  13  14
ENDBRANCH   1  13
TORSDOF 7
ENDMDL
MODEL 8
REMARK VINA RESULT:      -1.4      2.776      7.215
REMARK  Name = *****
REMARK                            x       y       z     vdW  Elec       q    Type
REMARK                         _______ _______ _______ _____ _____    ______ ____
ROOT
ATOM      1  C   LIG    1       26.663 -15.729   3.067  0.00  0.00    +0.122 A 
ATOM      2  C   LIG    1       26.140 -17.017   3.195  0.00  0.00    +0.062 A 
ATOM      3  C   LIG    1       26.782 -17.924   4.075  0.00  0.00    +0.044 A 
ATOM      4  C   LIG    1       27.912 -17.566   4.799  0.00  0.00    +0.081 A 
ATOM      5  N   LIG    1       28.441 -18.556   5.603  0.00  0.00    -0.225 NA
ATOM      6  C   LIG    1       27.751 -19.665   5.496  0.00  0.00    +0.161 A 
ATOM      7  C   LIG    1       28.417 -16.270   4.667  0.00  0.00    +0.032 A 
ATOM      8  S   LIG    1       26.370 -19.540   4.442  0.00  0.00    -0.052 S 
ATOM      9  C   LIG    1       27.791 -15.366   3.802  0.00  0.00    +0.048 A 
ENDROOT
BRANCH   6  10
ATOM     10  N   LIG    1       28.053 -20.835   6.165  0.00  0.00    -0.316 N 
ATOM     11  C   LIG    1       26.923 -21.570   6.724  0.00  0.00    +0.131 C 
ATOM     12  C   LIG    1       29.288 -20.914   6.928  0.00  0.00    +0.131 C 
ENDBRANCH   6  10
BRANCH   1  13
ATOM     13  O   LIG    1       26.015 -14.897   2.187  0.00  0.00    -0.491 OA
BRANCH  13  14
ATOM     14  C   LIG    1       26.130 -13.478   2.409  0.00  0.00    +0.244 C 
BRANCH  14  15
ATOM     15  C   LIG    1       24.758 -12.773   2.275  0.00  0.00    +0.125 C 
BRANCH  15  16
ATOM     16  N   LIG    1       23.819 -12.875   3.420  0.00  0.00    -0.300 NA
BRANCH  16  18
ATOM     17  C   LIG    1       23.123 -15.048   4.494  0.00  0.00    +0.020 C 
ATOM     18  C   LIG    1       24.169 -13.937   4.376  0.00  0.00    +0.081 C 
ENDBRANCH  16  18
BRANCH  16  19
ATOM     19  C   LIG    1       23.641 -11.558   4.064  0.00  0.00    +0.081 C 
ATOM     20  C   LIG    1       24.063 -11.448   5.529  0.00  0.00    +0.020 C 
ENDBRANCH  16  19
ENDBRANCH  15  16
ENDBRANCH  14  15
ENDBRANCH  13  14
ENDBRANCH   1  13
TORSDOF 7
ENDMDL
