MODEL 1
REMARK VINA RESULT:      -5.2      0.000      0.000
REMARK  Name = *****
REMARK                            x       y       z     vdW  Elec       q    Type
REMARK                         _______ _______ _______ _____ _____    ______ ____
ROOT
ATOM      1  C   LIG    1       27.888 -18.416   5.031  0.00  0.00    +0.099 A 
ATOM      2  C   LIG    1       27.206 -19.642   5.155  0.00  0.00    +0.137 A 
ATOM      3  N   LIG    1       27.638 -20.563   6.035  0.00  0.00    -0.239 NA
ATOM      4  C   LIG    1       28.745 -20.345   6.777  0.00  0.00    +0.113 A 
ATOM      5  C   LIG    1       29.471 -19.183   6.714  0.00  0.00    +0.021 A 
ATOM      6  C   LIG    1       29.031 -18.198   5.842  0.00  0.00    +0.020 A 
ENDROOT
BRANCH   1   8
ATOM      7  O   LIG    1       26.715 -17.606   3.144  0.00  0.00    -0.245 OA
ATOM      8  C   LIG    1       27.435 -17.378   4.092  0.00  0.00    +0.343 C 
BRANCH   8   9
ATOM      9  O   LIG    1       27.931 -16.175   4.451  0.00  0.00    -0.460 OA
BRANCH   9  10
ATOM     10  C   LIG    1       27.551 -15.054   3.649  0.00  0.00    +0.247 C 
BRANCH  10  11
ATOM     11  C   LIG    1       26.428 -14.266   4.341  0.00  0.00    +0.125 C 
BRANCH  11  12
ATOM     12  N   LIG    1       25.108 -14.457   3.721  0.00  0.00    -0.295 NA
ATOM     13  C   LIG    1       24.045 -13.771   4.491  0.00  0.00    +0.112 C 
ATOM     14  C   LIG    1       23.998 -12.244   4.298  0.00  0.00    +0.175 C 
ATOM     15  O   LIG    1       23.902 -11.890   2.916  0.00  0.00    -0.377 OA
ATOM     16  C   LIG    1       24.984 -12.452   2.168  0.00  0.00    +0.175 C 
ATOM     17  C   LIG    1       25.038 -13.980   2.322  0.00  0.00    +0.112 C 
ENDBRANCH  11  12
ENDBRANCH  10  11
ENDBRANCH   9  10
ENDBRANCH   8   9
ENDBRANCH   1   8
BRANCH   2  18
ATOM     18  N   LIG    1       26.136 -19.971   4.276  0.00  0.00    -0.299 N 
ATOM     19  H   LIG    1       26.339 -19.734   3.307  0.00  0.00    +0.154 HD
BRANCH  18  20
ATOM     20  C   LIG    1       24.762 -20.167   4.551  0.00  0.00    +0.033 A 
ATOM     21  C   LIG    1       23.821 -19.205   4.141  0.00  0.00    +0.035 A 
ATOM     22  C   LIG    1       22.432 -19.409   4.319  0.00  0.00    +0.057 A 
ATOM     23  C   LIG    1       21.984 -20.599   4.906  0.00  0.00    +0.012 A 
ATOM     24  C   LIG    1       22.894 -21.566   5.295  0.00  0.00    +0.002 A 
ATOM     25  C   LIG    1       24.256 -21.350   5.104  0.00  0.00    +0.023 A 
BRANCH  22  26
ATOM     26  C   LIG    1       21.431 -18.372   3.876  0.00  0.00    +0.417 C 
ATOM     27  F   LIG    1       21.551 -17.199   4.555  0.00  0.00    -0.166 F 
ATOM     28  F   LIG    1       20.144 -18.779   4.049  0.00  0.00    -0.166 F 
ATOM     29  F   LIG    1       21.540 -18.046   2.555  0.00  0.00    -0.166 F 
ENDBRANCH  22  26
ENDBRANCH  18  20
ENDBRANCH   2  18
TORSDOF 8
ENDMDL
MODEL 2
REMARK VINA RESULT:      -4.2      2.490      5.599
REMARK  Name = *****
REMARK                            x       y       z     vdW  Elec       q    Type
REMARK                         _______ _______ _______ _____ _____    ______ ____
ROOT
ATOM      1  C   LIG    1       27.168 -19.327   5.127  0.00  0.00    +0.099 A 
ATOM      2  C   LIG    1       27.967 -18.238   4.728  0.00  0.00    +0.137 A 
ATOM      3  N   LIG    1       29.105 -17.964   5.391  0.00  0.00    -0.239 NA
ATOM      4  C   LIG    1       29.475 -18.697   6.463  0.00  0.00    +0.113 A 
ATOM      5  C   LIG    1       28.752 -19.770   6.921  0.00  0.00    +0.021 A 
ATOM      6  C   LIG    1       27.592 -20.101   6.238  0.00  0.00    +0.020 A 
ENDROOT
BRANCH   1   8
ATOM      7  O   LIG    1       25.702 -19.337   3.271  0.00  0.00    -0.245 OA
ATOM      8  C   LIG    1       25.926 -19.668   4.415  0.00  0.00    +0.343 C 
BRANCH   8   9
ATOM      9  O   LIG    1       25.111 -20.387   5.216  0.00  0.00    -0.460 OA
BRANCH   9  10
ATOM     10  C   LIG    1       24.537 -21.572   4.658  0.00  0.00    +0.247 C 
BRANCH  10  11
ATOM     11  C   LIG    1       23.210 -21.237   3.960  0.00  0.00    +0.125 C 
BRANCH  11  12
ATOM     12  N   LIG    1       22.167 -20.758   4.880  0.00  0.00    -0.295 NA
ATOM     13  C   LIG    1       22.594 -19.529   5.588  0.00  0.00    +0.112 C 
ATOM     14  C   LIG    1       22.536 -18.247   4.738  0.00  0.00    +0.175 C 
ATOM     15  O   LIG    1       21.241 -18.053   4.164  0.00  0.00    -0.377 OA
ATOM     16  C   LIG    1       20.854 -19.186   3.381  0.00  0.00    +0.175 C 
ATOM     17  C   LIG    1       20.876 -20.477   4.214  0.00  0.00    +0.112 C 
ENDBRANCH  11  12
ENDBRANCH  10  11
ENDBRANCH   9  10
ENDBRANCH   8   9
ENDBRANCH   1   8
BRANCH   2  18
ATOM     18  N   LIG    1       27.527 -17.348   3.709  0.00  0.00    -0.299 N 
ATOM     19  H   LIG    1       27.822 -17.641   2.779  0.00  0.00    +0.154 HD
BRANCH  18  20
ATOM     20  C   LIG    1       27.137 -15.991   3.794  0.00  0.00    +0.033 A 
ATOM     21  C   LIG    1       25.773 -15.649   3.742  0.00  0.00    +0.035 A 
ATOM     22  C   LIG    1       25.341 -14.313   3.914  0.00  0.00    +0.057 A 
ATOM     23  C   LIG    1       26.290 -13.310   4.151  0.00  0.00    +0.012 A 
ATOM     24  C   LIG    1       27.634 -13.631   4.228  0.00  0.00    +0.002 A 
ATOM     25  C   LIG    1       28.039 -14.954   4.064  0.00  0.00    +0.023 A 
BRANCH  22  26
ATOM     26  C   LIG    1       23.877 -13.956   3.857  0.00  0.00    +0.417 C 
ATOM     27  F   LIG    1       23.458 -13.651   2.599  0.00  0.00    -0.166 F 
ATOM     28  F   LIG    1       23.571 -12.877   4.629  0.00  0.00    -0.166 F 
ATOM     29  F   LIG    1       23.060 -14.960   4.286  0.00  0.00    -0.166 F 
ENDBRANCH  22  26
ENDBRANCH  18  20
ENDBRANCH   2  18
TORSDOF 8
ENDMDL
MODEL 3
REMARK VINA RESULT:      -2.3      2.053      2.740
REMARK  Name = *****
REMARK                            x       y       z     vdW  Elec       q    Type
REMARK                         _______ _______ _______ _____ _____    ______ ____
ROOT
ATOM      1  C   LIG    1       26.220 -19.928   4.657  0.00  0.00    +0.099 A 
ATOM      2  C   LIG    1       25.361 -20.532   5.595  0.00  0.00    +0.137 A 
ATOM      3  N   LIG    1       25.849 -20.952   6.777  0.00  0.00    -0.239 NA
ATOM      4  C   LIG    1       27.164 -20.839   7.062  0.00  0.00    +0.113 A 
ATOM      5  C   LIG    1       28.069 -20.270   6.203  0.00  0.00    +0.021 A 
ATOM      6  C   LIG    1       27.592 -19.793   4.991  0.00  0.00    +0.020 A 
ENDROOT
BRANCH   1   8
ATOM      7  O   LIG    1       24.841 -19.994   2.737  0.00  0.00    -0.245 OA
ATOM      8  C   LIG    1       25.719 -19.440   3.362  0.00  0.00    +0.343 C 
BRANCH   8   9
ATOM      9  O   LIG    1       26.372 -18.314   3.003  0.00  0.00    -0.460 OA
BRANCH   9  10
ATOM     10  C   LIG    1       25.725 -17.072   3.291  0.00  0.00    +0.247 C 
BRANCH  10  11
ATOM     11  C   LIG    1       26.769 -16.002   3.642  0.00  0.00    +0.125 C 
BRANCH  11  12
ATOM     12  N   LIG    1       26.333 -14.632   3.335  0.00  0.00    -0.295 NA
ATOM     13  C   LIG    1       25.868 -13.928   4.552  0.00  0.00    +0.112 C 
ATOM     14  C   LIG    1       26.995 -13.440   5.481  0.00  0.00    +0.175 C 
ATOM     15  O   LIG    1       27.940 -12.627   4.780  0.00  0.00    -0.377 OA
ATOM     16  C   LIG    1       28.487 -13.329   3.660  0.00  0.00    +0.175 C 
ATOM     17  C   LIG    1       27.383 -13.804   2.703  0.00  0.00    +0.112 C 
ENDBRANCH  11  12
ENDBRANCH  10  11
ENDBRANCH   9  10
ENDBRANCH   8   9
ENDBRANCH   1   8
BRANCH   2  18
ATOM     18  N   LIG    1       24.006 -20.814   5.265  0.00  0.00    -0.299 N 
ATOM     19  H   LIG    1       23.870 -21.776   4.959  0.00  0.00    +0.154 HD
BRANCH  18  20
ATOM     20  C   LIG    1       22.957 -19.937   4.905  0.00  0.00    +0.033 A 
ATOM     21  C   LIG    1       23.131 -18.546   5.033  0.00  0.00    +0.035 A 
ATOM     22  C   LIG    1       22.139 -17.635   4.601  0.00  0.00    +0.057 A 
ATOM     23  C   LIG    1       20.962 -18.128   4.021  0.00  0.00    +0.012 A 
ATOM     24  C   LIG    1       20.783 -19.491   3.865  0.00  0.00    +0.002 A 
ATOM     25  C   LIG    1       21.775 -20.371   4.291  0.00  0.00    +0.023 A 
BRANCH  22  26
ATOM     26  C   LIG    1       22.335 -16.147   4.743  0.00  0.00    +0.417 C 
ATOM     27  F   LIG    1       22.064 -15.468   3.595  0.00  0.00    -0.166 F 
ATOM     28  F   LIG    1       23.610 -15.817   5.086  0.00  0.00    -0.166 F 
ATOM     29  F   LIG    1       21.539 -15.587   5.699  0.00  0.00    -0.166 F 
ENDBRANCH  22  26
ENDBRANCH  18  20
ENDBRANCH   2  18
TORSDOF 8
ENDMDL
