MODEL 1
REMARK VINA RESULT:      -2.1      0.000      0.000
REMARK  Name = *****
REMARK                            x       y       z     vdW  Elec       q    Type
REMARK                         _______ _______ _______ _____ _____    ______ ____
ROOT
ATOM      1  C   LIG    1       26.560 -12.339   2.738  0.00  0.00    +0.134 C 
ATOM      2  N   LIG    1       25.605 -13.427   3.037  0.00  0.00    -0.158 NA
ATOM      3  S   LIG    1       26.390 -14.832   3.577  0.00  0.00    +0.064 S 
ATOM      4  O   LIG    1       26.964 -14.545   4.874  0.00  0.00    -0.153 OA
ATOM      5  O   LIG    1       27.207 -15.329   2.489  0.00  0.00    -0.153 OA
ATOM      6  C   LIG    1       25.071 -15.958   3.825  0.00  0.00    +0.128 A 
ATOM      7  C   LIG    1       23.784 -15.452   3.981  0.00  0.00    +0.057 A 
ATOM      8  C   LIG    1       22.747 -16.385   4.121  0.00  0.00    +0.047 A 
ATOM      9  C   LIG    1       22.996 -17.767   4.161  0.00  0.00    +0.069 A 
ATOM     10  C   LIG    1       24.302 -18.237   4.030  0.00  0.00    +0.125 A 
ATOM     11 CL   LIG    1       21.626 -18.800   4.367  0.00  0.00    -0.082 Cl
ATOM     12  N   LIG    1       23.470 -14.105   3.848  0.00  0.00    -0.325 N 
ATOM     13  H   LIG    1       22.610 -13.837   4.328  0.00  0.00    +0.148 HD
ATOM     14  C   LIG    1       25.349 -17.330   3.851  0.00  0.00    +0.060 A 
ATOM     15  C   LIG    1       24.503 -13.074   3.954  0.00  0.00    +0.177 C 
ENDROOT
BRANCH  10  16
ATOM     16  S   LIG    1       24.625 -19.969   4.080  0.00  0.00    +0.057 S 
ATOM     17  O   LIG    1       24.195 -20.559   2.834  0.00  0.00    -0.153 OA
ATOM     18  O   LIG    1       24.245 -20.473   5.377  0.00  0.00    -0.153 OA
BRANCH  16  19
ATOM     19  N   LIG    1       26.305 -20.091   4.050  0.00  0.00    -0.203 NA
ATOM     20  H   LIG    1       26.711 -19.190   4.312  0.00  0.00    +0.144 HD
ATOM     21  H   LIG    1       26.602 -20.412   3.127  0.00  0.00    +0.144 HD
ENDBRANCH  16  19
ENDBRANCH  10  16
BRANCH  15  22
ATOM     22  C   LIG    1       23.855 -11.713   3.600  0.00  0.00    +0.148 C 
ATOM     23 CL   LIG    1       23.812 -11.447   1.828  0.00  0.00    -0.122 Cl
ENDBRANCH  15  22
TORSDOF 3
ENDMDL
MODEL 2
REMARK VINA RESULT:      -2.0      2.110      6.152
REMARK  Name = *****
REMARK                            x       y       z     vdW  Elec       q    Type
REMARK                         _______ _______ _______ _____ _____    ______ ____
ROOT
ATOM      1  C   LIG    1       24.683 -21.570   4.682  0.00  0.00    +0.134 C 
ATOM      2  N   LIG    1       24.362 -20.128   4.633  0.00  0.00    -0.158 NA
ATOM      3  S   LIG    1       25.396 -19.281   3.587  0.00  0.00    +0.064 S 
ATOM      4  O   LIG    1       25.111 -19.718   2.237  0.00  0.00    -0.153 OA
ATOM      5  O   LIG    1       26.736 -19.356   4.132  0.00  0.00    -0.153 OA
ATOM      6  C   LIG    1       24.842 -17.625   3.731  0.00  0.00    +0.128 A 
ATOM      7  C   LIG    1       23.559 -17.392   4.216  0.00  0.00    +0.057 A 
ATOM      8  C   LIG    1       23.171 -16.053   4.369  0.00  0.00    +0.047 A 
ATOM      9  C   LIG    1       24.013 -14.992   3.997  0.00  0.00    +0.069 A 
ATOM     10  C   LIG    1       25.283 -15.264   3.489  0.00  0.00    +0.125 A 
ATOM     11 CL   LIG    1       23.395 -13.393   4.215  0.00  0.00    -0.082 Cl
ATOM     12  N   LIG    1       22.726 -18.397   4.692  0.00  0.00    -0.325 N 
ATOM     13  H   LIG    1       21.736 -18.151   4.669  0.00  0.00    +0.148 HD
ATOM     14  C   LIG    1       25.708 -16.589   3.361  0.00  0.00    +0.060 A 
ATOM     15  C   LIG    1       22.954 -19.799   4.337  0.00  0.00    +0.177 C 
ENDROOT
BRANCH  10  16
ATOM     16  S   LIG    1       26.347 -13.940   3.018  0.00  0.00    +0.057 S 
ATOM     17  O   LIG    1       27.186 -14.383   1.930  0.00  0.00    -0.153 OA
ATOM     18  O   LIG    1       26.852 -13.307   4.211  0.00  0.00    -0.153 OA
BRANCH  16  19
ATOM     19  N   LIG    1       25.324 -12.794   2.327  0.00  0.00    -0.203 NA
ATOM     20  H   LIG    1       24.928 -13.174   1.464  0.00  0.00    +0.144 HD
ATOM     21  H   LIG    1       25.842 -11.925   2.183  0.00  0.00    +0.144 HD
ENDBRANCH  16  19
ENDBRANCH  10  16
BRANCH  15  22
ATOM     22  C   LIG    1       21.961 -20.663   5.152  0.00  0.00    +0.148 C 
ATOM     23 CL   LIG    1       22.690 -21.224   6.690  0.00  0.00    -0.122 Cl
ENDBRANCH  15  22
TORSDOF 3
ENDMDL
MODEL 3
REMARK VINA RESULT:      -1.1      2.641      3.161
REMARK  Name = *****
REMARK                            x       y       z     vdW  Elec       q    Type
REMARK                         _______ _______ _______ _____ _____    ______ ____
ROOT
ATOM      1  C   LIG    1       25.017 -12.157   4.354  0.00  0.00    +0.134 C 
ATOM      2  N   LIG    1       25.231 -13.607   4.158  0.00  0.00    -0.158 NA
ATOM      3  S   LIG    1       23.768 -14.465   4.108  0.00  0.00    +0.064 S 
ATOM      4  O   LIG    1       23.072 -14.079   2.898  0.00  0.00    -0.153 OA
ATOM      5  O   LIG    1       23.137 -14.344   5.405  0.00  0.00    -0.153 OA
ATOM      6  C   LIG    1       24.285 -16.127   3.906  0.00  0.00    +0.128 A 
ATOM      7  C   LIG    1       25.564 -16.372   3.415  0.00  0.00    +0.057 A 
ATOM      8  C   LIG    1       25.963 -17.713   3.321  0.00  0.00    +0.047 A 
ATOM      9  C   LIG    1       25.094 -18.768   3.650  0.00  0.00    +0.069 A 
ATOM     10  C   LIG    1       23.810 -18.486   4.112  0.00  0.00    +0.125 A 
ATOM     11 CL   LIG    1       25.709 -20.371   3.459  0.00  0.00    -0.082 Cl
ATOM     12  N   LIG    1       26.495 -15.370   3.172  0.00  0.00    -0.325 N 
ATOM     13  H   LIG    1       27.216 -15.637   2.502  0.00  0.00    +0.148 HD
ATOM     14  C   LIG    1       23.400 -17.157   4.252  0.00  0.00    +0.060 A 
ATOM     15  C   LIG    1       26.080 -13.976   3.008  0.00  0.00    +0.177 C 
ENDROOT
BRANCH  10  16
ATOM     16  S   LIG    1       22.712 -19.801   4.527  0.00  0.00    +0.057 S 
ATOM     17  O   LIG    1       23.180 -21.012   3.896  0.00  0.00    -0.153 OA
ATOM     18  O   LIG    1       21.356 -19.319   4.428  0.00  0.00    -0.153 OA
BRANCH  16  19
ATOM     19  N   LIG    1       22.955 -20.058   6.173  0.00  0.00    -0.203 NA
ATOM     20  H   LIG    1       23.946 -19.929   6.390  0.00  0.00    +0.144 HD
ATOM     21  H   LIG    1       22.607 -20.985   6.424  0.00  0.00    +0.144 HD
ENDBRANCH  16  19
ENDBRANCH  10  16
BRANCH  15  22
ATOM     22  C   LIG    1       27.358 -13.107   2.914  0.00  0.00    +0.148 C 
ATOM     23 CL   LIG    1       28.354 -13.244   4.398  0.00  0.00    -0.122 Cl
ENDBRANCH  15  22
TORSDOF 3
ENDMDL
MODEL 4
REMARK VINA RESULT:      -0.5      2.275      6.068
REMARK  Name = *****
REMARK                            x       y       z     vdW  Elec       q    Type
REMARK                         _______ _______ _______ _____ _____    ______ ____
ROOT
ATOM      1  C   LIG    1       25.369 -21.327   4.786  0.00  0.00    +0.134 C 
ATOM      2  N   LIG    1       24.906 -19.927   4.687  0.00  0.00    -0.158 NA
ATOM      3  S   LIG    1       25.925 -18.988   3.707  0.00  0.00    +0.064 S 
ATOM      4  O   LIG    1       25.791 -19.466   2.347  0.00  0.00    -0.153 OA
ATOM      5  O   LIG    1       27.219 -18.917   4.352  0.00  0.00    -0.153 OA
ATOM      6  C   LIG    1       25.194 -17.397   3.777  0.00  0.00    +0.128 A 
ATOM      7  C   LIG    1       23.860 -17.294   4.160  0.00  0.00    +0.057 A 
ATOM      8  C   LIG    1       23.325 -16.001   4.259  0.00  0.00    +0.047 A 
ATOM      9  C   LIG    1       24.080 -14.861   3.933  0.00  0.00    +0.069 A 
ATOM     10  C   LIG    1       25.406 -15.005   3.526  0.00  0.00    +0.125 A 
ATOM     11 CL   LIG    1       23.286 -13.334   4.074  0.00  0.00    -0.082 Cl
ATOM     12  N   LIG    1       23.100 -18.375   4.590  0.00  0.00    -0.325 N 
ATOM     13  H   LIG    1       22.095 -18.233   4.488  0.00  0.00    +0.148 HD
ATOM     14  C   LIG    1       25.974 -16.280   3.455  0.00  0.00    +0.060 A 
ATOM     15  C   LIG    1       23.498 -19.748   4.279  0.00  0.00    +0.177 C 
ENDROOT
BRANCH  10  16
ATOM     16  S   LIG    1       26.361 -13.582   3.113  0.00  0.00    +0.057 S 
ATOM     17  O   LIG    1       26.478 -12.745   4.283  0.00  0.00    -0.153 OA
ATOM     18  O   LIG    1       25.936 -13.099   1.822  0.00  0.00    -0.153 OA
BRANCH  16  19
ATOM     19  N   LIG    1       27.917 -14.173   2.856  0.00  0.00    -0.203 NA
ATOM     20  H   LIG    1       28.074 -14.981   3.462  0.00  0.00    +0.144 HD
ATOM     21  H   LIG    1       28.592 -13.420   3.008  0.00  0.00    +0.144 HD
ENDBRANCH  16  19
ENDBRANCH  10  16
BRANCH  15  22
ATOM     22  C   LIG    1       22.540 -20.703   5.033  0.00  0.00    +0.148 C 
ATOM     23 CL   LIG    1       22.514 -20.354   6.790  0.00  0.00    -0.122 Cl
ENDBRANCH  15  22
TORSDOF 3
ENDMDL
