MODEL 1
REMARK VINA RESULT:      -7.8      0.000      0.000
REMARK  Name = *****
REMARK                            x       y       z     vdW  Elec       q    Type
REMARK                         _______ _______ _______ _____ _____    ______ ____
ROOT
ATOM      1  O   LIG    1       25.906 -24.148   7.849  0.00  0.00    -0.275 OA
ATOM      2  C   LIG    1       25.338 -24.100   6.753  0.00  0.00    +0.219 C 
ATOM      3  N   LIG    1       24.437 -23.086   6.464  0.00  0.00    -0.290 N 
ATOM      4  C   LIG    1       24.339 -21.940   7.358  0.00  0.00    +0.135 C 
ATOM      5  C   LIG    1       24.941 -20.683   6.682  0.00  0.00    +0.124 C 
ATOM      6  N   LIG    1       24.442 -20.514   5.299  0.00  0.00    -0.291 N 
ATOM      7  C   LIG    1       24.986 -19.359   4.603  0.00  0.00    +0.113 C 
ATOM      8  C   LIG    1       26.476 -19.588   4.362  0.00  0.00    +0.054 C 
ATOM      9  C   LIG    1       27.183 -19.992   5.639  0.00  0.00    -0.041 A 
ATOM     10  C   LIG    1       28.575 -19.830   5.717  0.00  0.00    +0.004 A 
ATOM     11  C   LIG    1       29.262 -20.166   6.879  0.00  0.00    +0.000 A 
ATOM     12  C   LIG    1       28.567 -20.674   7.971  0.00  0.00    +0.000 A 
ATOM     13  C   LIG    1       27.185 -20.863   7.898  0.00  0.00    +0.006 A 
ATOM     14  C   LIG    1       24.035 -21.592   4.511  0.00  0.00    +0.234 C 
ATOM     15  O   LIG    1       23.813 -21.476   3.304  0.00  0.00    -0.274 OA
ATOM     16  C   LIG    1       26.470 -20.551   6.729  0.00  0.00    -0.022 A 
ATOM     17  C   LIG    1       23.689 -22.903   5.225  0.00  0.00    +0.203 C 
ENDROOT
BRANCH   2  18
ATOM     18  C   LIG    1       25.647 -25.133   5.662  0.00  0.00    +0.075 C 
ATOM     19  C   LIG    1       26.777 -26.070   6.120  0.00  0.00    +0.012 C 
ATOM     20  C   LIG    1       26.300 -27.146   7.094  0.00  0.00    +0.001 C 
ATOM     21  C   LIG    1       25.141 -27.946   6.516  0.00  0.00    +0.000 C 
ATOM     22  C   LIG    1       23.977 -27.040   6.142  0.00  0.00    +0.001 C 
ATOM     23  C   LIG    1       24.404 -25.914   5.205  0.00  0.00    +0.012 C 
ENDBRANCH   2  18
TORSDOF 1
ENDMDL
MODEL 2
REMARK VINA RESULT:      -7.5      4.833      9.575
REMARK  Name = *****
REMARK                            x       y       z     vdW  Elec       q    Type
REMARK                         _______ _______ _______ _____ _____    ______ ____
ROOT
ATOM      1  O   LIG    1       24.147 -28.679   5.765  0.00  0.00    -0.275 OA
ATOM      2  C   LIG    1       24.951 -28.461   6.677  0.00  0.00    +0.219 C 
ATOM      3  N   LIG    1       24.926 -29.213   7.841  0.00  0.00    -0.290 N 
ATOM      4  C   LIG    1       24.111 -30.419   7.896  0.00  0.00    +0.135 C 
ATOM      5  C   LIG    1       25.017 -31.675   7.900  0.00  0.00    +0.124 C 
ATOM      6  N   LIG    1       26.119 -31.551   8.882  0.00  0.00    -0.291 N 
ATOM      7  C   LIG    1       27.017 -32.693   8.921  0.00  0.00    +0.113 C 
ATOM      8  C   LIG    1       27.790 -32.756   7.605  0.00  0.00    +0.054 C 
ATOM      9  C   LIG    1       26.853 -32.684   6.416  0.00  0.00    -0.041 A 
ATOM     10  C   LIG    1       27.311 -33.146   5.172  0.00  0.00    +0.004 A 
ATOM     11  C   LIG    1       26.477 -33.120   4.059  0.00  0.00    +0.000 A 
ATOM     12  C   LIG    1       25.183 -32.624   4.175  0.00  0.00    +0.000 A 
ATOM     13  C   LIG    1       24.725 -32.138   5.402  0.00  0.00    +0.006 A 
ATOM     14  C   LIG    1       26.648 -30.317   9.263  0.00  0.00    +0.234 C 
ATOM     15  O   LIG    1       27.689 -30.223   9.919  0.00  0.00    -0.274 OA
ATOM     16  C   LIG    1       25.553 -32.134   6.537  0.00  0.00    -0.022 A 
ATOM     17  C   LIG    1       25.801 -29.068   8.999  0.00  0.00    +0.203 C 
ENDROOT
BRANCH   2  18
ATOM     18  C   LIG    1       26.033 -27.382   6.529  0.00  0.00    +0.075 C 
ATOM     19  C   LIG    1       26.399 -27.195   5.048  0.00  0.00    +0.012 C 
ATOM     20  C   LIG    1       25.373 -26.362   4.282  0.00  0.00    +0.001 C 
ATOM     21  C   LIG    1       25.138 -25.014   4.951  0.00  0.00    +0.000 C 
ATOM     22  C   LIG    1       24.684 -25.186   6.394  0.00  0.00    +0.001 C 
ATOM     23  C   LIG    1       25.649 -26.052   7.199  0.00  0.00    +0.012 C 
ENDBRANCH   2  18
TORSDOF 1
ENDMDL
MODEL 3
REMARK VINA RESULT:      -6.9      5.641      8.566
REMARK  Name = *****
REMARK                            x       y       z     vdW  Elec       q    Type
REMARK                         _______ _______ _______ _____ _____    ______ ____
ROOT
ATOM      1  O   LIG    1       26.862 -28.146   8.528  0.00  0.00    -0.275 OA
ATOM      2  C   LIG    1       25.744 -28.596   8.259  0.00  0.00    +0.219 C 
ATOM      3  N   LIG    1       25.289 -29.765   8.849  0.00  0.00    -0.290 N 
ATOM      4  C   LIG    1       26.026 -30.337   9.968  0.00  0.00    +0.135 C 
ATOM      5  C   LIG    1       25.227 -30.154  11.282  0.00  0.00    +0.124 C 
ATOM      6  N   LIG    1       23.811 -30.558  11.121  0.00  0.00    -0.291 N 
ATOM      7  C   LIG    1       23.002 -30.392  12.318  0.00  0.00    +0.113 C 
ATOM      8  C   LIG    1       22.861 -28.901  12.614  0.00  0.00    +0.054 C 
ATOM      9  C   LIG    1       24.211 -28.213  12.620  0.00  0.00    -0.041 A 
ATOM     10  C   LIG    1       24.332 -26.978  13.276  0.00  0.00    +0.004 A 
ATOM     11  C   LIG    1       25.557 -26.322  13.327  0.00  0.00    +0.000 A 
ATOM     12  C   LIG    1       26.671 -26.889  12.717  0.00  0.00    +0.000 A 
ATOM     13  C   LIG    1       26.558 -28.106  12.040  0.00  0.00    +0.006 A 
ATOM     14  C   LIG    1       23.147 -30.491   9.896  0.00  0.00    +0.234 C 
ATOM     15  O   LIG    1       21.926 -30.633   9.802  0.00  0.00    -0.274 OA
ATOM     16  C   LIG    1       25.327 -28.779  11.956  0.00  0.00    -0.022 A 
ATOM     17  C   LIG    1       24.003 -30.418   8.627  0.00  0.00    +0.203 C 
ENDROOT
BRANCH   2  18
ATOM     18  C   LIG    1       24.807 -27.851   7.300  0.00  0.00    +0.075 C 
ATOM     19  C   LIG    1       25.377 -26.461   6.971  0.00  0.00    +0.012 C 
ATOM     20  C   LIG    1       26.502 -26.508   5.938  0.00  0.00    +0.001 C 
ATOM     21  C   LIG    1       26.061 -27.222   4.667  0.00  0.00    +0.000 C 
ATOM     22  C   LIG    1       25.580 -28.634   4.966  0.00  0.00    +0.001 C 
ATOM     23  C   LIG    1       24.485 -28.655   6.030  0.00  0.00    +0.012 C 
ENDBRANCH   2  18
TORSDOF 1
ENDMDL
MODEL 4
REMARK VINA RESULT:      -6.6      5.277      9.426
REMARK  Name = *****
REMARK                            x       y       z     vdW  Elec       q    Type
REMARK                         _______ _______ _______ _____ _____    ______ ____
ROOT
ATOM      1  O   LIG    1       26.059 -28.133   8.280  0.00  0.00    -0.275 OA
ATOM      2  C   LIG    1       25.440 -28.839   7.479  0.00  0.00    +0.219 C 
ATOM      3  N   LIG    1       25.488 -30.222   7.567  0.00  0.00    -0.290 N 
ATOM      4  C   LIG    1       26.070 -30.844   8.749  0.00  0.00    +0.135 C 
ATOM      5  C   LIG    1       24.960 -31.497   9.609  0.00  0.00    +0.124 C 
ATOM      6  N   LIG    1       24.044 -32.320   8.786  0.00  0.00    -0.291 N 
ATOM      7  C   LIG    1       22.967 -32.947   9.535  0.00  0.00    +0.113 C 
ATOM      8  C   LIG    1       22.024 -31.859  10.043  0.00  0.00    +0.054 C 
ATOM      9  C   LIG    1       22.786 -30.764  10.761  0.00  0.00    -0.041 A 
ATOM     10  C   LIG    1       22.087 -29.927  11.644  0.00  0.00    +0.004 A 
ATOM     11  C   LIG    1       22.751 -28.923  12.342  0.00  0.00    +0.000 A 
ATOM     12  C   LIG    1       24.118 -28.740  12.157  0.00  0.00    +0.000 A 
ATOM     13  C   LIG    1       24.820 -29.550  11.261  0.00  0.00    +0.006 A 
ATOM     14  C   LIG    1       23.804 -32.054   7.437  0.00  0.00    +0.234 C 
ATOM     15  O   LIG    1       22.898 -32.607   6.810  0.00  0.00    -0.274 OA
ATOM     16  C   LIG    1       24.169 -30.558  10.529  0.00  0.00    -0.022 A 
ATOM     17  C   LIG    1       24.820 -31.181   6.694  0.00  0.00    +0.203 C 
ENDROOT
BRANCH   2  18
ATOM     18  C   LIG    1       24.563 -28.208   6.389  0.00  0.00    +0.075 C 
ATOM     19  C   LIG    1       24.203 -26.762   6.767  0.00  0.00    +0.012 C 
ATOM     20  C   LIG    1       25.343 -25.778   6.510  0.00  0.00    +0.001 C 
ATOM     21  C   LIG    1       25.826 -25.851   5.067  0.00  0.00    +0.000 C 
ATOM     22  C   LIG    1       26.274 -27.260   4.706  0.00  0.00    +0.001 C 
ATOM     23  C   LIG    1       25.189 -28.297   4.988  0.00  0.00    +0.012 C 
ENDBRANCH   2  18
TORSDOF 1
ENDMDL
MODEL 5
REMARK VINA RESULT:      -6.0      8.258     10.548
REMARK  Name = *****
REMARK                            x       y       z     vdW  Elec       q    Type
REMARK                         _______ _______ _______ _____ _____    ______ ____
ROOT
ATOM      1  O   LIG    1       22.598 -29.088  14.733  0.00  0.00    -0.275 OA
ATOM      2  C   LIG    1       23.312 -28.087  14.607  0.00  0.00    +0.219 C 
ATOM      3  N   LIG    1       24.693 -28.197  14.608  0.00  0.00    -0.290 N 
ATOM      4  C   LIG    1       25.308 -29.515  14.514  0.00  0.00    +0.135 C 
ATOM      5  C   LIG    1       25.964 -29.700  13.123  0.00  0.00    +0.124 C 
ATOM      6  N   LIG    1       26.796 -28.532  12.752  0.00  0.00    -0.291 N 
ATOM      7  C   LIG    1       27.425 -28.638  11.445  0.00  0.00    +0.113 C 
ATOM      8  C   LIG    1       26.341 -28.592  10.372  0.00  0.00    +0.054 C 
ATOM      9  C   LIG    1       25.238 -29.589  10.663  0.00  0.00    -0.041 A 
ATOM     10  C   LIG    1       24.402 -29.992   9.611  0.00  0.00    +0.004 A 
ATOM     11  C   LIG    1       23.391 -30.923   9.828  0.00  0.00    +0.000 A 
ATOM     12  C   LIG    1       23.201 -31.454  11.099  0.00  0.00    +0.000 A 
ATOM     13  C   LIG    1       24.010 -31.041  12.160  0.00  0.00    +0.006 A 
ATOM     14  C   LIG    1       26.536 -27.246  13.226  0.00  0.00    +0.234 C 
ATOM     15  O   LIG    1       27.098 -26.250  12.763  0.00  0.00    -0.274 OA
ATOM     16  C   LIG    1       25.025 -30.087  11.972  0.00  0.00    -0.022 A 
ATOM     17  C   LIG    1       25.661 -27.112  14.476  0.00  0.00    +0.203 C 
ENDROOT
BRANCH   2  18
ATOM     18  C   LIG    1       22.690 -26.700  14.399  0.00  0.00    +0.075 C 
ATOM     19  C   LIG    1       22.069 -26.600  12.996  0.00  0.00    +0.012 C 
ATOM     20  C   LIG    1       20.712 -27.294  12.895  0.00  0.00    +0.001 C 
ATOM     21  C   LIG    1       19.742 -26.777  13.950  0.00  0.00    +0.000 C 
ATOM     22  C   LIG    1       20.306 -26.955  15.352  0.00  0.00    +0.001 C 
ATOM     23  C   LIG    1       21.687 -26.321  15.500  0.00  0.00    +0.012 C 
ENDBRANCH   2  18
TORSDOF 1
ENDMDL
MODEL 6
REMARK VINA RESULT:      -5.7      8.009     10.525
REMARK  Name = *****
REMARK                            x       y       z     vdW  Elec       q    Type
REMARK                         _______ _______ _______ _____ _____    ______ ____
ROOT
ATOM      1  O   LIG    1       25.600 -27.695  14.794  0.00  0.00    -0.275 OA
ATOM      2  C   LIG    1       26.160 -27.418  13.729  0.00  0.00    +0.219 C 
ATOM      3  N   LIG    1       26.779 -28.404  12.975  0.00  0.00    -0.290 N 
ATOM      4  C   LIG    1       26.562 -29.805  13.313  0.00  0.00    +0.135 C 
ATOM      5  C   LIG    1       25.673 -30.481  12.239  0.00  0.00    +0.124 C 
ATOM      6  N   LIG    1       26.144 -30.174  10.868  0.00  0.00    -0.291 N 
ATOM      7  C   LIG    1       25.338 -30.767   9.813  0.00  0.00    +0.113 C 
ATOM      8  C   LIG    1       23.961 -30.106   9.816  0.00  0.00    +0.054 C 
ATOM      9  C   LIG    1       23.353 -30.113  11.203  0.00  0.00    -0.041 A 
ATOM     10  C   LIG    1       21.964 -29.951  11.329  0.00  0.00    +0.004 A 
ATOM     11  C   LIG    1       21.360 -29.974  12.582  0.00  0.00    +0.000 A 
ATOM     12  C   LIG    1       22.138 -30.151  13.721  0.00  0.00    +0.000 A 
ATOM     13  C   LIG    1       23.524 -30.288  13.611  0.00  0.00    +0.006 A 
ATOM     14  C   LIG    1       26.830 -29.000  10.556  0.00  0.00    +0.234 C 
ATOM     15  O   LIG    1       27.041 -28.653   9.392  0.00  0.00    -0.274 OA
ATOM     16  C   LIG    1       24.161 -30.247  12.360  0.00  0.00    -0.022 A 
ATOM     17  C   LIG    1       27.482 -28.230  11.709  0.00  0.00    +0.203 C 
ENDROOT
BRANCH   2  18
ATOM     18  C   LIG    1       26.150 -25.984  13.185  0.00  0.00    +0.075 C 
ATOM     19  C   LIG    1       24.887 -25.245  13.656  0.00  0.00    +0.012 C 
ATOM     20  C   LIG    1       24.983 -24.764  15.103  0.00  0.00    +0.001 C 
ATOM     21  C   LIG    1       26.221 -23.904  15.322  0.00  0.00    +0.000 C 
ATOM     22  C   LIG    1       27.489 -24.657  14.946  0.00  0.00    +0.001 C 
ATOM     23  C   LIG    1       27.431 -25.204  13.522  0.00  0.00    +0.012 C 
ENDBRANCH   2  18
TORSDOF 1
ENDMDL
MODEL 7
REMARK VINA RESULT:      -5.7      2.208      5.651
REMARK  Name = *****
REMARK                            x       y       z     vdW  Elec       q    Type
REMARK                         _______ _______ _______ _____ _____    ______ ____
ROOT
ATOM      1  O   LIG    1       26.915 -19.644   7.668  0.00  0.00    -0.275 OA
ATOM      2  C   LIG    1       27.291 -20.820   7.667  0.00  0.00    +0.219 C 
ATOM      3  N   LIG    1       26.429 -21.841   8.038  0.00  0.00    -0.290 N 
ATOM      4  C   LIG    1       25.009 -21.556   8.197  0.00  0.00    +0.135 C 
ATOM      5  C   LIG    1       24.203 -22.202   7.043  0.00  0.00    +0.124 C 
ATOM      6  N   LIG    1       24.595 -23.614   6.825  0.00  0.00    -0.291 N 
ATOM      7  C   LIG    1       23.884 -24.271   5.741  0.00  0.00    +0.113 C 
ATOM      8  C   LIG    1       24.305 -23.632   4.419  0.00  0.00    +0.054 C 
ATOM      9  C   LIG    1       24.184 -22.123   4.477  0.00  0.00    -0.041 A 
ATOM     10  C   LIG    1       24.109 -21.408   3.272  0.00  0.00    +0.004 A 
ATOM     11  C   LIG    1       23.974 -20.024   3.278  0.00  0.00    +0.000 A 
ATOM     12  C   LIG    1       23.922 -19.340   4.488  0.00  0.00    +0.000 A 
ATOM     13  C   LIG    1       24.020 -20.037   5.694  0.00  0.00    +0.006 A 
ATOM     14  C   LIG    1       25.871 -24.092   7.128  0.00  0.00    +0.234 C 
ATOM     15  O   LIG    1       26.258 -25.205   6.762  0.00  0.00    -0.274 OA
ATOM     16  C   LIG    1       24.178 -21.433   5.715  0.00  0.00    -0.022 A 
ATOM     17  C   LIG    1       26.729 -23.267   8.092  0.00  0.00    +0.203 C 
ENDROOT
BRANCH   2  18
ATOM     18  C   LIG    1       28.707 -21.192   7.210  0.00  0.00    +0.075 C 
ATOM     19  C   LIG    1       29.087 -20.395   5.951  0.00  0.00    +0.012 C 
ATOM     20  C   LIG    1       29.495 -18.955   6.259  0.00  0.00    +0.001 C 
ATOM     21  C   LIG    1       30.617 -18.902   7.287  0.00  0.00    +0.000 C 
ATOM     22  C   LIG    1       30.220 -19.608   8.575  0.00  0.00    +0.001 C 
ATOM     23  C   LIG    1       29.756 -21.041   8.324  0.00  0.00    +0.012 C 
ENDBRANCH   2  18
TORSDOF 1
ENDMDL
MODEL 8
REMARK VINA RESULT:      -5.6      7.609      9.776
REMARK  Name = *****
REMARK                            x       y       z     vdW  Elec       q    Type
REMARK                         _______ _______ _______ _____ _____    ______ ____
ROOT
ATOM      1  O   LIG    1       26.394 -31.293   8.265  0.00  0.00    -0.275 OA
ATOM      2  C   LIG    1       25.184 -31.486   8.421  0.00  0.00    +0.219 C 
ATOM      3  N   LIG    1       24.712 -32.175   9.528  0.00  0.00    -0.290 N 
ATOM      4  C   LIG    1       25.618 -32.463  10.632  0.00  0.00    +0.135 C 
ATOM      5  C   LIG    1       25.258 -31.589  11.859  0.00  0.00    +0.124 C 
ATOM      6  N   LIG    1       23.805 -31.619  12.144  0.00  0.00    -0.291 N 
ATOM      7  C   LIG    1       23.401 -30.801  13.276  0.00  0.00    +0.113 C 
ATOM      8  C   LIG    1       23.610 -29.331  12.921  0.00  0.00    +0.054 C 
ATOM      9  C   LIG    1       25.007 -29.089  12.389  0.00  0.00    -0.041 A 
ATOM     10  C   LIG    1       25.519 -27.782  12.415  0.00  0.00    +0.004 A 
ATOM     11  C   LIG    1       26.806 -27.518  11.958  0.00  0.00    +0.000 A 
ATOM     12  C   LIG    1       27.591 -28.554  11.464  0.00  0.00    +0.000 A 
ATOM     13  C   LIG    1       27.084 -29.855  11.409  0.00  0.00    +0.006 A 
ATOM     14  C   LIG    1       22.851 -31.839  11.150  0.00  0.00    +0.234 C 
ATOM     15  O   LIG    1       21.646 -31.664  11.347  0.00  0.00    -0.274 OA
ATOM     16  C   LIG    1       25.780 -30.145  11.845  0.00  0.00    -0.022 A 
ATOM     17  C   LIG    1       23.322 -32.484   9.843  0.00  0.00    +0.203 C 
ENDROOT
BRANCH   2  18
ATOM     18  C   LIG    1       24.164 -30.930   7.419  0.00  0.00    +0.075 C 
ATOM     19  C   LIG    1       24.085 -29.399   7.534  0.00  0.00    +0.012 C 
ATOM     20  C   LIG    1       25.248 -28.689   6.842  0.00  0.00    +0.001 C 
ATOM     21  C   LIG    1       25.370 -29.113   5.384  0.00  0.00    +0.000 C 
ATOM     22  C   LIG    1       25.541 -30.620   5.260  0.00  0.00    +0.001 C 
ATOM     23  C   LIG    1       24.431 -31.384   5.975  0.00  0.00    +0.012 C 
ENDBRANCH   2  18
TORSDOF 1
ENDMDL
MODEL 9
REMARK VINA RESULT:      -5.6      7.366     10.258
REMARK  Name = *****
REMARK                            x       y       z     vdW  Elec       q    Type
REMARK                         _______ _______ _______ _____ _____    ______ ____
ROOT
ATOM      1  O   LIG    1       22.084 -32.255   9.224  0.00  0.00    -0.275 OA
ATOM      2  C   LIG    1       22.558 -31.908  10.310  0.00  0.00    +0.219 C 
ATOM      3  N   LIG    1       23.884 -32.168  10.622  0.00  0.00    -0.290 N 
ATOM      4  C   LIG    1       24.786 -32.635   9.578  0.00  0.00    +0.135 C 
ATOM      5  C   LIG    1       25.792 -31.518   9.204  0.00  0.00    +0.124 C 
ATOM      6  N   LIG    1       26.401 -30.905  10.407  0.00  0.00    -0.291 N 
ATOM      7  C   LIG    1       27.343 -29.835  10.122  0.00  0.00    +0.113 C 
ATOM      8  C   LIG    1       26.579 -28.652   9.531  0.00  0.00    +0.054 C 
ATOM      9  C   LIG    1       25.697 -29.089   8.380  0.00  0.00    -0.041 A 
ATOM     10  C   LIG    1       25.263 -28.121   7.461  0.00  0.00    +0.004 A 
ATOM     11  C   LIG    1       24.472 -28.481   6.375  0.00  0.00    +0.000 A 
ATOM     12  C   LIG    1       24.097 -29.809   6.203  0.00  0.00    +0.000 A 
ATOM     13  C   LIG    1       24.501 -30.778   7.124  0.00  0.00    +0.006 A 
ATOM     14  C   LIG    1       25.744 -30.858  11.638  0.00  0.00    +0.234 C 
ATOM     15  O   LIG    1       26.160 -30.176  12.578  0.00  0.00    -0.274 OA
ATOM     16  C   LIG    1       25.284 -30.437   8.240  0.00  0.00    -0.022 A 
ATOM     17  C   LIG    1       24.578 -31.827  11.859  0.00  0.00    +0.203 C 
ENDROOT
BRANCH   2  18
ATOM     18  C   LIG    1       21.708 -31.136  11.328  0.00  0.00    +0.075 C 
ATOM     19  C   LIG    1       20.529 -30.446  10.623  0.00  0.00    +0.012 C 
ATOM     20  C   LIG    1       19.385 -31.406  10.297  0.00  0.00    +0.001 C 
ATOM     21  C   LIG    1       18.908 -32.145  11.540  0.00  0.00    +0.000 C 
ATOM     22  C   LIG    1       20.047 -32.910  12.198  0.00  0.00    +0.001 C 
ATOM     23  C   LIG    1       21.242 -32.010  12.505  0.00  0.00    +0.012 C 
ENDBRANCH   2  18
TORSDOF 1
ENDMDL
