MODEL 1
REMARK VINA RESULT:      -4.2      0.000      0.000
REMARK  Name = *****
REMARK                            x       y       z     vdW  Elec       q    Type
REMARK                         _______ _______ _______ _____ _____    ______ ____
ROOT
ATOM      1  C   LIG    1       25.736 -15.480   3.607  0.00  0.00    +0.132 C 
ENDROOT
BRANCH   1   2
ATOM      2  C   LIG    1       24.986 -16.828   3.647  0.00  0.00    +0.023 A 
ATOM      3  C   LIG    1       23.638 -16.941   4.031  0.00  0.00    +0.132 A 
ATOM      4  F   LIG    1       22.915 -15.850   4.299  0.00  0.00    -0.205 F 
ATOM      5  C   LIG    1       23.005 -18.182   4.161  0.00  0.00    +0.077 A 
ATOM      6  C   LIG    1       23.704 -19.335   3.869  0.00  0.00    +0.126 A 
ATOM      7  F   LIG    1       23.111 -20.529   4.024  0.00  0.00    -0.205 F 
ATOM      8  C   LIG    1       25.016 -19.277   3.423  0.00  0.00    +0.039 A 
ATOM      9  C   LIG    1       25.651 -18.030   3.310  0.00  0.00    +0.012 A 
ENDBRANCH   1   2
BRANCH   1  10
ATOM     10  O   LIG    1       25.772 -15.133   2.192  0.00  0.00    -0.380 OA
ATOM     11  H   LIG    1       26.311 -15.822   1.742  0.00  0.00    +0.211 HD
ENDBRANCH   1  10
BRANCH   1  12
ATOM     12  C   LIG    1       24.944 -14.355   4.317  0.00  0.00    +0.186 C 
BRANCH  12  13
ATOM     13  N   LIG    1       24.768 -13.114   3.609  0.00  0.00    -0.249 N 
ATOM     14  N   LIG    1       23.828 -12.243   4.009  0.00  0.00    -0.158 NA
ATOM     15  C   LIG    1       23.729 -11.447   2.941  0.00  0.00    +0.244 A 
ATOM     16  N   LIG    1       24.585 -11.738   1.920  0.00  0.00    -0.223 NA
ATOM     17  C   LIG    1       25.222 -12.802   2.360  0.00  0.00    +0.219 A 
ENDBRANCH  12  13
ENDBRANCH   1  12
BRANCH   1  18
ATOM     18  C   LIG    1       27.220 -15.567   4.078  0.00  0.00    +0.186 C 
BRANCH  18  19
ATOM     19  N   LIG    1       27.873 -14.291   4.339  0.00  0.00    -0.249 N 
ATOM     20  N   LIG    1       28.558 -13.631   3.382  0.00  0.00    -0.158 NA
ATOM     21  C   LIG    1       28.768 -12.450   3.973  0.00  0.00    +0.244 A 
ATOM     22  N   LIG    1       28.297 -12.350   5.247  0.00  0.00    -0.223 NA
ATOM     23  C   LIG    1       27.761 -13.533   5.464  0.00  0.00    +0.219 A 
ENDBRANCH  18  19
ENDBRANCH   1  18
TORSDOF 6
ENDMDL
MODEL 2
REMARK VINA RESULT:      -3.6      3.424      4.943
REMARK  Name = *****
REMARK                            x       y       z     vdW  Elec       q    Type
REMARK                         _______ _______ _______ _____ _____    ______ ____
ROOT
ATOM      1  C   LIG    1       25.801 -19.117   4.129  0.00  0.00    +0.132 C 
ENDROOT
BRANCH   1   2
ATOM      2  C   LIG    1       24.351 -19.584   4.374  0.00  0.00    +0.023 A 
ATOM      3  C   LIG    1       24.037 -20.799   5.008  0.00  0.00    +0.132 A 
ATOM      4  F   LIG    1       25.004 -21.571   5.512  0.00  0.00    -0.205 F 
ATOM      5  C   LIG    1       22.720 -21.255   5.129  0.00  0.00    +0.077 A 
ATOM      6  C   LIG    1       21.686 -20.479   4.648  0.00  0.00    +0.126 A 
ATOM      7  F   LIG    1       20.423 -20.928   4.732  0.00  0.00    -0.205 F 
ATOM      8  C   LIG    1       21.934 -19.243   4.071  0.00  0.00    +0.039 A 
ATOM      9  C   LIG    1       23.259 -18.798   3.939  0.00  0.00    +0.012 A 
ENDBRANCH   1   2
BRANCH   1  10
ATOM     10  O   LIG    1       26.458 -20.282   3.551  0.00  0.00    -0.380 OA
ATOM     11  H   LIG    1       26.590 -20.092   2.595  0.00  0.00    +0.211 HD
ENDBRANCH   1  10
BRANCH   1  12
ATOM     12  C   LIG    1       25.877 -17.994   3.066  0.00  0.00    +0.186 C 
BRANCH  12  13
ATOM     13  N   LIG    1       26.117 -16.652   3.530  0.00  0.00    -0.249 N 
ATOM     14  N   LIG    1       25.106 -15.772   3.580  0.00  0.00    -0.158 NA
ATOM     15  C   LIG    1       25.764 -14.614   3.691  0.00  0.00    +0.244 A 
ATOM     16  N   LIG    1       27.121 -14.725   3.764  0.00  0.00    -0.223 NA
ATOM     17  C   LIG    1       27.321 -16.020   3.647  0.00  0.00    +0.219 A 
ENDBRANCH  12  13
ENDBRANCH   1  12
BRANCH   1  18
ATOM     18  C   LIG    1       26.583 -18.772   5.434  0.00  0.00    +0.186 C 
BRANCH  18  19
ATOM     19  N   LIG    1       27.558 -19.765   5.863  0.00  0.00    -0.249 N 
ATOM     20  N   LIG    1       28.865 -19.670   5.538  0.00  0.00    -0.158 NA
ATOM     21  C   LIG    1       29.400 -20.620   6.312  0.00  0.00    +0.244 A 
ATOM     22  N   LIG    1       28.508 -21.326   7.061  0.00  0.00    -0.223 NA
ATOM     23  C   LIG    1       27.351 -20.786   6.739  0.00  0.00    +0.219 A 
ENDBRANCH  18  19
ENDBRANCH   1  18
TORSDOF 6
ENDMDL
MODEL 3
REMARK VINA RESULT:      -3.3      3.364      4.771
REMARK  Name = *****
REMARK                            x       y       z     vdW  Elec       q    Type
REMARK                         _______ _______ _______ _____ _____    ______ ____
ROOT
ATOM      1  C   LIG    1       25.869 -19.001   3.944  0.00  0.00    +0.132 C 
ENDROOT
BRANCH   1   2
ATOM      2  C   LIG    1       24.458 -19.601   4.123  0.00  0.00    +0.023 A 
ATOM      3  C   LIG    1       23.305 -18.810   4.271  0.00  0.00    +0.132 A 
ATOM      4  F   LIG    1       23.378 -17.480   4.174  0.00  0.00    -0.205 F 
ATOM      5  C   LIG    1       22.050 -19.369   4.536  0.00  0.00    +0.077 A 
ATOM      6  C   LIG    1       21.922 -20.740   4.619  0.00  0.00    +0.126 A 
ATOM      7  F   LIG    1       20.727 -21.280   4.906  0.00  0.00    -0.205 F 
ATOM      8  C   LIG    1       23.015 -21.570   4.416  0.00  0.00    +0.039 A 
ATOM      9  C   LIG    1       24.274 -21.002   4.167  0.00  0.00    +0.012 A 
ENDBRANCH   1   2
BRANCH   1  10
ATOM     10  O   LIG    1       26.618 -20.048   3.262  0.00  0.00    -0.380 OA
ATOM     11  H   LIG    1       26.422 -20.891   3.728  0.00  0.00    +0.211 HD
ENDBRANCH   1  10
BRANCH   1  12
ATOM     12  C   LIG    1       25.861 -17.775   2.999  0.00  0.00    +0.186 C 
BRANCH  12  13
ATOM     13  N   LIG    1       26.263 -16.506   3.549  0.00  0.00    -0.249 N 
ATOM     14  N   LIG    1       25.431 -15.456   3.483  0.00  0.00    -0.158 NA
ATOM     15  C   LIG    1       26.260 -14.441   3.740  0.00  0.00    +0.244 A 
ATOM     16  N   LIG    1       27.547 -14.799   4.012  0.00  0.00    -0.223 NA
ATOM     17  C   LIG    1       27.527 -16.107   3.873  0.00  0.00    +0.219 A 
ENDBRANCH  12  13
ENDBRANCH   1  12
BRANCH   1  18
ATOM     18  C   LIG    1       26.615 -18.728   5.287  0.00  0.00    +0.186 C 
BRANCH  18  19
ATOM     19  N   LIG    1       27.390 -19.844   5.813  0.00  0.00    -0.249 N 
ATOM     20  N   LIG    1       28.738 -19.863   5.764  0.00  0.00    -0.158 NA
ATOM     21  C   LIG    1       29.017 -20.914   6.543  0.00  0.00    +0.244 A 
ATOM     22  N   LIG    1       27.931 -21.571   7.036  0.00  0.00    -0.223 NA
ATOM     23  C   LIG    1       26.917 -20.894   6.538  0.00  0.00    +0.219 A 
ENDBRANCH  18  19
ENDBRANCH   1  18
TORSDOF 6
ENDMDL
MODEL 4
REMARK VINA RESULT:      -2.7      3.868      6.629
REMARK  Name = *****
REMARK                            x       y       z     vdW  Elec       q    Type
REMARK                         _______ _______ _______ _____ _____    ______ ____
ROOT
ATOM      1  C   LIG    1       25.415 -18.267   3.564  0.00  0.00    +0.132 C 
ENDROOT
BRANCH   1   2
ATOM      2  C   LIG    1       25.304 -16.730   3.654  0.00  0.00    +0.023 A 
ATOM      3  C   LIG    1       24.129 -16.072   4.057  0.00  0.00    +0.132 A 
ATOM      4  F   LIG    1       23.067 -16.770   4.469  0.00  0.00    -0.205 F 
ATOM      5  C   LIG    1       24.013 -14.677   4.033  0.00  0.00    +0.077 A 
ATOM      6  C   LIG    1       25.093 -13.914   3.641  0.00  0.00    +0.126 A 
ATOM      7  F   LIG    1       24.976 -12.577   3.585  0.00  0.00    -0.205 F 
ATOM      8  C   LIG    1       26.297 -14.509   3.296  0.00  0.00    +0.039 A 
ATOM      9  C   LIG    1       26.401 -15.909   3.307  0.00  0.00    +0.012 A 
ENDBRANCH   1   2
BRANCH   1  10
ATOM     10  O   LIG    1       26.403 -18.492   2.518  0.00  0.00    -0.380 OA
ATOM     11  H   LIG    1       26.816 -17.622   2.320  0.00  0.00    +0.211 HD
ENDBRANCH   1  10
BRANCH   1  12
ATOM     12  C   LIG    1       25.994 -18.883   4.860  0.00  0.00    +0.186 C 
BRANCH  12  13
ATOM     13  N   LIG    1       27.428 -18.948   4.985  0.00  0.00    -0.249 N 
ATOM     14  N   LIG    1       27.997 -19.992   5.607  0.00  0.00    -0.158 NA
ATOM     15  C   LIG    1       29.228 -19.526   5.837  0.00  0.00    +0.244 A 
ATOM     16  N   LIG    1       29.475 -18.276   5.352  0.00  0.00    -0.223 NA
ATOM     17  C   LIG    1       28.319 -17.926   4.830  0.00  0.00    +0.219 A 
ENDBRANCH  12  13
ENDBRANCH   1  12
BRANCH   1  18
ATOM     18  C   LIG    1       24.104 -18.968   3.091  0.00  0.00    +0.186 C 
BRANCH  18  19
ATOM     19  N   LIG    1       23.539 -19.936   4.023  0.00  0.00    -0.249 N 
ATOM     20  N   LIG    1       24.116 -21.135   4.244  0.00  0.00    -0.158 NA
ATOM     21  C   LIG    1       23.423 -21.572   5.302  0.00  0.00    +0.244 A 
ATOM     22  N   LIG    1       22.428 -20.743   5.722  0.00  0.00    -0.223 NA
ATOM     23  C   LIG    1       22.503 -19.731   4.882  0.00  0.00    +0.219 A 
ENDBRANCH  18  19
ENDBRANCH   1  18
TORSDOF 6
ENDMDL
MODEL 5
REMARK VINA RESULT:      -2.7      4.292      7.208
REMARK  Name = *****
REMARK                            x       y       z     vdW  Elec       q    Type
REMARK                         _______ _______ _______ _____ _____    ______ ____
ROOT
ATOM      1  C   LIG    1       24.682 -18.756   4.045  0.00  0.00    +0.132 C 
ENDROOT
BRANCH   1   2
ATOM      2  C   LIG    1       25.079 -17.277   3.849  0.00  0.00    +0.023 A 
ATOM      3  C   LIG    1       24.170 -16.216   4.005  0.00  0.00    +0.132 A 
ATOM      4  F   LIG    1       22.922 -16.447   4.423  0.00  0.00    -0.205 F 
ATOM      5  C   LIG    1       24.520 -14.891   3.723  0.00  0.00    +0.077 A 
ATOM      6  C   LIG    1       25.805 -14.601   3.315  0.00  0.00    +0.126 A 
ATOM      7  F   LIG    1       26.136 -13.336   3.011  0.00  0.00    -0.205 F 
ATOM      8  C   LIG    1       26.759 -15.601   3.207  0.00  0.00    +0.039 A 
ATOM      9  C   LIG    1       26.398 -16.931   3.476  0.00  0.00    +0.012 A 
ENDBRANCH   1   2
BRANCH   1  10
ATOM     10  O   LIG    1       23.877 -19.068   2.872  0.00  0.00    -0.380 OA
ATOM     11  H   LIG    1       23.145 -19.652   3.173  0.00  0.00    +0.211 HD
ENDBRANCH   1  10
BRANCH   1  12
ATOM     12  C   LIG    1       25.910 -19.697   4.001  0.00  0.00    +0.186 C 
BRANCH  12  13
ATOM     13  N   LIG    1       26.527 -20.048   5.255  0.00  0.00    -0.249 N 
ATOM     14  N   LIG    1       27.780 -19.649   5.517  0.00  0.00    -0.158 NA
ATOM     15  C   LIG    1       28.104 -20.443   6.542  0.00  0.00    +0.244 A 
ATOM     16  N   LIG    1       27.111 -21.276   6.966  0.00  0.00    -0.223 NA
ATOM     17  C   LIG    1       26.130 -21.018   6.129  0.00  0.00    +0.219 A 
ENDBRANCH  12  13
ENDBRANCH   1  12
BRANCH   1  18
ATOM     18  C   LIG    1       23.769 -19.007   5.285  0.00  0.00    +0.186 C 
BRANCH  18  19
ATOM     19  N   LIG    1       22.582 -19.813   5.038  0.00  0.00    -0.249 N 
ATOM     20  N   LIG    1       21.531 -19.341   4.335  0.00  0.00    -0.158 NA
ATOM     21  C   LIG    1       20.808 -20.452   4.159  0.00  0.00    +0.244 A 
ATOM     22  N   LIG    1       21.319 -21.572   4.742  0.00  0.00    -0.223 NA
ATOM     23  C   LIG    1       22.423 -21.137   5.314  0.00  0.00    +0.219 A 
ENDBRANCH  18  19
ENDBRANCH   1  18
TORSDOF 6
ENDMDL
MODEL 6
REMARK VINA RESULT:      -2.7      1.392      2.040
REMARK  Name = *****
REMARK                            x       y       z     vdW  Elec       q    Type
REMARK                         _______ _______ _______ _____ _____    ______ ____
ROOT
ATOM      1  C   LIG    1       25.744 -15.586   3.531  0.00  0.00    +0.132 C 
ENDROOT
BRANCH   1   2
ATOM      2  C   LIG    1       24.654 -16.631   3.848  0.00  0.00    +0.023 A 
ATOM      3  C   LIG    1       24.816 -18.004   3.590  0.00  0.00    +0.132 A 
ATOM      4  F   LIG    1       25.979 -18.476   3.130  0.00  0.00    -0.205 F 
ATOM      5  C   LIG    1       23.780 -18.924   3.787  0.00  0.00    +0.077 A 
ATOM      6  C   LIG    1       22.571 -18.486   4.286  0.00  0.00    +0.126 A 
ATOM      7  F   LIG    1       21.563 -19.360   4.446  0.00  0.00    -0.205 F 
ATOM      8  C   LIG    1       22.379 -17.154   4.619  0.00  0.00    +0.039 A 
ATOM      9  C   LIG    1       23.417 -16.234   4.404  0.00  0.00    +0.012 A 
ENDBRANCH   1   2
BRANCH   1  10
ATOM     10  O   LIG    1       26.930 -16.382   3.244  0.00  0.00    -0.380 OA
ATOM     11  H   LIG    1       26.929 -17.136   3.876  0.00  0.00    +0.211 HD
ENDBRANCH   1  10
BRANCH   1  12
ATOM     12  C   LIG    1       25.425 -14.788   2.243  0.00  0.00    +0.186 C 
BRANCH  12  13
ATOM     13  N   LIG    1       24.767 -13.516   2.392  0.00  0.00    -0.249 N 
ATOM     14  N   LIG    1       25.342 -12.406   1.903  0.00  0.00    -0.158 NA
ATOM     15  C   LIG    1       24.655 -11.449   2.535  0.00  0.00    +0.244 A 
ATOM     16  N   LIG    1       23.656 -11.895   3.349  0.00  0.00    -0.223 NA
ATOM     17  C   LIG    1       23.755 -13.203   3.252  0.00  0.00    +0.219 A 
ENDBRANCH  12  13
ENDBRANCH   1  12
BRANCH   1  18
ATOM     18  C   LIG    1       26.110 -14.668   4.738  0.00  0.00    +0.186 C 
BRANCH  18  19
ATOM     19  N   LIG    1       27.205 -13.735   4.508  0.00  0.00    -0.249 N 
ATOM     20  N   LIG    1       27.463 -12.714   5.352  0.00  0.00    -0.158 NA
ATOM     21  C   LIG    1       28.646 -12.287   4.899  0.00  0.00    +0.244 A 
ATOM     22  N   LIG    1       29.118 -12.947   3.805  0.00  0.00    -0.223 NA
ATOM     23  C   LIG    1       28.178 -13.837   3.561  0.00  0.00    +0.219 A 
ENDBRANCH  18  19
ENDBRANCH   1  18
TORSDOF 6
ENDMDL
MODEL 7
REMARK VINA RESULT:      -2.5      3.912      5.257
REMARK  Name = *****
REMARK                            x       y       z     vdW  Elec       q    Type
REMARK                         _______ _______ _______ _____ _____    ______ ____
ROOT
ATOM      1  C   LIG    1       25.954 -18.051   3.579  0.00  0.00    +0.132 C 
ENDROOT
BRANCH   1   2
ATOM      2  C   LIG    1       26.832 -18.829   4.581  0.00  0.00    +0.023 A 
ATOM      3  C   LIG    1       28.156 -18.462   4.880  0.00  0.00    +0.132 A 
ATOM      4  F   LIG    1       28.686 -17.350   4.363  0.00  0.00    -0.205 F 
ATOM      5  C   LIG    1       28.972 -19.239   5.711  0.00  0.00    +0.077 A 
ATOM      6  C   LIG    1       28.460 -20.381   6.289  0.00  0.00    +0.126 A 
ATOM      7  F   LIG    1       29.249 -21.147   7.060  0.00  0.00    -0.205 F 
ATOM      8  C   LIG    1       27.141 -20.754   6.079  0.00  0.00    +0.039 A 
ATOM      9  C   LIG    1       26.332 -19.980   5.233  0.00  0.00    +0.012 A 
ENDBRANCH   1   2
BRANCH   1  10
ATOM     10  O   LIG    1       26.831 -17.819   2.440  0.00  0.00    -0.380 OA
ATOM     11  H   LIG    1       26.544 -18.433   1.727  0.00  0.00    +0.211 HD
ENDBRANCH   1  10
BRANCH   1  12
ATOM     12  C   LIG    1       24.771 -18.904   3.061  0.00  0.00    +0.186 C 
BRANCH  12  13
ATOM     13  N   LIG    1       23.832 -19.403   4.032  0.00  0.00    -0.249 N 
ATOM     14  N   LIG    1       23.751 -20.722   4.266  0.00  0.00    -0.158 NA
ATOM     15  C   LIG    1       22.582 -20.808   4.906  0.00  0.00    +0.244 A 
ATOM     16  N   LIG    1       21.954 -19.618   5.130  0.00  0.00    -0.223 NA
ATOM     17  C   LIG    1       22.757 -18.747   4.558  0.00  0.00    +0.219 A 
ENDBRANCH  12  13
ENDBRANCH   1  12
BRANCH   1  18
ATOM     18  C   LIG    1       25.511 -16.644   4.088  0.00  0.00    +0.186 C 
BRANCH  18  19
ATOM     19  N   LIG    1       26.288 -15.520   3.582  0.00  0.00    -0.249 N 
ATOM     20  N   LIG    1       26.039 -14.963   2.379  0.00  0.00    -0.158 NA
ATOM     21  C   LIG    1       26.799 -13.864   2.433  0.00  0.00    +0.244 A 
ATOM     22  N   LIG    1       27.534 -13.725   3.571  0.00  0.00    -0.223 NA
ATOM     23  C   LIG    1       27.215 -14.797   4.267  0.00  0.00    +0.219 A 
ENDBRANCH  18  19
ENDBRANCH   1  18
TORSDOF 6
ENDMDL
MODEL 8
REMARK VINA RESULT:      -1.6      2.965      5.324
REMARK  Name = *****
REMARK                            x       y       z     vdW  Elec       q    Type
REMARK                         _______ _______ _______ _____ _____    ______ ____
ROOT
ATOM      1  C   LIG    1       25.332 -15.506   3.560  0.00  0.00    +0.132 C 
ENDROOT
BRANCH   1   2
ATOM      2  C   LIG    1       26.458 -14.516   3.926  0.00  0.00    +0.023 A 
ATOM      3  C   LIG    1       26.476 -13.793   5.132  0.00  0.00    +0.132 A 
ATOM      4  F   LIG    1       25.542 -14.004   6.064  0.00  0.00    -0.205 F 
ATOM      5  C   LIG    1       27.449 -12.823   5.402  0.00  0.00    +0.077 A 
ATOM      6  C   LIG    1       28.448 -12.591   4.480  0.00  0.00    +0.126 A 
ATOM      7  F   LIG    1       29.364 -11.639   4.720  0.00  0.00    -0.205 F 
ATOM      8  C   LIG    1       28.515 -13.322   3.304  0.00  0.00    +0.039 A 
ATOM      9  C   LIG    1       27.527 -14.281   3.032  0.00  0.00    +0.012 A 
ENDBRANCH   1   2
BRANCH   1  10
ATOM     10  O   LIG    1       24.661 -15.768   4.827  0.00  0.00    -0.380 OA
ATOM     11  H   LIG    1       25.288 -15.516   5.541  0.00  0.00    +0.211 HD
ENDBRANCH   1  10
BRANCH   1  12
ATOM     12  C   LIG    1       24.278 -14.865   2.626  0.00  0.00    +0.186 C 
BRANCH  12  13
ATOM     13  N   LIG    1       24.098 -13.438   2.703  0.00  0.00    -0.249 N 
ATOM     14  N   LIG    1       24.707 -12.639   1.812  0.00  0.00    -0.158 NA
ATOM     15  C   LIG    1       24.608 -11.448   2.410  0.00  0.00    +0.244 A 
ATOM     16  N   LIG    1       23.931 -11.449   3.594  0.00  0.00    -0.223 NA
ATOM     17  C   LIG    1       23.631 -12.718   3.764  0.00  0.00    +0.219 A 
ENDBRANCH  12  13
ENDBRANCH   1  12
BRANCH   1  18
ATOM     18  C   LIG    1       25.846 -16.885   3.040  0.00  0.00    +0.186 C 
BRANCH  18  19
ATOM     19  N   LIG    1       25.222 -18.055   3.644  0.00  0.00    -0.249 N 
ATOM     20  N   LIG    1       23.890 -18.260   3.594  0.00  0.00    -0.158 NA
ATOM     21  C   LIG    1       23.797 -19.517   4.041  0.00  0.00    +0.244 A 
ATOM     22  N   LIG    1       24.979 -20.089   4.404  0.00  0.00    -0.223 NA
ATOM     23  C   LIG    1       25.859 -19.137   4.171  0.00  0.00    +0.219 A 
ENDBRANCH  18  19
ENDBRANCH   1  18
TORSDOF 6
ENDMDL
MODEL 9
REMARK VINA RESULT:      -1.4      4.087      5.727
REMARK  Name = *****
REMARK                            x       y       z     vdW  Elec       q    Type
REMARK                         _______ _______ _______ _____ _____    ______ ____
ROOT
ATOM      1  C   LIG    1       25.750 -18.292   3.783  0.00  0.00    +0.132 C 
ENDROOT
BRANCH   1   2
ATOM      2  C   LIG    1       26.742 -19.005   4.726  0.00  0.00    +0.023 A 
ATOM      3  C   LIG    1       28.069 -18.576   4.904  0.00  0.00    +0.132 A 
ATOM      4  F   LIG    1       28.505 -17.458   4.316  0.00  0.00    -0.205 F 
ATOM      5  C   LIG    1       28.984 -19.294   5.682  0.00  0.00    +0.077 A 
ATOM      6  C   LIG    1       28.571 -20.440   6.330  0.00  0.00    +0.126 A 
ATOM      7  F   LIG    1       29.454 -21.150   7.051  0.00  0.00    -0.205 F 
ATOM      8  C   LIG    1       27.257 -20.872   6.241  0.00  0.00    +0.039 A 
ATOM      9  C   LIG    1       26.348 -20.156   5.446  0.00  0.00    +0.012 A 
ENDBRANCH   1   2
BRANCH   1  10
ATOM     10  O   LIG    1       24.807 -17.642   4.683  0.00  0.00    -0.380 OA
ATOM     11  H   LIG    1       24.459 -16.852   4.212  0.00  0.00    +0.211 HD
ENDBRANCH   1  10
BRANCH   1  12
ATOM     12  C   LIG    1       26.432 -17.166   2.969  0.00  0.00    +0.186 C 
BRANCH  12  13
ATOM     13  N   LIG    1       26.225 -15.809   3.404  0.00  0.00    -0.249 N 
ATOM     14  N   LIG    1       24.993 -15.279   3.375  0.00  0.00    -0.158 NA
ATOM     15  C   LIG    1       25.261 -13.974   3.485  0.00  0.00    +0.244 A 
ATOM     16  N   LIG    1       26.581 -13.665   3.633  0.00  0.00    -0.223 NA
ATOM     17  C   LIG    1       27.170 -14.838   3.566  0.00  0.00    +0.219 A 
ENDBRANCH  12  13
ENDBRANCH   1  12
BRANCH   1  18
ATOM     18  C   LIG    1       24.914 -19.264   2.894  0.00  0.00    +0.186 C 
BRANCH  18  19
ATOM     19  N   LIG    1       23.801 -19.926   3.562  0.00  0.00    -0.249 N 
ATOM     20  N   LIG    1       23.858 -21.223   3.927  0.00  0.00    -0.158 NA
ATOM     21  C   LIG    1       22.763 -21.333   4.687  0.00  0.00    +0.244 A 
ATOM     22  N   LIG    1       22.010 -20.202   4.782  0.00  0.00    -0.223 NA
ATOM     23  C   LIG    1       22.671 -19.337   4.041  0.00  0.00    +0.219 A 
ENDBRANCH  18  19
ENDBRANCH   1  18
TORSDOF 6
ENDMDL
