MODEL 1
REMARK VINA RESULT:     -10.1      0.000      0.000
REMARK  Name = *****
REMARK                            x       y       z     vdW  Elec       q    Type
REMARK                         _______ _______ _______ _____ _____    ______ ____
ROOT
ATOM      1  C   LIG    1       26.376 -20.971   6.417  0.00  0.00    +0.322 C 
ATOM      2  C   LIG    1       25.209 -20.515   5.602  0.00  0.00    +0.079 A 
ATOM      3  C   LIG    1       23.895 -20.604   6.070  0.00  0.00    +0.028 A 
ATOM      4  C   LIG    1       22.848 -20.056   5.319  0.00  0.00    +0.016 A 
ATOM      5  C   LIG    1       23.110 -19.484   4.067  0.00  0.00    +0.001 A 
ATOM      6  C   LIG    1       24.409 -19.482   3.558  0.00  0.00    +0.001 A 
ATOM      7  S   LIG    1       23.486 -21.548   7.534  0.00  0.00    -0.084 S 
ATOM      8  C   LIG    1       24.194 -23.096   6.961  0.00  0.00    +0.063 A 
ATOM      9  C   LIG    1       25.566 -23.203   6.652  0.00  0.00    +0.190 A 
ATOM     10  C   LIG    1       26.049 -24.420   6.163  0.00  0.00    +0.056 A 
ATOM     11  C   LIG    1       25.201 -25.501   5.940  0.00  0.00    +0.004 A 
ATOM     12  C   LIG    1       23.840 -25.384   6.223  0.00  0.00    +0.001 A 
ATOM     13  C   LIG    1       23.341 -24.184   6.737  0.00  0.00    +0.019 A 
ATOM     14  C   LIG    1       25.463 -19.982   4.321  0.00  0.00    +0.017 A 
ATOM     15  N   LIG    1       26.510 -22.192   6.869  0.00  0.00    -0.040 NA
ENDROOT
BRANCH   1  19
ATOM     16  N   LIG    1       30.031 -18.763   7.297  0.00  0.00    -0.293 NA
ATOM     17  C   LIG    1       29.420 -18.772   5.948  0.00  0.00    +0.128 C 
ATOM     18  C   LIG    1       28.475 -19.953   5.676  0.00  0.00    +0.241 C 
ATOM     19  N   LIG    1       27.390 -20.046   6.683  0.00  0.00    -0.218 N 
ATOM     20  C   LIG    1       27.928 -20.007   8.081  0.00  0.00    +0.241 C 
ATOM     21  C   LIG    1       28.915 -18.827   8.275  0.00  0.00    +0.128 C 
BRANCH  16  22
ATOM     22  C   LIG    1       30.989 -19.871   7.502  0.00  0.00    +0.112 C 
BRANCH  22  23
ATOM     23  C   LIG    1       31.414 -20.073   8.968  0.00  0.00    +0.175 C 
BRANCH  23  24
ATOM     24  O   LIG    1       32.288 -19.013   9.365  0.00  0.00    -0.376 OA
BRANCH  24  25
ATOM     25  C   LIG    1       31.600 -18.069  10.188  0.00  0.00    +0.187 C 
BRANCH  25  26
ATOM     26  C   LIG    1       31.938 -16.658   9.730  0.00  0.00    +0.184 C 
BRANCH  26  27
ATOM     27  O   LIG    1       32.448 -16.683   8.403  0.00  0.00    -0.393 OA
ATOM     28  H   LIG    1       32.900 -17.537   8.294  0.00  0.00    +0.209 HD
ENDBRANCH  26  27
ENDBRANCH  25  26
ENDBRANCH  24  25
ENDBRANCH  23  24
ENDBRANCH  22  23
ENDBRANCH  16  22
ENDBRANCH   1  19
TORSDOF 7
ENDMDL
MODEL 2
REMARK VINA RESULT:      -8.9      1.166      1.876
REMARK  Name = *****
REMARK                            x       y       z     vdW  Elec       q    Type
REMARK                         _______ _______ _______ _____ _____    ______ ____
ROOT
ATOM      1  C   LIG    1       26.426 -20.933   6.436  0.00  0.00    +0.322 C 
ATOM      2  C   LIG    1       25.260 -20.495   5.610  0.00  0.00    +0.079 A 
ATOM      3  C   LIG    1       23.943 -20.594   6.071  0.00  0.00    +0.028 A 
ATOM      4  C   LIG    1       22.896 -20.063   5.309  0.00  0.00    +0.016 A 
ATOM      5  C   LIG    1       23.160 -19.498   4.053  0.00  0.00    +0.001 A 
ATOM      6  C   LIG    1       24.462 -19.486   3.553  0.00  0.00    +0.001 A 
ATOM      7  S   LIG    1       23.535 -21.531   7.539  0.00  0.00    -0.084 S 
ATOM      8  C   LIG    1       24.262 -23.075   6.983  0.00  0.00    +0.063 A 
ATOM      9  C   LIG    1       25.637 -23.172   6.684  0.00  0.00    +0.190 A 
ATOM     10  C   LIG    1       26.135 -24.387   6.207  0.00  0.00    +0.056 A 
ATOM     11  C   LIG    1       25.300 -25.478   5.987  0.00  0.00    +0.004 A 
ATOM     12  C   LIG    1       23.936 -25.373   6.261  0.00  0.00    +0.001 A 
ATOM     13  C   LIG    1       23.421 -24.174   6.762  0.00  0.00    +0.019 A 
ATOM     14  C   LIG    1       25.517 -19.970   4.327  0.00  0.00    +0.017 A 
ATOM     15  N   LIG    1       26.570 -22.149   6.898  0.00  0.00    -0.040 NA
ENDROOT
BRANCH   1  19
ATOM     16  N   LIG    1       30.053 -18.681   7.322  0.00  0.00    -0.293 NA
ATOM     17  C   LIG    1       29.451 -18.707   5.969  0.00  0.00    +0.128 C 
ATOM     18  C   LIG    1       28.519 -19.900   5.701  0.00  0.00    +0.241 C 
ATOM     19  N   LIG    1       27.428 -19.996   6.701  0.00  0.00    -0.218 N 
ATOM     20  C   LIG    1       27.957 -19.939   8.103  0.00  0.00    +0.241 C 
ATOM     21  C   LIG    1       28.931 -18.749   8.293  0.00  0.00    +0.128 C 
BRANCH  16  22
ATOM     22  C   LIG    1       31.020 -19.777   7.543  0.00  0.00    +0.112 C 
BRANCH  22  23
ATOM     23  C   LIG    1       31.881 -19.612   8.808  0.00  0.00    +0.175 C 
BRANCH  23  24
ATOM     24  O   LIG    1       32.285 -20.899   9.285  0.00  0.00    -0.376 OA
BRANCH  24  25
ATOM     25  C   LIG    1       31.513 -21.933   8.669  0.00  0.00    +0.187 C 
BRANCH  25  26
ATOM     26  C   LIG    1       30.340 -22.292   9.570  0.00  0.00    +0.184 C 
BRANCH  26  27
ATOM     27  O   LIG    1       30.708 -22.145  10.935  0.00  0.00    -0.393 OA
ATOM     28  H   LIG    1       30.398 -21.267  11.215  0.00  0.00    +0.209 HD
ENDBRANCH  26  27
ENDBRANCH  25  26
ENDBRANCH  24  25
ENDBRANCH  23  24
ENDBRANCH  22  23
ENDBRANCH  16  22
ENDBRANCH   1  19
TORSDOF 7
ENDMDL
MODEL 3
REMARK VINA RESULT:      -8.4      4.553      7.851
REMARK  Name = *****
REMARK                            x       y       z     vdW  Elec       q    Type
REMARK                         _______ _______ _______ _____ _____    ______ ____
ROOT
ATOM      1  C   LIG    1       25.189 -23.100   5.743  0.00  0.00    +0.322 C 
ATOM      2  C   LIG    1       25.762 -22.168   6.762  0.00  0.00    +0.079 A 
ATOM      3  C   LIG    1       24.955 -21.443   7.643  0.00  0.00    +0.028 A 
ATOM      4  C   LIG    1       25.542 -20.674   8.656  0.00  0.00    +0.016 A 
ATOM      5  C   LIG    1       26.938 -20.576   8.739  0.00  0.00    +0.001 A 
ATOM      6  C   LIG    1       27.742 -21.224   7.800  0.00  0.00    +0.001 A 
ATOM      7  S   LIG    1       23.184 -21.335   7.414  0.00  0.00    -0.084 S 
ATOM      8  C   LIG    1       23.251 -20.689   5.741  0.00  0.00    +0.063 A 
ATOM      9  C   LIG    1       23.856 -21.419   4.697  0.00  0.00    +0.190 A 
ATOM     10  C   LIG    1       23.922 -20.842   3.426  0.00  0.00    +0.056 A 
ATOM     11  C   LIG    1       23.444 -19.558   3.186  0.00  0.00    +0.004 A 
ATOM     12  C   LIG    1       22.868 -18.827   4.226  0.00  0.00    +0.001 A 
ATOM     13  C   LIG    1       22.769 -19.395   5.499  0.00  0.00    +0.019 A 
ATOM     14  C   LIG    1       27.165 -22.029   6.819  0.00  0.00    +0.017 A 
ATOM     15  N   LIG    1       24.338 -22.729   4.821  0.00  0.00    -0.040 NA
ENDROOT
BRANCH   1  19
ATOM     16  N   LIG    1       25.697 -27.427   5.904  0.00  0.00    -0.293 NA
ATOM     17  C   LIG    1       25.828 -26.664   4.642  0.00  0.00    +0.128 C 
ATOM     18  C   LIG    1       25.144 -25.287   4.646  0.00  0.00    +0.241 C 
ATOM     19  N   LIG    1       25.613 -24.431   5.763  0.00  0.00    -0.218 N 
ATOM     20  C   LIG    1       25.545 -25.149   7.077  0.00  0.00    +0.241 C 
ATOM     21  C   LIG    1       26.203 -26.551   6.992  0.00  0.00    +0.128 C 
BRANCH  16  22
ATOM     22  C   LIG    1       24.310 -27.865   6.170  0.00  0.00    +0.112 C 
BRANCH  22  23
ATOM     23  C   LIG    1       24.122 -29.393   6.177  0.00  0.00    +0.175 C 
BRANCH  23  24
ATOM     24  O   LIG    1       23.974 -29.852   7.524  0.00  0.00    -0.376 OA
BRANCH  24  25
ATOM     25  C   LIG    1       25.208 -30.374   8.020  0.00  0.00    +0.187 C 
BRANCH  25  26
ATOM     26  C   LIG    1       25.717 -29.485   9.146  0.00  0.00    +0.184 C 
BRANCH  26  27
ATOM     27  O   LIG    1       27.130 -29.356   9.068  0.00  0.00    -0.393 OA
ATOM     28  H   LIG    1       27.505 -30.199   9.375  0.00  0.00    +0.209 HD
ENDBRANCH  26  27
ENDBRANCH  25  26
ENDBRANCH  24  25
ENDBRANCH  23  24
ENDBRANCH  22  23
ENDBRANCH  16  22
ENDBRANCH   1  19
TORSDOF 7
ENDMDL
