MODEL 1
REMARK VINA RESULT:      -4.7      0.000      0.000
REMARK  Name = *****
REMARK                            x       y       z     vdW  Elec       q    Type
REMARK                         _______ _______ _______ _____ _____    ______ ____
ROOT
ATOM      1  C   LIG    1       24.149 -20.235   4.968  0.00  0.00    +0.185 C 
ENDROOT
BRANCH   1   2
ATOM      2  C   LIG    1       22.839 -20.119   5.687  0.00  0.00    +0.395 C 
ATOM      3  F   LIG    1       23.024 -20.304   7.015  0.00  0.00    -0.171 F 
ATOM      4  F   LIG    1       21.954 -21.049   5.272  0.00  0.00    -0.171 F 
ATOM      5  F   LIG    1       22.285 -18.904   5.524  0.00  0.00    -0.171 F 
ENDBRANCH   1   2
BRANCH   1   7
ATOM      6  F   LIG    1       25.019 -18.646   3.513  0.00  0.00    -0.209 F 
ATOM      7  C   LIG    1       24.027 -19.569   3.628  0.00  0.00    +0.350 C 
ATOM      8  F   LIG    1       24.224 -20.464   2.634  0.00  0.00    -0.209 F 
ENDBRANCH   1   7
TORSDOF 2
ENDMDL
MODEL 2
REMARK VINA RESULT:      -4.6      1.700      2.364
REMARK  Name = *****
REMARK                            x       y       z     vdW  Elec       q    Type
REMARK                         _______ _______ _______ _____ _____    ______ ____
ROOT
ATOM      1  C   LIG    1       23.075 -19.249   4.293  0.00  0.00    +0.185 C 
ENDROOT
BRANCH   1   2
ATOM      2  C   LIG    1       22.850 -20.445   5.168  0.00  0.00    +0.395 C 
ATOM      3  F   LIG    1       22.852 -20.071   6.469  0.00  0.00    -0.171 F 
ATOM      4  F   LIG    1       23.821 -21.369   5.014  0.00  0.00    -0.171 F 
ATOM      5  F   LIG    1       21.664 -21.029   4.921  0.00  0.00    -0.171 F 
ENDBRANCH   1   2
BRANCH   1   7
ATOM      6  F   LIG    1       22.551 -16.991   4.453  0.00  0.00    -0.209 F 
ATOM      7  C   LIG    1       22.008 -18.232   4.580  0.00  0.00    +0.350 C 
ATOM      8  F   LIG    1       21.019 -18.310   3.663  0.00  0.00    -0.209 F 
ENDBRANCH   1   7
TORSDOF 2
ENDMDL
MODEL 3
REMARK VINA RESULT:      -4.6      1.326      2.182
REMARK  Name = *****
REMARK                            x       y       z     vdW  Elec       q    Type
REMARK                         _______ _______ _______ _____ _____    ______ ____
ROOT
ATOM      1  C   LIG    1       23.574 -19.032   3.841  0.00  0.00    +0.185 C 
ENDROOT
BRANCH   1   2
ATOM      2  C   LIG    1       22.370 -18.861   4.718  0.00  0.00    +0.395 C 
ATOM      3  F   LIG    1       22.154 -17.545   4.952  0.00  0.00    -0.171 F 
ATOM      4  F   LIG    1       22.534 -19.459   5.917  0.00  0.00    -0.171 F 
ATOM      5  F   LIG    1       21.259 -19.356   4.145  0.00  0.00    -0.171 F 
ENDBRANCH   1   2
BRANCH   1   7
ATOM      6  F   LIG    1       23.918 -21.255   3.259  0.00  0.00    -0.209 F 
ATOM      7  C   LIG    1       24.250 -20.325   4.195  0.00  0.00    +0.350 C 
ATOM      8  F   LIG    1       25.594 -20.189   4.136  0.00  0.00    -0.209 F 
ENDBRANCH   1   7
TORSDOF 2
ENDMDL
MODEL 4
REMARK VINA RESULT:      -4.6      0.934      3.309
REMARK  Name = *****
REMARK                            x       y       z     vdW  Elec       q    Type
REMARK                         _______ _______ _______ _____ _____    ______ ____
ROOT
ATOM      1  C   LIG    1       22.926 -19.387   4.488  0.00  0.00    +0.185 C 
ENDROOT
BRANCH   1   2
ATOM      2  C   LIG    1       24.267 -19.393   3.819  0.00  0.00    +0.395 C 
ATOM      3  F   LIG    1       25.217 -19.801   4.694  0.00  0.00    -0.171 F 
ATOM      4  F   LIG    1       24.620 -18.163   3.389  0.00  0.00    -0.171 F 
ATOM      5  F   LIG    1       24.300 -20.234   2.770  0.00  0.00    -0.171 F 
ENDBRANCH   1   2
BRANCH   1   7
ATOM      6  F   LIG    1       22.811 -20.322   6.611  0.00  0.00    -0.209 F 
ATOM      7  C   LIG    1       22.780 -20.647   5.291  0.00  0.00    +0.350 C 
ATOM      8  F   LIG    1       21.575 -21.216   5.067  0.00  0.00    -0.209 F 
ENDBRANCH   1   7
TORSDOF 2
ENDMDL
MODEL 5
REMARK VINA RESULT:      -4.6      1.249      2.213
REMARK  Name = *****
REMARK                            x       y       z     vdW  Elec       q    Type
REMARK                         _______ _______ _______ _____ _____    ______ ____
ROOT
ATOM      1  C   LIG    1       23.738 -19.374   4.082  0.00  0.00    +0.185 C 
ENDROOT
BRANCH   1   2
ATOM      2  C   LIG    1       22.536 -19.297   4.975  0.00  0.00    +0.395 C 
ATOM      3  F   LIG    1       21.591 -20.169   4.551  0.00  0.00    -0.171 F 
ATOM      4  F   LIG    1       21.981 -18.067   4.965  0.00  0.00    -0.171 F 
ATOM      5  F   LIG    1       22.836 -19.618   6.246  0.00  0.00    -0.171 F 
ENDBRANCH   1   2
BRANCH   1   7
ATOM      6  F   LIG    1       24.597 -21.532   4.107  0.00  0.00    -0.209 F 
ATOM      7  C   LIG    1       24.736 -20.313   4.694  0.00  0.00    +0.350 C 
ATOM      8  F   LIG    1       25.997 -19.904   4.428  0.00  0.00    -0.209 F 
ENDBRANCH   1   7
TORSDOF 2
ENDMDL
MODEL 6
REMARK VINA RESULT:      -4.5      0.771      3.437
REMARK  Name = *****
REMARK                            x       y       z     vdW  Elec       q    Type
REMARK                         _______ _______ _______ _____ _____    ______ ____
ROOT
ATOM      1  C   LIG    1       24.208 -20.372   5.012  0.00  0.00    +0.185 C 
ENDROOT
BRANCH   1   2
ATOM      2  C   LIG    1       24.254 -19.602   3.727  0.00  0.00    +0.395 C 
ATOM      3  F   LIG    1       24.218 -20.457   2.677  0.00  0.00    -0.171 F 
ATOM      4  F   LIG    1       25.387 -18.877   3.615  0.00  0.00    -0.171 F 
ATOM      5  F   LIG    1       23.204 -18.771   3.603  0.00  0.00    -0.171 F 
ENDBRANCH   1   2
BRANCH   1   7
ATOM      6  F   LIG    1       21.976 -20.972   5.240  0.00  0.00    -0.209 F 
ATOM      7  C   LIG    1       22.903 -20.089   5.699  0.00  0.00    +0.350 C 
ATOM      8  F   LIG    1       23.010 -20.306   7.029  0.00  0.00    -0.209 F 
ENDBRANCH   1   7
TORSDOF 2
ENDMDL
MODEL 7
REMARK VINA RESULT:      -4.5      1.388      2.848
REMARK  Name = *****
REMARK                            x       y       z     vdW  Elec       q    Type
REMARK                         _______ _______ _______ _____ _____    ______ ____
ROOT
ATOM      1  C   LIG    1       23.707 -19.387   3.938  0.00  0.00    +0.185 C 
ENDROOT
BRANCH   1   2
ATOM      2  C   LIG    1       24.705 -20.283   4.606  0.00  0.00    +0.395 C 
ATOM      3  F   LIG    1       25.962 -19.865   4.323  0.00  0.00    -0.171 F 
ATOM      4  F   LIG    1       24.601 -21.559   4.177  0.00  0.00    -0.171 F 
ATOM      5  F   LIG    1       24.571 -20.273   5.944  0.00  0.00    -0.171 F 
ENDBRANCH   1   2
BRANCH   1   7
ATOM      6  F   LIG    1       21.685 -18.303   4.307  0.00  0.00    -0.209 F 
ATOM      7  C   LIG    1       22.502 -19.260   4.825  0.00  0.00    +0.350 C 
ATOM      8  F   LIG    1       21.789 -20.409   4.824  0.00  0.00    -0.209 F 
ENDBRANCH   1   7
TORSDOF 2
ENDMDL
MODEL 8
REMARK VINA RESULT:      -4.4      5.433      6.719
REMARK  Name = *****
REMARK                            x       y       z     vdW  Elec       q    Type
REMARK                         _______ _______ _______ _____ _____    ______ ____
ROOT
ATOM      1  C   LIG    1       25.621 -14.067   4.339  0.00  0.00    +0.185 C 
ENDROOT
BRANCH   1   2
ATOM      2  C   LIG    1       26.500 -14.844   3.406  0.00  0.00    +0.395 C 
ATOM      3  F   LIG    1       26.004 -16.092   3.239  0.00  0.00    -0.171 F 
ATOM      4  F   LIG    1       27.754 -14.971   3.887  0.00  0.00    -0.171 F 
ATOM      5  F   LIG    1       26.567 -14.273   2.191  0.00  0.00    -0.171 F 
ENDBRANCH   1   2
BRANCH   1   7
ATOM      6  F   LIG    1       23.422 -14.762   4.620  0.00  0.00    -0.209 F 
ATOM      7  C   LIG    1       24.225 -14.048   3.786  0.00  0.00    +0.350 C 
ATOM      8  F   LIG    1       23.736 -12.788   3.774  0.00  0.00    -0.209 F 
ENDBRANCH   1   7
TORSDOF 2
ENDMDL
MODEL 9
REMARK VINA RESULT:      -4.4      5.437      6.735
REMARK  Name = *****
REMARK                            x       y       z     vdW  Elec       q    Type
REMARK                         _______ _______ _______ _____ _____    ______ ____
ROOT
ATOM      1  C   LIG    1       25.658 -14.053   4.322  0.00  0.00    +0.185 C 
ENDROOT
BRANCH   1   2
ATOM      2  C   LIG    1       26.529 -14.853   3.401  0.00  0.00    +0.395 C 
ATOM      3  F   LIG    1       27.771 -14.969   3.928  0.00  0.00    -0.171 F 
ATOM      4  F   LIG    1       26.658 -14.265   2.194  0.00  0.00    -0.171 F 
ATOM      5  F   LIG    1       26.053 -16.098   3.219  0.00  0.00    -0.171 F 
ENDBRANCH   1   2
BRANCH   1   7
ATOM      6  F   LIG    1       23.471 -14.805   4.545  0.00  0.00    -0.209 F 
ATOM      7  C   LIG    1       24.264 -14.023   3.764  0.00  0.00    +0.350 C 
ATOM      8  F   LIG    1       23.752 -12.774   3.832  0.00  0.00    -0.209 F 
ENDBRANCH   1   7
TORSDOF 2
ENDMDL
