MODEL 1
REMARK VINA RESULT:      -7.5      0.000      0.000
REMARK  Name = *****
REMARK                            x       y       z     vdW  Elec       q    Type
REMARK                         _______ _______ _______ _____ _____    ______ ____
ROOT
ATOM      1  C   LIG    1       25.713 -20.748   5.720  0.00  0.00    -0.007 C 
ATOM      2  C   LIG    1       25.386 -19.880   4.649  0.00  0.00    -0.031 C 
ENDROOT
BRANCH   1   6
ATOM      3  C   LIG    1       29.398 -19.955   8.000  0.00  0.00    +0.121 A 
ATOM      4  C   LIG    1       28.158 -19.846   8.612  0.00  0.00    +0.046 A 
ATOM      5  C   LIG    1       26.991 -20.286   7.942  0.00  0.00    +0.012 A 
ATOM      6  C   LIG    1       26.985 -20.527   6.561  0.00  0.00    -0.017 A 
ATOM      7  C   LIG    1       28.265 -20.612   5.976  0.00  0.00    +0.012 A 
ATOM      8  C   LIG    1       29.438 -20.444   6.710  0.00  0.00    +0.046 A 
BRANCH   3   9
ATOM      9  O   LIG    1       30.512 -19.593   8.712  0.00  0.00    -0.490 OA
BRANCH   9  10
ATOM     10  C   LIG    1       31.289 -18.527   8.143  0.00  0.00    +0.257 C 
BRANCH  10  11
ATOM     11  C   LIG    1       31.853 -17.554   9.189  0.00  0.00    +0.197 C 
BRANCH  11  12
ATOM     12  O   LIG    1       32.597 -16.516   8.557  0.00  0.00    -0.392 OA
ATOM     13  H   LIG    1       32.139 -15.675   8.731  0.00  0.00    +0.209 HD
ENDBRANCH  11  12
ENDBRANCH  10  11
ENDBRANCH   9  10
ENDBRANCH   3   9
ENDBRANCH   1   6
BRANCH   1  14
ATOM     14  C   LIG    1       24.893 -22.056   6.104  0.00  0.00    -0.017 A 
ATOM     15  C   LIG    1       23.603 -22.129   6.587  0.00  0.00    +0.008 A 
ATOM     16  C   LIG    1       22.857 -23.294   6.805  0.00  0.00    +0.001 A 
ATOM     17  C   LIG    1       23.478 -24.532   6.610  0.00  0.00    +0.000 A 
ATOM     18  C   LIG    1       24.775 -24.545   6.211  0.00  0.00    +0.001 A 
ATOM     19  C   LIG    1       25.490 -23.352   5.986  0.00  0.00    +0.008 A 
ENDBRANCH   1  14
BRANCH   2  20
ATOM     20  C   LIG    1       26.102 -18.580   4.164  0.00  0.00    -0.021 A 
ATOM     21  C   LIG    1       27.423 -18.190   4.390  0.00  0.00    +0.008 A 
ATOM     22  C   LIG    1       27.898 -16.879   4.192  0.00  0.00    +0.001 A 
ATOM     23  C   LIG    1       27.106 -15.924   3.617  0.00  0.00    +0.000 A 
ATOM     24  C   LIG    1       25.859 -16.314   3.160  0.00  0.00    +0.001 A 
ATOM     25  C   LIG    1       25.441 -17.631   3.382  0.00  0.00    +0.008 A 
ENDBRANCH   2  20
BRANCH   2  26
ATOM     26  C   LIG    1       24.210 -20.138   3.632  0.00  0.00    +0.052 C 
BRANCH  26  27
ATOM     27  C   LIG    1       22.695 -19.888   3.953  0.00  0.00    +0.113 C 
ATOM     28 CL   LIG    1       22.175 -18.320   4.651  0.00  0.00    -0.125 Cl
ENDBRANCH  26  27
ENDBRANCH   2  26
TORSDOF 9
ENDMDL
MODEL 2
REMARK VINA RESULT:      -7.5      1.019      1.767
REMARK  Name = *****
REMARK                            x       y       z     vdW  Elec       q    Type
REMARK                         _______ _______ _______ _____ _____    ______ ____
ROOT
ATOM      1  C   LIG    1       25.637 -20.664   5.544  0.00  0.00    -0.007 C 
ATOM      2  C   LIG    1       25.339 -19.771   4.485  0.00  0.00    -0.031 C 
ENDROOT
BRANCH   1   6
ATOM      3  C   LIG    1       29.214 -19.879   7.993  0.00  0.00    +0.121 A 
ATOM      4  C   LIG    1       27.958 -19.926   8.581  0.00  0.00    +0.046 A 
ATOM      5  C   LIG    1       26.839 -20.368   7.837  0.00  0.00    +0.012 A 
ATOM      6  C   LIG    1       26.875 -20.452   6.437  0.00  0.00    -0.017 A 
ATOM      7  C   LIG    1       28.168 -20.381   5.880  0.00  0.00    +0.012 A 
ATOM      8  C   LIG    1       29.312 -20.216   6.658  0.00  0.00    +0.046 A 
BRANCH   3   9
ATOM      9  O   LIG    1       30.287 -19.524   8.769  0.00  0.00    -0.490 OA
BRANCH   9  10
ATOM     10  C   LIG    1       31.431 -20.388   8.675  0.00  0.00    +0.257 C 
BRANCH  10  11
ATOM     11  C   LIG    1       31.158 -21.820   9.159  0.00  0.00    +0.197 C 
BRANCH  11  12
ATOM     12  O   LIG    1       32.133 -22.718   8.636  0.00  0.00    -0.392 OA
ATOM     13  H   LIG    1       32.900 -22.190   8.351  0.00  0.00    +0.209 HD
ENDBRANCH  11  12
ENDBRANCH  10  11
ENDBRANCH   9  10
ENDBRANCH   3   9
ENDBRANCH   1   6
BRANCH   1  14
ATOM     14  C   LIG    1       24.820 -21.991   5.862  0.00  0.00    -0.017 A 
ATOM     15  C   LIG    1       25.200 -23.293   5.613  0.00  0.00    +0.008 A 
ATOM     16  C   LIG    1       24.520 -24.453   6.009  0.00  0.00    +0.001 A 
ATOM     17  C   LIG    1       23.282 -24.318   6.645  0.00  0.00    +0.000 A 
ATOM     18  C   LIG    1       22.800 -23.067   6.855  0.00  0.00    +0.001 A 
ATOM     19  C   LIG    1       23.518 -21.923   6.457  0.00  0.00    +0.008 A 
ENDBRANCH   1  14
BRANCH   2  20
ATOM     20  C   LIG    1       26.056 -18.450   4.063  0.00  0.00    -0.021 A 
ATOM     21  C   LIG    1       27.383 -18.081   4.287  0.00  0.00    +0.008 A 
ATOM     22  C   LIG    1       27.864 -16.764   4.156  0.00  0.00    +0.001 A 
ATOM     23  C   LIG    1       27.069 -15.773   3.649  0.00  0.00    +0.000 A 
ATOM     24  C   LIG    1       25.812 -16.129   3.192  0.00  0.00    +0.001 A 
ATOM     25  C   LIG    1       25.388 -17.455   3.346  0.00  0.00    +0.008 A 
ENDBRANCH   2  20
BRANCH   2  26
ATOM     26  C   LIG    1       24.204 -20.015   3.419  0.00  0.00    +0.052 C 
BRANCH  26  27
ATOM     27  C   LIG    1       22.680 -19.746   3.677  0.00  0.00    +0.113 C 
ATOM     28 CL   LIG    1       22.175 -18.382   4.724  0.00  0.00    -0.125 Cl
ENDBRANCH  26  27
ENDBRANCH   2  26
TORSDOF 9
ENDMDL
MODEL 3
REMARK VINA RESULT:      -7.4      7.510     11.725
REMARK  Name = *****
REMARK                            x       y       z     vdW  Elec       q    Type
REMARK                         _______ _______ _______ _____ _____    ______ ____
ROOT
ATOM      1  C   LIG    1       24.605 -30.496   8.352  0.00  0.00    -0.007 C 
ATOM      2  C   LIG    1       25.080 -31.750   7.895  0.00  0.00    -0.031 C 
ENDROOT
BRANCH   1   6
ATOM      3  C   LIG    1       25.660 -26.862   6.096  0.00  0.00    +0.121 A 
ATOM      4  C   LIG    1       24.687 -27.727   5.616  0.00  0.00    +0.046 A 
ATOM      5  C   LIG    1       24.211 -28.785   6.428  0.00  0.00    +0.012 A 
ATOM      6  C   LIG    1       24.905 -29.201   7.573  0.00  0.00    -0.017 A 
ATOM      7  C   LIG    1       25.897 -28.302   8.015  0.00  0.00    +0.012 A 
ATOM      8  C   LIG    1       26.179 -27.109   7.351  0.00  0.00    +0.046 A 
BRANCH   3   9
ATOM      9  O   LIG    1       26.037 -25.803   5.312  0.00  0.00    -0.490 OA
BRANCH   9  10
ATOM     10  C   LIG    1       24.997 -24.862   5.001  0.00  0.00    +0.257 C 
BRANCH  10  11
ATOM     11  C   LIG    1       24.449 -24.125   6.233  0.00  0.00    +0.197 C 
BRANCH  11  12
ATOM     12  O   LIG    1       23.081 -24.462   6.449  0.00  0.00    -0.392 OA
ATOM     13  H   LIG    1       22.913 -24.419   7.407  0.00  0.00    +0.209 HD
ENDBRANCH  11  12
ENDBRANCH  10  11
ENDBRANCH   9  10
ENDBRANCH   3   9
ENDBRANCH   1   6
BRANCH   1  14
ATOM     14  C   LIG    1       23.823 -30.272   9.719  0.00  0.00    -0.017 A 
ATOM     15  C   LIG    1       24.306 -29.710  10.882  0.00  0.00    +0.008 A 
ATOM     16  C   LIG    1       23.568 -29.411  12.035  0.00  0.00    +0.001 A 
ATOM     17  C   LIG    1       22.221 -29.788  12.084  0.00  0.00    +0.000 A 
ATOM     18  C   LIG    1       21.691 -30.419  11.006  0.00  0.00    +0.001 A 
ATOM     19  C   LIG    1       22.460 -30.690   9.857  0.00  0.00    +0.008 A 
ENDBRANCH   1  14
BRANCH   2  20
ATOM     20  C   LIG    1       25.859 -32.106   6.590  0.00  0.00    -0.021 A 
ATOM     21  C   LIG    1       25.463 -31.900   5.267  0.00  0.00    +0.008 A 
ATOM     22  C   LIG    1       26.071 -32.524   4.160  0.00  0.00    +0.001 A 
ATOM     23  C   LIG    1       27.204 -33.274   4.311  0.00  0.00    +0.000 A 
ATOM     24  C   LIG    1       27.777 -33.326   5.570  0.00  0.00    +0.001 A 
ATOM     25  C   LIG    1       27.130 -32.684   6.633  0.00  0.00    +0.008 A 
ENDBRANCH   2  20
BRANCH   2  26
ATOM     26  C   LIG    1       24.973 -33.088   8.720  0.00  0.00    +0.052 C 
BRANCH  26  27
ATOM     27  C   LIG    1       25.714 -33.349  10.078  0.00  0.00    +0.113 C 
ATOM     28 CL   LIG    1       24.823 -33.205  11.627  0.00  0.00    -0.125 Cl
ENDBRANCH  26  27
ENDBRANCH   2  26
TORSDOF 9
ENDMDL
MODEL 4
REMARK VINA RESULT:      -7.3      6.943     10.946
REMARK  Name = *****
REMARK                            x       y       z     vdW  Elec       q    Type
REMARK                         _______ _______ _______ _____ _____    ______ ____
ROOT
ATOM      1  C   LIG    1       25.241 -29.972   7.429  0.00  0.00    -0.007 C 
ATOM      2  C   LIG    1       25.392 -30.259   8.809  0.00  0.00    -0.031 C 
ENDROOT
BRANCH   1   6
ATOM      3  C   LIG    1       24.944 -25.796   6.057  0.00  0.00    +0.121 A 
ATOM      4  C   LIG    1       25.912 -26.164   6.980  0.00  0.00    +0.046 A 
ATOM      5  C   LIG    1       26.135 -27.530   7.273  0.00  0.00    +0.012 A 
ATOM      6  C   LIG    1       25.204 -28.518   6.921  0.00  0.00    -0.017 A 
ATOM      7  C   LIG    1       24.227 -28.097   5.995  0.00  0.00    +0.012 A 
ATOM      8  C   LIG    1       24.178 -26.798   5.494  0.00  0.00    +0.046 A 
BRANCH   3   9
ATOM      9  O   LIG    1       24.813 -24.469   5.739  0.00  0.00    -0.490 OA
BRANCH   9  10
ATOM     10  C   LIG    1       24.633 -23.582   6.854  0.00  0.00    +0.257 C 
BRANCH  10  11
ATOM     11  C   LIG    1       23.263 -22.888   6.870  0.00  0.00    +0.197 C 
BRANCH  11  12
ATOM     12  O   LIG    1       22.220 -23.837   6.663  0.00  0.00    -0.392 OA
ATOM     13  H   LIG    1       21.580 -23.444   6.043  0.00  0.00    +0.209 HD
ENDBRANCH  11  12
ENDBRANCH  10  11
ENDBRANCH   9  10
ENDBRANCH   3   9
ENDBRANCH   1   6
BRANCH   1  14
ATOM     14  C   LIG    1       25.001 -31.067   6.301  0.00  0.00    -0.017 A 
ATOM     15  C   LIG    1       25.822 -31.370   5.235  0.00  0.00    +0.008 A 
ATOM     16  C   LIG    1       25.653 -32.418   4.321  0.00  0.00    +0.001 A 
ATOM     17  C   LIG    1       24.499 -33.204   4.410  0.00  0.00    +0.000 A 
ATOM     18  C   LIG    1       23.600 -32.917   5.385  0.00  0.00    +0.001 A 
ATOM     19  C   LIG    1       23.811 -31.863   6.297  0.00  0.00    +0.008 A 
ENDBRANCH   1  14
BRANCH   2  20
ATOM     20  C   LIG    1       25.624 -29.290  10.010  0.00  0.00    -0.021 A 
ATOM     21  C   LIG    1       26.698 -28.424  10.223  0.00  0.00    +0.008 A 
ATOM     22  C   LIG    1       26.988 -27.823  11.463  0.00  0.00    +0.001 A 
ATOM     23  C   LIG    1       26.128 -27.943  12.519  0.00  0.00    +0.000 A 
ATOM     24  C   LIG    1       24.930 -28.601  12.300  0.00  0.00    +0.001 A 
ATOM     25  C   LIG    1       24.695 -29.176  11.046  0.00  0.00    +0.008 A 
ENDBRANCH   2  20
BRANCH   2  26
ATOM     26  C   LIG    1       25.259 -31.702   9.429  0.00  0.00    +0.052 C 
BRANCH  26  27
ATOM     27  C   LIG    1       26.401 -32.778   9.414  0.00  0.00    +0.113 C 
ATOM     28 CL   LIG    1       27.452 -32.948   7.971  0.00  0.00    -0.125 Cl
ENDBRANCH  26  27
ENDBRANCH   2  26
TORSDOF 9
ENDMDL
MODEL 5
REMARK VINA RESULT:      -7.2      7.269     11.515
REMARK  Name = *****
REMARK                            x       y       z     vdW  Elec       q    Type
REMARK                         _______ _______ _______ _____ _____    ______ ____
ROOT
ATOM      1  C   LIG    1       25.340 -30.650   7.621  0.00  0.00    -0.007 C 
ATOM      2  C   LIG    1       24.869 -31.071   8.889  0.00  0.00    -0.031 C 
ENDROOT
BRANCH   1   6
ATOM      3  C   LIG    1       25.199 -26.456   6.280  0.00  0.00    +0.121 A 
ATOM      4  C   LIG    1       24.309 -27.387   5.764  0.00  0.00    +0.046 A 
ATOM      5  C   LIG    1       24.224 -28.681   6.331  0.00  0.00    +0.012 A 
ATOM      6  C   LIG    1       25.223 -29.178   7.180  0.00  0.00    -0.017 A 
ATOM      7  C   LIG    1       26.116 -28.202   7.666  0.00  0.00    +0.012 A 
ATOM      8  C   LIG    1       26.026 -26.858   7.310  0.00  0.00    +0.046 A 
BRANCH   3   9
ATOM      9  O   LIG    1       25.196 -25.189   5.757  0.00  0.00    -0.490 OA
BRANCH   9  10
ATOM     10  C   LIG    1       25.088 -24.124   6.716  0.00  0.00    +0.257 C 
BRANCH  10  11
ATOM     11  C   LIG    1       23.801 -23.299   6.573  0.00  0.00    +0.197 C 
BRANCH  11  12
ATOM     12  O   LIG    1       22.655 -24.143   6.653  0.00  0.00    -0.392 OA
ATOM     13  H   LIG    1       22.099 -23.961   5.875  0.00  0.00    +0.209 HD
ENDBRANCH  11  12
ENDBRANCH  10  11
ENDBRANCH   9  10
ENDBRANCH   3   9
ENDBRANCH   1   6
BRANCH   1  14
ATOM     14  C   LIG    1       25.930 -31.622   6.509  0.00  0.00    -0.017 A 
ATOM     15  C   LIG    1       25.464 -31.813   5.225  0.00  0.00    +0.008 A 
ATOM     16  C   LIG    1       26.068 -32.582   4.222  0.00  0.00    +0.001 A 
ATOM     17  C   LIG    1       27.213 -33.319   4.543  0.00  0.00    +0.000 A 
ATOM     18  C   LIG    1       27.689 -33.247   5.811  0.00  0.00    +0.001 A 
ATOM     19  C   LIG    1       27.064 -32.450   6.790  0.00  0.00    +0.008 A 
ENDBRANCH   1  14
BRANCH   2  20
ATOM     20  C   LIG    1       24.266 -30.232  10.059  0.00  0.00    -0.021 A 
ATOM     21  C   LIG    1       24.939 -29.417  10.970  0.00  0.00    +0.008 A 
ATOM     22  C   LIG    1       24.373 -28.949  12.172  0.00  0.00    +0.001 A 
ATOM     23  C   LIG    1       23.050 -29.154  12.451  0.00  0.00    +0.000 A 
ATOM     24  C   LIG    1       22.274 -29.758  11.477  0.00  0.00    +0.001 A 
ATOM     25  C   LIG    1       22.891 -30.200  10.301  0.00  0.00    +0.008 A 
ENDBRANCH   2  20
BRANCH   2  26
ATOM     26  C   LIG    1       24.786 -32.579   9.342  0.00  0.00    +0.052 C 
BRANCH  26  27
ATOM     27  C   LIG    1       23.687 -33.587   8.857  0.00  0.00    +0.113 C 
ATOM     28 CL   LIG    1       22.854 -33.319   7.292  0.00  0.00    -0.125 Cl
ENDBRANCH  26  27
ENDBRANCH   2  26
TORSDOF 9
ENDMDL
MODEL 6
REMARK VINA RESULT:      -7.1      6.868     10.908
REMARK  Name = *****
REMARK                            x       y       z     vdW  Elec       q    Type
REMARK                         _______ _______ _______ _____ _____    ______ ____
ROOT
ATOM      1  C   LIG    1       25.349 -30.066   7.466  0.00  0.00    -0.007 C 
ATOM      2  C   LIG    1       25.568 -30.362   8.834  0.00  0.00    -0.031 C 
ENDROOT
BRANCH   1   6
ATOM      3  C   LIG    1       25.102 -25.920   5.998  0.00  0.00    +0.121 A 
ATOM      4  C   LIG    1       24.205 -26.877   5.547  0.00  0.00    +0.046 A 
ATOM      5  C   LIG    1       24.159 -28.153   6.158  0.00  0.00    +0.012 A 
ATOM      6  C   LIG    1       25.196 -28.611   6.983  0.00  0.00    -0.017 A 
ATOM      7  C   LIG    1       26.096 -27.609   7.402  0.00  0.00    +0.012 A 
ATOM      8  C   LIG    1       25.974 -26.278   7.007  0.00  0.00    +0.046 A 
BRANCH   3   9
ATOM      9  O   LIG    1       25.063 -24.671   5.435  0.00  0.00    -0.490 OA
BRANCH   9  10
ATOM     10  C   LIG    1       24.947 -23.579   6.362  0.00  0.00    +0.257 C 
BRANCH  10  11
ATOM     11  C   LIG    1       23.549 -22.942   6.386  0.00  0.00    +0.197 C 
BRANCH  11  12
ATOM     12  O   LIG    1       22.558 -23.923   6.678  0.00  0.00    -0.392 OA
ATOM     13  H   LIG    1       22.021 -23.591   7.419  0.00  0.00    +0.209 HD
ENDBRANCH  11  12
ENDBRANCH  10  11
ENDBRANCH   9  10
ENDBRANCH   3   9
ENDBRANCH   1   6
BRANCH   1  14
ATOM     14  C   LIG    1       25.145 -31.159   6.328  0.00  0.00    -0.017 A 
ATOM     15  C   LIG    1       26.032 -31.514   5.334  0.00  0.00    +0.008 A 
ATOM     16  C   LIG    1       25.883 -32.561   4.415  0.00  0.00    +0.001 A 
ATOM     17  C   LIG    1       24.687 -33.286   4.416  0.00  0.00    +0.000 A 
ATOM     18  C   LIG    1       23.728 -32.944   5.314  0.00  0.00    +0.001 A 
ATOM     19  C   LIG    1       23.920 -31.894   6.234  0.00  0.00    +0.008 A 
ENDBRANCH   1  14
BRANCH   2  20
ATOM     20  C   LIG    1       25.776 -29.396  10.043  0.00  0.00    -0.021 A 
ATOM     21  C   LIG    1       26.891 -28.608  10.334  0.00  0.00    +0.008 A 
ATOM     22  C   LIG    1       27.125 -28.013  11.588  0.00  0.00    +0.001 A 
ATOM     23  C   LIG    1       26.178 -28.056  12.574  0.00  0.00    +0.000 A 
ATOM     24  C   LIG    1       24.956 -28.627  12.266  0.00  0.00    +0.001 A 
ATOM     25  C   LIG    1       24.779 -29.201  11.001  0.00  0.00    +0.008 A 
ENDBRANCH   2  20
BRANCH   2  26
ATOM     26  C   LIG    1       25.555 -31.819   9.435  0.00  0.00    +0.052 C 
BRANCH  26  27
ATOM     27  C   LIG    1       24.254 -32.591   9.850  0.00  0.00    +0.113 C 
ATOM     28 CL   LIG    1       22.647 -31.835   9.602  0.00  0.00    -0.125 Cl
ENDBRANCH  26  27
ENDBRANCH   2  26
TORSDOF 9
ENDMDL
MODEL 7
REMARK VINA RESULT:      -6.5     10.991     13.538
REMARK  Name = *****
REMARK                            x       y       z     vdW  Elec       q    Type
REMARK                         _______ _______ _______ _____ _____    ______ ____
ROOT
ATOM      1  C   LIG    1       23.955 -28.342  12.791  0.00  0.00    -0.007 C 
ATOM      2  C   LIG    1       23.487 -27.269  13.589  0.00  0.00    -0.031 C 
ENDROOT
BRANCH   1   6
ATOM      3  C   LIG    1       21.003 -31.081  11.006  0.00  0.00    +0.121 A 
ATOM      4  C   LIG    1       22.129 -30.702  10.291  0.00  0.00    +0.046 A 
ATOM      5  C   LIG    1       23.169 -29.984  10.927  0.00  0.00    +0.012 A 
ATOM      6  C   LIG    1       22.975 -29.352  12.164  0.00  0.00    -0.017 A 
ATOM      7  C   LIG    1       21.809 -29.752  12.848  0.00  0.00    +0.012 A 
ATOM      8  C   LIG    1       20.912 -30.681  12.324  0.00  0.00    +0.046 A 
BRANCH   3   9
ATOM      9  O   LIG    1       20.054 -31.845  10.376  0.00  0.00    -0.490 OA
BRANCH   9  10
ATOM     10  C   LIG    1       18.691 -31.525  10.697  0.00  0.00    +0.257 C 
BRANCH  10  11
ATOM     11  C   LIG    1       17.753 -31.553   9.481  0.00  0.00    +0.197 C 
BRANCH  11  12
ATOM     12  O   LIG    1       17.385 -30.229   9.103  0.00  0.00    -0.392 OA
ATOM     13  H   LIG    1       18.203 -29.739   8.905  0.00  0.00    +0.209 HD
ENDBRANCH  11  12
ENDBRANCH  10  11
ENDBRANCH   9  10
ENDBRANCH   3   9
ENDBRANCH   1   6
BRANCH   1  14
ATOM     14  C   LIG    1       25.490 -28.676  12.539  0.00  0.00    -0.017 A 
ATOM     15  C   LIG    1       26.369 -29.295  13.403  0.00  0.00    +0.008 A 
ATOM     16  C   LIG    1       27.683 -29.688  13.118  0.00  0.00    +0.001 A 
ATOM     17  C   LIG    1       28.225 -29.357  11.871  0.00  0.00    +0.000 A 
ATOM     18  C   LIG    1       27.448 -28.675  10.993  0.00  0.00    +0.001 A 
ATOM     19  C   LIG    1       26.124 -28.309  11.308  0.00  0.00    +0.008 A 
ENDBRANCH   1  14
BRANCH   2  20
ATOM     20  C   LIG    1       22.024 -26.837  13.921  0.00  0.00    -0.021 A 
ATOM     21  C   LIG    1       21.416 -26.748  15.174  0.00  0.00    +0.008 A 
ATOM     22  C   LIG    1       20.024 -26.656  15.367  0.00  0.00    +0.001 A 
ATOM     23  C   LIG    1       19.177 -26.500  14.304  0.00  0.00    +0.000 A 
ATOM     24  C   LIG    1       19.742 -26.350  13.049  0.00  0.00    +0.001 A 
ATOM     25  C   LIG    1       21.133 -26.448  12.919  0.00  0.00    +0.008 A 
ENDBRANCH   2  20
BRANCH   2  26
ATOM     26  C   LIG    1       24.426 -26.305  14.410  0.00  0.00    +0.052 C 
BRANCH  26  27
ATOM     27  C   LIG    1       25.287 -25.159  13.774  0.00  0.00    +0.113 C 
ATOM     28 CL   LIG    1       26.998 -25.464  13.332  0.00  0.00    -0.125 Cl
ENDBRANCH  26  27
ENDBRANCH   2  26
TORSDOF 9
ENDMDL
MODEL 8
REMARK VINA RESULT:      -6.4      1.089      5.126
REMARK  Name = *****
REMARK                            x       y       z     vdW  Elec       q    Type
REMARK                         _______ _______ _______ _____ _____    ______ ____
ROOT
ATOM      1  C   LIG    1       25.906 -20.042   5.090  0.00  0.00    -0.007 C 
ATOM      2  C   LIG    1       24.811 -20.924   4.914  0.00  0.00    -0.031 C 
ENDROOT
BRANCH   1   6
ATOM      3  C   LIG    1       28.995 -21.112   8.043  0.00  0.00    +0.121 A 
ATOM      4  C   LIG    1       29.334 -20.923   6.711  0.00  0.00    +0.046 A 
ATOM      5  C   LIG    1       28.386 -20.393   5.803  0.00  0.00    +0.012 A 
ATOM      6  C   LIG    1       27.019 -20.352   6.110  0.00  0.00    -0.017 A 
ATOM      7  C   LIG    1       26.717 -20.567   7.470  0.00  0.00    +0.012 A 
ATOM      8  C   LIG    1       27.699 -20.824   8.425  0.00  0.00    +0.046 A 
BRANCH   3   9
ATOM      9  O   LIG    1       29.962 -21.551   8.909  0.00  0.00    -0.490 OA
BRANCH   9  10
ATOM     10  C   LIG    1       31.228 -20.877   8.816  0.00  0.00    +0.257 C 
BRANCH  10  11
ATOM     11  C   LIG    1       31.134 -19.362   9.053  0.00  0.00    +0.197 C 
BRANCH  11  12
ATOM     12  O   LIG    1       30.878 -19.087  10.427  0.00  0.00    -0.392 OA
ATOM     13  H   LIG    1       31.334 -19.765  10.956  0.00  0.00    +0.209 HD
ENDBRANCH  11  12
ENDBRANCH  10  11
ENDBRANCH   9  10
ENDBRANCH   3   9
ENDBRANCH   1   6
BRANCH   1  14
ATOM     14  C   LIG    1       26.059 -18.637   4.359  0.00  0.00    -0.017 A 
ATOM     15  C   LIG    1       25.090 -17.934   3.675  0.00  0.00    +0.008 A 
ATOM     16  C   LIG    1       25.213 -16.645   3.142  0.00  0.00    +0.001 A 
ATOM     17  C   LIG    1       26.456 -16.007   3.211  0.00  0.00    +0.000 A 
ATOM     18  C   LIG    1       27.485 -16.668   3.800  0.00  0.00    +0.001 A 
ATOM     19  C   LIG    1       27.321 -17.959   4.339  0.00  0.00    +0.008 A 
ENDBRANCH   1  14
BRANCH   2  20
ATOM     20  C   LIG    1       24.535 -22.314   5.567  0.00  0.00    -0.021 A 
ATOM     21  C   LIG    1       25.265 -23.495   5.420  0.00  0.00    +0.008 A 
ATOM     22  C   LIG    1       24.783 -24.766   5.784  0.00  0.00    +0.001 A 
ATOM     23  C   LIG    1       23.598 -24.903   6.452  0.00  0.00    +0.000 A 
ATOM     24  C   LIG    1       22.937 -23.747   6.831  0.00  0.00    +0.001 A 
ATOM     25  C   LIG    1       23.465 -22.510   6.443  0.00  0.00    +0.008 A 
ENDBRANCH   2  20
BRANCH   2  26
ATOM     26  C   LIG    1       23.547 -20.596   4.031  0.00  0.00    +0.052 C 
BRANCH  26  27
ATOM     27  C   LIG    1       22.210 -19.996   4.591  0.00  0.00    +0.113 C 
ATOM     28 CL   LIG    1       21.812 -18.272   4.302  0.00  0.00    -0.125 Cl
ENDBRANCH  26  27
ENDBRANCH   2  26
TORSDOF 9
ENDMDL
MODEL 9
REMARK VINA RESULT:      -6.2     10.801     14.009
REMARK  Name = *****
REMARK                            x       y       z     vdW  Elec       q    Type
REMARK                         _______ _______ _______ _____ _____    ______ ____
ROOT
ATOM      1  C   LIG    1       22.960 -28.527  12.727  0.00  0.00    -0.007 C 
ATOM      2  C   LIG    1       22.931 -29.666  11.885  0.00  0.00    -0.031 C 
ENDROOT
BRANCH   1   6
ATOM      3  C   LIG    1       19.216 -27.222  14.646  0.00  0.00    +0.121 A 
ATOM      4  C   LIG    1       20.014 -28.184  15.249  0.00  0.00    +0.046 A 
ATOM      5  C   LIG    1       21.303 -28.462  14.737  0.00  0.00    +0.012 A 
ATOM      6  C   LIG    1       21.690 -28.045  13.455  0.00  0.00    -0.017 A 
ATOM      7  C   LIG    1       20.842 -27.081  12.872  0.00  0.00    +0.012 A 
ATOM      8  C   LIG    1       19.699 -26.603  13.511  0.00  0.00    +0.046 A 
BRANCH   3   9
ATOM      9  O   LIG    1       18.006 -26.923  15.218  0.00  0.00    -0.490 OA
BRANCH   9  10
ATOM     10  C   LIG    1       17.027 -26.358  14.333  0.00  0.00    +0.257 C 
BRANCH  10  11
ATOM     11  C   LIG    1       15.775 -27.233  14.164  0.00  0.00    +0.197 C 
BRANCH  11  12
ATOM     12  O   LIG    1       16.122 -28.499  13.612  0.00  0.00    -0.392 OA
ATOM     13  H   LIG    1       16.915 -28.376  13.060  0.00  0.00    +0.209 HD
ENDBRANCH  11  12
ENDBRANCH  10  11
ENDBRANCH   9  10
ENDBRANCH   3   9
ENDBRANCH   1   6
BRANCH   1  14
ATOM     14  C   LIG    1       24.230 -27.591  12.937  0.00  0.00    -0.017 A 
ATOM     15  C   LIG    1       25.538 -27.858  12.590  0.00  0.00    +0.008 A 
ATOM     16  C   LIG    1       26.621 -26.974  12.673  0.00  0.00    +0.001 A 
ATOM     17  C   LIG    1       26.414 -25.713  13.244  0.00  0.00    +0.000 A 
ATOM     18  C   LIG    1       25.168 -25.404  13.684  0.00  0.00    +0.001 A 
ATOM     19  C   LIG    1       24.098 -26.314  13.571  0.00  0.00    +0.008 A 
ENDBRANCH   1  14
BRANCH   2  20
ATOM     20  C   LIG    1       21.763 -30.657  11.587  0.00  0.00    -0.021 A 
ATOM     21  C   LIG    1       20.693 -30.487  10.707  0.00  0.00    +0.008 A 
ATOM     22  C   LIG    1       19.528 -31.278  10.726  0.00  0.00    +0.001 A 
ATOM     23  C   LIG    1       19.439 -32.378  11.534  0.00  0.00    +0.000 A 
ATOM     24  C   LIG    1       20.561 -32.731  12.263  0.00  0.00    +0.001 A 
ATOM     25  C   LIG    1       21.692 -31.908  12.203  0.00  0.00    +0.008 A 
ENDBRANCH   2  20
BRANCH   2  26
ATOM     26  C   LIG    1       24.132 -30.116  10.969  0.00  0.00    +0.052 C 
BRANCH  26  27
ATOM     27  C   LIG    1       24.065 -30.202   9.404  0.00  0.00    +0.113 C 
ATOM     28 CL   LIG    1       25.281 -29.341   8.407  0.00  0.00    -0.125 Cl
ENDBRANCH  26  27
ENDBRANCH   2  26
TORSDOF 9
ENDMDL
