MODEL 1
REMARK VINA RESULT:      -4.9      0.000      0.000
REMARK  Name = *****
REMARK                            x       y       z     vdW  Elec       q    Type
REMARK                         _______ _______ _______ _____ _____    ______ ____
ROOT
ATOM      1  C   LIG    1       22.146 -20.546   5.161  0.00  0.00    +0.024 C 
ATOM      2  C   LIG    1       23.143 -19.421   4.827  0.00  0.00    +0.058 C 
ENDROOT
BRANCH   2   3
ATOM      3  N   LIG    1       22.554 -18.317   4.002  0.00  0.00    -0.298 NA
ATOM      4  C   LIG    1       21.200 -18.617   3.525  0.00  0.00    +0.105 C 
BRANCH   3   5
ATOM      5  C   LIG    1       22.601 -17.020   4.717  0.00  0.00    +0.119 C 
BRANCH   5   6
ATOM      6  C   LIG    1       23.667 -16.051   4.237  0.00  0.00    -0.033 A 
ATOM      7  C   LIG    1       23.471 -14.665   4.313  0.00  0.00    +0.005 A 
ATOM      8  C   LIG    1       24.473 -13.786   3.891  0.00  0.00    +0.000 A 
ATOM      9  C   LIG    1       25.672 -14.280   3.382  0.00  0.00    +0.000 A 
ATOM     10  C   LIG    1       25.876 -15.656   3.290  0.00  0.00    +0.000 A 
ATOM     11  C   LIG    1       24.877 -16.536   3.713  0.00  0.00    +0.005 A 
ENDBRANCH   5   6
ENDBRANCH   3   5
ENDBRANCH   2   3
BRANCH   2  12
ATOM     12  C   LIG    1       24.421 -20.010   4.156  0.00  0.00    +0.053 C 
BRANCH  12  13
ATOM     13  C   LIG    1       25.616 -20.248   5.059  0.00  0.00    -0.046 A 
ATOM     14  C   LIG    1       25.519 -21.064   6.191  0.00  0.00    +0.003 A 
ATOM     15  C   LIG    1       26.603 -21.207   7.061  0.00  0.00    +0.000 A 
ATOM     16  C   LIG    1       27.801 -20.536   6.805  0.00  0.00    +0.000 A 
ATOM     17  C   LIG    1       27.916 -19.735   5.675  0.00  0.00    +0.000 A 
ATOM     18  C   LIG    1       26.833 -19.591   4.805  0.00  0.00    +0.003 A 
ENDBRANCH  12  13
ENDBRANCH   2  12
TORSDOF 5
ENDMDL
MODEL 2
REMARK VINA RESULT:      -4.8      1.175      2.184
REMARK  Name = *****
REMARK                            x       y       z     vdW  Elec       q    Type
REMARK                         _______ _______ _______ _____ _____    ______ ____
ROOT
ATOM      1  C   LIG    1       22.771 -20.377   5.270  0.00  0.00    +0.024 C 
ATOM      2  C   LIG    1       24.226 -19.875   5.221  0.00  0.00    +0.058 C 
ENDROOT
BRANCH   2   3
ATOM      3  N   LIG    1       24.579 -19.167   3.948  0.00  0.00    -0.298 NA
ATOM      4  C   LIG    1       24.500 -20.034   2.768  0.00  0.00    +0.105 C 
BRANCH   3   5
ATOM      5  C   LIG    1       23.773 -17.936   3.771  0.00  0.00    +0.119 C 
BRANCH   5   6
ATOM      6  C   LIG    1       24.561 -16.638   3.766  0.00  0.00    -0.033 A 
ATOM      7  C   LIG    1       25.908 -16.612   3.379  0.00  0.00    +0.005 A 
ATOM      8  C   LIG    1       26.613 -15.404   3.355  0.00  0.00    +0.000 A 
ATOM      9  C   LIG    1       25.985 -14.217   3.725  0.00  0.00    +0.000 A 
ATOM     10  C   LIG    1       24.648 -14.230   4.122  0.00  0.00    +0.000 A 
ATOM     11  C   LIG    1       23.943 -15.435   4.146  0.00  0.00    +0.005 A 
ENDBRANCH   5   6
ENDBRANCH   3   5
ENDBRANCH   2   3
BRANCH   2  12
ATOM     12  C   LIG    1       25.213 -21.047   5.510  0.00  0.00    +0.053 C 
BRANCH  12  13
ATOM     13  C   LIG    1       26.634 -20.664   5.883  0.00  0.00    -0.046 A 
ATOM     14  C   LIG    1       27.261 -19.555   5.305  0.00  0.00    +0.003 A 
ATOM     15  C   LIG    1       28.597 -19.263   5.594  0.00  0.00    +0.000 A 
ATOM     16  C   LIG    1       29.320 -20.077   6.468  0.00  0.00    +0.000 A 
ATOM     17  C   LIG    1       28.703 -21.173   7.062  0.00  0.00    +0.000 A 
ATOM     18  C   LIG    1       27.368 -21.466   6.774  0.00  0.00    +0.003 A 
ENDBRANCH  12  13
ENDBRANCH   2  12
TORSDOF 5
ENDMDL
MODEL 3
REMARK VINA RESULT:      -4.6      2.184      4.013
REMARK  Name = *****
REMARK                            x       y       z     vdW  Elec       q    Type
REMARK                         _______ _______ _______ _____ _____    ______ ____
ROOT
ATOM      1  C   LIG    1       22.281 -15.122   5.758  0.00  0.00    +0.024 C 
ATOM      2  C   LIG    1       23.228 -15.853   4.788  0.00  0.00    +0.058 C 
ENDROOT
BRANCH   2   3
ATOM      3  N   LIG    1       23.890 -14.949   3.793  0.00  0.00    -0.298 NA
ATOM      4  C   LIG    1       23.863 -13.538   4.193  0.00  0.00    +0.105 C 
BRANCH   3   5
ATOM      5  C   LIG    1       25.268 -15.398   3.484  0.00  0.00    +0.119 C 
BRANCH   5   6
ATOM      6  C   LIG    1       26.370 -14.428   3.874  0.00  0.00    -0.033 A 
ATOM      7  C   LIG    1       26.502 -13.976   5.194  0.00  0.00    +0.005 A 
ATOM      8  C   LIG    1       27.538 -13.105   5.543  0.00  0.00    +0.000 A 
ATOM      9  C   LIG    1       28.445 -12.670   4.578  0.00  0.00    +0.000 A 
ATOM     10  C   LIG    1       28.319 -13.104   3.259  0.00  0.00    +0.000 A 
ATOM     11  C   LIG    1       27.286 -13.975   2.910  0.00  0.00    +0.005 A 
ENDBRANCH   5   6
ENDBRANCH   3   5
ENDBRANCH   2   3
BRANCH   2  12
ATOM     12  C   LIG    1       22.481 -17.024   4.081  0.00  0.00    +0.053 C 
BRANCH  12  13
ATOM     13  C   LIG    1       23.035 -18.419   4.306  0.00  0.00    -0.046 A 
ATOM     14  C   LIG    1       24.158 -18.875   3.606  0.00  0.00    +0.003 A 
ATOM     15  C   LIG    1       24.607 -20.189   3.760  0.00  0.00    +0.000 A 
ATOM     16  C   LIG    1       23.938 -21.063   4.619  0.00  0.00    +0.000 A 
ATOM     17  C   LIG    1       22.830 -20.618   5.333  0.00  0.00    +0.000 A 
ATOM     18  C   LIG    1       22.381 -19.304   5.180  0.00  0.00    +0.003 A 
ENDBRANCH  12  13
ENDBRANCH   2  12
TORSDOF 5
ENDMDL
MODEL 4
REMARK VINA RESULT:      -4.6      2.104      3.846
REMARK  Name = *****
REMARK                            x       y       z     vdW  Elec       q    Type
REMARK                         _______ _______ _______ _____ _____    ______ ____
ROOT
ATOM      1  C   LIG    1       22.309 -15.107   5.744  0.00  0.00    +0.024 C 
ATOM      2  C   LIG    1       23.240 -15.859   4.773  0.00  0.00    +0.058 C 
ENDROOT
BRANCH   2   3
ATOM      3  N   LIG    1       23.919 -14.969   3.777  0.00  0.00    -0.298 NA
ATOM      4  C   LIG    1       23.880 -13.551   4.152  0.00  0.00    +0.105 C 
BRANCH   3   5
ATOM      5  C   LIG    1       25.304 -15.418   3.504  0.00  0.00    +0.119 C 
BRANCH   5   6
ATOM      6  C   LIG    1       26.395 -14.434   3.887  0.00  0.00    -0.033 A 
ATOM      7  C   LIG    1       26.514 -13.962   5.202  0.00  0.00    +0.005 A 
ATOM      8  C   LIG    1       27.540 -13.077   5.545  0.00  0.00    +0.000 A 
ATOM      9  C   LIG    1       28.449 -12.647   4.580  0.00  0.00    +0.000 A 
ATOM     10  C   LIG    1       28.336 -13.099   3.267  0.00  0.00    +0.000 A 
ATOM     11  C   LIG    1       27.312 -13.985   2.922  0.00  0.00    +0.005 A 
ENDBRANCH   5   6
ENDBRANCH   3   5
ENDBRANCH   2   3
BRANCH   2  12
ATOM     12  C   LIG    1       22.466 -17.013   4.067  0.00  0.00    +0.053 C 
BRANCH  12  13
ATOM     13  C   LIG    1       22.989 -18.420   4.291  0.00  0.00    -0.046 A 
ATOM     14  C   LIG    1       22.391 -19.276   5.222  0.00  0.00    +0.003 A 
ATOM     15  C   LIG    1       22.934 -20.537   5.480  0.00  0.00    +0.000 A 
ATOM     16  C   LIG    1       24.082 -20.959   4.806  0.00  0.00    +0.000 A 
ATOM     17  C   LIG    1       24.677 -20.124   3.866  0.00  0.00    +0.000 A 
ATOM     18  C   LIG    1       24.135 -18.863   3.608  0.00  0.00    +0.003 A 
ENDBRANCH  12  13
ENDBRANCH   2  12
TORSDOF 5
ENDMDL
MODEL 5
REMARK VINA RESULT:      -4.5      1.261      2.238
REMARK  Name = *****
REMARK                            x       y       z     vdW  Elec       q    Type
REMARK                         _______ _______ _______ _____ _____    ______ ____
ROOT
ATOM      1  C   LIG    1       20.933 -18.211   3.655  0.00  0.00    +0.024 C 
ATOM      2  C   LIG    1       22.245 -17.948   4.418  0.00  0.00    +0.058 C 
ENDROOT
BRANCH   2   3
ATOM      3  N   LIG    1       22.728 -16.533   4.320  0.00  0.00    -0.298 NA
ATOM      4  C   LIG    1       22.365 -15.720   5.485  0.00  0.00    +0.105 C 
BRANCH   3   5
ATOM      5  C   LIG    1       24.184 -16.474   4.052  0.00  0.00    +0.119 C 
BRANCH   5   6
ATOM      6  C   LIG    1       24.705 -15.126   3.583  0.00  0.00    -0.033 A 
ATOM      7  C   LIG    1       23.855 -14.016   3.488  0.00  0.00    +0.005 A 
ATOM      8  C   LIG    1       24.355 -12.776   3.080  0.00  0.00    +0.000 A 
ATOM      9  C   LIG    1       25.703 -12.634   2.756  0.00  0.00    +0.000 A 
ATOM     10  C   LIG    1       26.557 -13.732   2.837  0.00  0.00    +0.000 A 
ATOM     11  C   LIG    1       26.060 -14.972   3.245  0.00  0.00    +0.005 A 
ENDBRANCH   5   6
ENDBRANCH   3   5
ENDBRANCH   2   3
BRANCH   2  12
ATOM     12  C   LIG    1       23.346 -18.956   3.966  0.00  0.00    +0.053 C 
BRANCH  12  13
ATOM     13  C   LIG    1       23.866 -19.914   5.021  0.00  0.00    -0.046 A 
ATOM     14  C   LIG    1       23.019 -20.447   5.997  0.00  0.00    +0.003 A 
ATOM     15  C   LIG    1       23.527 -21.261   7.013  0.00  0.00    +0.000 A 
ATOM     16  C   LIG    1       24.891 -21.554   7.062  0.00  0.00    +0.000 A 
ATOM     17  C   LIG    1       25.742 -21.042   6.088  0.00  0.00    +0.000 A 
ATOM     18  C   LIG    1       25.235 -20.229   5.072  0.00  0.00    +0.003 A 
ENDBRANCH  12  13
ENDBRANCH   2  12
TORSDOF 5
ENDMDL
MODEL 6
REMARK VINA RESULT:      -4.5      2.017      5.848
REMARK  Name = *****
REMARK                            x       y       z     vdW  Elec       q    Type
REMARK                         _______ _______ _______ _____ _____    ______ ____
ROOT
ATOM      1  C   LIG    1       23.816 -13.577   4.066  0.00  0.00    +0.024 C 
ATOM      2  C   LIG    1       23.911 -15.078   3.731  0.00  0.00    +0.058 C 
ENDROOT
BRANCH   2   3
ATOM      3  N   LIG    1       23.214 -15.963   4.720  0.00  0.00    -0.298 NA
ATOM      4  C   LIG    1       22.339 -15.223   5.636  0.00  0.00    +0.105 C 
BRANCH   3   5
ATOM      5  C   LIG    1       22.485 -17.062   4.045  0.00  0.00    +0.119 C 
BRANCH   5   6
ATOM      6  C   LIG    1       23.048 -18.453   4.275  0.00  0.00    -0.033 A 
ATOM      7  C   LIG    1       24.199 -18.888   3.602  0.00  0.00    +0.005 A 
ATOM      8  C   LIG    1       24.721 -20.162   3.845  0.00  0.00    +0.000 A 
ATOM      9  C   LIG    1       24.096 -21.016   4.751  0.00  0.00    +0.000 A 
ATOM     10  C   LIG    1       22.944 -20.601   5.418  0.00  0.00    +0.000 A 
ATOM     11  C   LIG    1       22.422 -19.328   5.179  0.00  0.00    +0.005 A 
ENDBRANCH   5   6
ENDBRANCH   3   5
ENDBRANCH   2   3
BRANCH   2  12
ATOM     12  C   LIG    1       25.401 -15.498   3.547  0.00  0.00    +0.053 C 
BRANCH  12  13
ATOM     13  C   LIG    1       26.449 -14.452   3.878  0.00  0.00    -0.046 A 
ATOM     14  C   LIG    1       27.330 -13.974   2.903  0.00  0.00    +0.003 A 
ATOM     15  C   LIG    1       28.345 -13.074   3.239  0.00  0.00    +0.000 A 
ATOM     16  C   LIG    1       28.487 -12.639   4.558  0.00  0.00    +0.000 A 
ATOM     17  C   LIG    1       27.608 -13.094   5.535  0.00  0.00    +0.000 A 
ATOM     18  C   LIG    1       26.594 -13.994   5.199  0.00  0.00    +0.003 A 
ENDBRANCH  12  13
ENDBRANCH   2  12
TORSDOF 5
ENDMDL
MODEL 7
REMARK VINA RESULT:      -4.3      1.739      4.160
REMARK  Name = *****
REMARK                            x       y       z     vdW  Elec       q    Type
REMARK                         _______ _______ _______ _____ _____    ______ ____
ROOT
ATOM      1  C   LIG    1       26.512 -20.066   5.950  0.00  0.00    +0.024 C 
ATOM      2  C   LIG    1       27.019 -19.490   4.614  0.00  0.00    +0.058 C 
ENDROOT
BRANCH   2   3
ATOM      3  N   LIG    1       27.533 -18.086   4.717  0.00  0.00    -0.298 NA
ATOM      4  C   LIG    1       28.959 -18.020   5.053  0.00  0.00    +0.105 C 
BRANCH   3   5
ATOM      5  C   LIG    1       27.228 -17.305   3.496  0.00  0.00    +0.119 C 
BRANCH   5   6
ATOM      6  C   LIG    1       26.720 -15.894   3.736  0.00  0.00    -0.033 A 
ATOM      7  C   LIG    1       27.598 -14.859   4.086  0.00  0.00    +0.005 A 
ATOM      8  C   LIG    1       27.118 -13.560   4.277  0.00  0.00    +0.000 A 
ATOM      9  C   LIG    1       25.760 -13.284   4.132  0.00  0.00    +0.000 A 
ATOM     10  C   LIG    1       24.874 -14.306   3.795  0.00  0.00    +0.000 A 
ATOM     11  C   LIG    1       25.352 -15.604   3.602  0.00  0.00    +0.005 A 
ENDBRANCH   5   6
ENDBRANCH   3   5
ENDBRANCH   2   3
BRANCH   2  12
ATOM     12  C   LIG    1       25.915 -19.610   3.520  0.00  0.00    +0.053 C 
BRANCH  12  13
ATOM     13  C   LIG    1       24.492 -19.807   4.008  0.00  0.00    -0.046 A 
ATOM     14  C   LIG    1       23.572 -18.754   4.007  0.00  0.00    +0.003 A 
ATOM     15  C   LIG    1       22.291 -18.927   4.537  0.00  0.00    +0.000 A 
ATOM     16  C   LIG    1       21.914 -20.160   5.072  0.00  0.00    +0.000 A 
ATOM     17  C   LIG    1       22.813 -21.221   5.064  0.00  0.00    +0.000 A 
ATOM     18  C   LIG    1       24.094 -21.048   4.535  0.00  0.00    +0.003 A 
ENDBRANCH  12  13
ENDBRANCH   2  12
TORSDOF 5
ENDMDL
MODEL 8
REMARK VINA RESULT:      -4.3      1.123      5.791
REMARK  Name = *****
REMARK                            x       y       z     vdW  Elec       q    Type
REMARK                         _______ _______ _______ _____ _____    ______ ____
ROOT
ATOM      1  C   LIG    1       23.517 -15.841   4.398  0.00  0.00    +0.024 C 
ATOM      2  C   LIG    1       24.042 -17.061   3.618  0.00  0.00    +0.058 C 
ENDROOT
BRANCH   2   3
ATOM      3  N   LIG    1       23.737 -18.375   4.273  0.00  0.00    -0.298 NA
ATOM      4  C   LIG    1       22.346 -18.800   4.086  0.00  0.00    +0.105 C 
BRANCH   3   5
ATOM      5  C   LIG    1       24.687 -19.428   3.845  0.00  0.00    +0.119 C 
BRANCH   5   6
ATOM      6  C   LIG    1       25.491 -20.071   4.962  0.00  0.00    -0.033 A 
ATOM      7  C   LIG    1       26.847 -19.766   5.144  0.00  0.00    +0.005 A 
ATOM      8  C   LIG    1       27.567 -20.346   6.193  0.00  0.00    +0.000 A 
ATOM      9  C   LIG    1       26.945 -21.240   7.062  0.00  0.00    +0.000 A 
ATOM     10  C   LIG    1       25.599 -21.560   6.886  0.00  0.00    +0.000 A 
ATOM     11  C   LIG    1       24.878 -20.981   5.839  0.00  0.00    +0.005 A 
ENDBRANCH   5   6
ENDBRANCH   3   5
ENDBRANCH   2   3
BRANCH   2  12
ATOM     12  C   LIG    1       25.568 -16.909   3.338  0.00  0.00    +0.053 C 
BRANCH  12  13
ATOM     13  C   LIG    1       26.124 -15.497   3.345  0.00  0.00    -0.046 A 
ATOM     14  C   LIG    1       25.488 -14.465   2.648  0.00  0.00    +0.003 A 
ATOM     15  C   LIG    1       26.055 -13.188   2.592  0.00  0.00    +0.000 A 
ATOM     16  C   LIG    1       27.265 -12.930   3.239  0.00  0.00    +0.000 A 
ATOM     17  C   LIG    1       27.899 -13.943   3.950  0.00  0.00    +0.000 A 
ATOM     18  C   LIG    1       27.333 -15.219   4.005  0.00  0.00    +0.003 A 
ENDBRANCH  12  13
ENDBRANCH   2  12
TORSDOF 5
ENDMDL
MODEL 9
REMARK VINA RESULT:      -4.1      1.661      5.889
REMARK  Name = *****
REMARK                            x       y       z     vdW  Elec       q    Type
REMARK                         _______ _______ _______ _____ _____    ______ ____
ROOT
ATOM      1  C   LIG    1       28.793 -17.877   4.886  0.00  0.00    +0.024 C 
ATOM      2  C   LIG    1       27.291 -18.084   4.617  0.00  0.00    +0.058 C 
ENDROOT
BRANCH   2   3
ATOM      3  N   LIG    1       26.889 -19.524   4.511  0.00  0.00    -0.298 NA
ATOM      4  C   LIG    1       26.493 -20.107   5.797  0.00  0.00    +0.105 C 
BRANCH   3   5
ATOM      5  C   LIG    1       25.841 -19.721   3.482  0.00  0.00    +0.119 C 
BRANCH   5   6
ATOM      6  C   LIG    1       24.423 -19.835   4.013  0.00  0.00    -0.033 A 
ATOM      7  C   LIG    1       23.964 -21.023   4.599  0.00  0.00    +0.005 A 
ATOM      8  C   LIG    1       22.664 -21.104   5.106  0.00  0.00    +0.000 A 
ATOM      9  C   LIG    1       21.809 -20.007   5.026  0.00  0.00    +0.000 A 
ATOM     10  C   LIG    1       22.248 -18.823   4.436  0.00  0.00    +0.000 A 
ATOM     11  C   LIG    1       23.547 -18.740   3.930  0.00  0.00    +0.005 A 
ENDBRANCH   5   6
ENDBRANCH   3   5
ENDBRANCH   2   3
BRANCH   2  12
ATOM     12  C   LIG    1       26.849 -17.278   3.358  0.00  0.00    +0.053 C 
BRANCH  12  13
ATOM     13  C   LIG    1       26.428 -15.838   3.585  0.00  0.00    -0.046 A 
ATOM     14  C   LIG    1       27.374 -14.833   3.809  0.00  0.00    +0.003 A 
ATOM     15  C   LIG    1       26.970 -13.527   4.101  0.00  0.00    +0.000 A 
ATOM     16  C   LIG    1       25.612 -13.212   4.168  0.00  0.00    +0.000 A 
ATOM     17  C   LIG    1       24.661 -14.198   3.932  0.00  0.00    +0.000 A 
ATOM     18  C   LIG    1       25.064 -15.504   3.641  0.00  0.00    +0.003 A 
ENDBRANCH  12  13
ENDBRANCH   2  12
TORSDOF 5
ENDMDL
