MODEL 1
REMARK VINA RESULT:       0.7      0.000      0.000
REMARK  Name = *****
REMARK                            x       y       z     vdW  Elec       q    Type
REMARK                         _______ _______ _______ _____ _____    ______ ____
ROOT
ATOM      1  C   LIG    1       24.425 -14.349   4.343  0.00  0.00    +0.241 C 
ATOM      2  N   LIG    1       25.701 -14.529   4.821  0.00  0.00    -0.281 N 
ATOM      3  H   LIG    1       25.923 -15.428   5.253  0.00  0.00    +0.155 HD
ATOM      4  O   LIG    1       23.991 -13.377   3.740  0.00  0.00    -0.271 OA
ENDROOT
BRANCH   2   5
ATOM      5  C   LIG    1       26.776 -13.614   4.743  0.00  0.00    +0.048 A 
ATOM      6  C   LIG    1       27.125 -13.064   3.492  0.00  0.00    +0.080 A 
ATOM      7  C   LIG    1       28.228 -12.198   3.383  0.00  0.00    +0.017 A 
ATOM      8  C   LIG    1       28.961 -11.854   4.518  0.00  0.00    +0.001 A 
ATOM      9  C   LIG    1       28.605 -12.377   5.758  0.00  0.00    +0.002 A 
ATOM     10  C   LIG    1       27.521 -13.250   5.869  0.00  0.00    +0.024 A 
BRANCH   6  11
ATOM     11  C   LIG    1       26.321 -13.382   2.289  0.00  0.00    +0.339 C 
ATOM     12  O   LIG    1       26.264 -14.518   1.813  0.00  0.00    -0.245 OA
BRANCH  11  13
ATOM     13  O   LIG    1       25.593 -12.356   1.813  0.00  0.00    -0.477 OA
ATOM     14  H   LIG    1       24.717 -12.602   1.458  0.00  0.00    +0.295 HD
ENDBRANCH  11  13
ENDBRANCH   6  11
ENDBRANCH   2   5
BRANCH   1  16
ATOM     15  C   LIG    1       24.004 -16.727   4.183  0.00  0.00    +0.013 C 
ATOM     16  C   LIG    1       23.572 -15.534   4.607  0.00  0.00    +0.068 C 
BRANCH  15  20
ATOM     17  C   LIG    1       21.833 -20.393   4.572  0.00  0.00    +0.162 A 
ATOM     18  C   LIG    1       23.227 -20.405   4.749  0.00  0.00    +0.162 A 
ATOM     19  C   LIG    1       23.948 -19.202   4.647  0.00  0.00    +0.057 A 
ATOM     20  C   LIG    1       23.296 -17.989   4.396  0.00  0.00    -0.021 A 
ATOM     21  C   LIG    1       21.911 -17.988   4.249  0.00  0.00    +0.012 A 
ATOM     22  C   LIG    1       21.193 -19.174   4.333  0.00  0.00    +0.050 A 
BRANCH  17  24
ATOM     23  C   LIG    1       19.832 -21.486   3.977  0.00  0.00    +0.277 C 
ATOM     24  O   LIG    1       21.129 -21.572   4.568  0.00  0.00    -0.491 OA
ENDBRANCH  17  24
BRANCH  18  25
ATOM     25  O   LIG    1       24.014 -21.498   5.014  0.00  0.00    -0.491 OA
ATOM     26  C   LIG    1       25.308 -21.212   5.534  0.00  0.00    +0.277 C 
ENDBRANCH  18  25
ENDBRANCH  15  20
ENDBRANCH   1  16
TORSDOF 7
ENDMDL
MODEL 2
REMARK VINA RESULT:       2.4      0.816      2.034
REMARK  Name = *****
REMARK                            x       y       z     vdW  Elec       q    Type
REMARK                         _______ _______ _______ _____ _____    ______ ____
ROOT
ATOM      1  C   LIG    1       24.440 -14.262   4.328  0.00  0.00    +0.241 C 
ATOM      2  N   LIG    1       25.711 -14.472   4.807  0.00  0.00    -0.281 N 
ATOM      3  H   LIG    1       25.926 -15.390   5.200  0.00  0.00    +0.155 HD
ATOM      4  O   LIG    1       24.016 -13.262   3.767  0.00  0.00    -0.271 OA
ENDROOT
BRANCH   2   5
ATOM      5  C   LIG    1       26.792 -13.560   4.777  0.00  0.00    +0.048 A 
ATOM      6  C   LIG    1       27.199 -13.011   3.543  0.00  0.00    +0.080 A 
ATOM      7  C   LIG    1       28.309 -12.149   3.484  0.00  0.00    +0.017 A 
ATOM      8  C   LIG    1       28.991 -11.807   4.651  0.00  0.00    +0.001 A 
ATOM      9  C   LIG    1       28.578 -12.329   5.873  0.00  0.00    +0.002 A 
ATOM     10  C   LIG    1       27.487 -13.199   5.936  0.00  0.00    +0.024 A 
BRANCH   6  11
ATOM     11  C   LIG    1       26.448 -13.326   2.305  0.00  0.00    +0.339 C 
ATOM     12  O   LIG    1       26.431 -14.456   1.812  0.00  0.00    -0.245 OA
BRANCH  11  13
ATOM     13  O   LIG    1       25.721 -12.307   1.814  0.00  0.00    -0.477 OA
ATOM     14  H   LIG    1       24.941 -12.062   2.349  0.00  0.00    +0.295 HD
ENDBRANCH  11  13
ENDBRANCH   6  11
ENDBRANCH   2   5
BRANCH   1  16
ATOM     15  C   LIG    1       23.940 -16.600   3.946  0.00  0.00    +0.013 C 
ATOM     16  C   LIG    1       23.579 -15.453   4.533  0.00  0.00    +0.068 C 
BRANCH  15  20
ATOM     17  C   LIG    1       21.863 -20.285   4.586  0.00  0.00    +0.162 A 
ATOM     18  C   LIG    1       21.203 -19.237   3.921  0.00  0.00    +0.162 A 
ATOM     19  C   LIG    1       21.883 -18.030   3.685  0.00  0.00    +0.057 A 
ATOM     20  C   LIG    1       23.216 -17.864   4.079  0.00  0.00    -0.021 A 
ATOM     21  C   LIG    1       23.867 -18.920   4.713  0.00  0.00    +0.012 A 
ATOM     22  C   LIG    1       23.197 -20.110   4.964  0.00  0.00    +0.050 A 
BRANCH  17  24
ATOM     23  C   LIG    1       19.913 -21.571   4.275  0.00  0.00    +0.277 C 
ATOM     24  O   LIG    1       21.182 -21.432   4.914  0.00  0.00    -0.491 OA
ENDBRANCH  17  24
BRANCH  18  25
ATOM     25  O   LIG    1       19.911 -19.242   3.459  0.00  0.00    -0.491 OA
ATOM     26  C   LIG    1       19.472 -18.032   2.851  0.00  0.00    +0.277 C 
ENDBRANCH  18  25
ENDBRANCH  15  20
ENDBRANCH   1  16
TORSDOF 7
ENDMDL
MODEL 3
REMARK VINA RESULT:       2.8      2.053      8.288
REMARK  Name = *****
REMARK                            x       y       z     vdW  Elec       q    Type
REMARK                         _______ _______ _______ _____ _____    ______ ____
ROOT
ATOM      1  C   LIG    1       22.348 -16.563   4.603  0.00  0.00    +0.241 C 
ATOM      2  N   LIG    1       22.891 -17.799   4.351  0.00  0.00    -0.281 N 
ATOM      3  H   LIG    1       23.885 -17.843   4.119  0.00  0.00    +0.155 HD
ATOM      4  O   LIG    1       21.204 -16.315   4.958  0.00  0.00    -0.271 OA
ENDROOT
BRANCH   2   5
ATOM      5  C   LIG    1       22.231 -19.048   4.419  0.00  0.00    +0.048 A 
ATOM      6  C   LIG    1       22.963 -20.197   4.786  0.00  0.00    +0.080 A 
ATOM      7  C   LIG    1       22.339 -21.457   4.803  0.00  0.00    +0.017 A 
ATOM      8  C   LIG    1       20.986 -21.571   4.488  0.00  0.00    +0.001 A 
ATOM      9  C   LIG    1       20.255 -20.436   4.147  0.00  0.00    +0.002 A 
ATOM     10  C   LIG    1       20.874 -19.184   4.113  0.00  0.00    +0.024 A 
BRANCH   6  11
ATOM     11  C   LIG    1       24.388 -20.079   5.174  0.00  0.00    +0.339 C 
ATOM     12  O   LIG    1       25.261 -19.716   4.382  0.00  0.00    -0.245 OA
BRANCH  11  13
ATOM     13  O   LIG    1       24.637 -20.313   6.474  0.00  0.00    -0.477 OA
ATOM     14  H   LIG    1       25.058 -19.573   6.953  0.00  0.00    +0.295 HD
ENDBRANCH  11  13
ENDBRANCH   6  11
ENDBRANCH   2   5
BRANCH   1  16
ATOM     15  C   LIG    1       24.577 -15.821   4.017  0.00  0.00    +0.013 C 
ATOM     16  C   LIG    1       23.351 -15.482   4.433  0.00  0.00    +0.068 C 
BRANCH  15  20
ATOM     17  C   LIG    1       27.580 -12.890   3.184  0.00  0.00    +0.162 A 
ATOM     18  C   LIG    1       27.391 -13.314   4.510  0.00  0.00    +0.162 A 
ATOM     19  C   LIG    1       26.424 -14.294   4.793  0.00  0.00    +0.057 A 
ATOM     20  C   LIG    1       25.661 -14.871   3.770  0.00  0.00    -0.021 A 
ATOM     21  C   LIG    1       25.877 -14.461   2.457  0.00  0.00    +0.012 A 
ATOM     22  C   LIG    1       26.820 -13.482   2.171  0.00  0.00    +0.050 A 
BRANCH  17  24
ATOM     23  C   LIG    1       29.475 -11.674   3.878  0.00  0.00    +0.277 C 
ATOM     24  O   LIG    1       28.448 -11.864   2.905  0.00  0.00    -0.491 OA
ENDBRANCH  17  24
BRANCH  18  25
ATOM     25  O   LIG    1       28.061 -12.864   5.621  0.00  0.00    -0.491 OA
ATOM     26  C   LIG    1       27.675 -13.461   6.854  0.00  0.00    +0.277 C 
ENDBRANCH  18  25
ENDBRANCH  15  20
ENDBRANCH   1  16
TORSDOF 7
ENDMDL
