MODEL 1
REMARK VINA RESULT:      -9.6      0.000      0.000
REMARK  Name = *****
REMARK                            x       y       z     vdW  Elec       q    Type
REMARK                         _______ _______ _______ _____ _____    ______ ____
ROOT
ATOM      1  N   LIG    1       26.826 -19.984   4.683  0.00  0.00    -0.310 NA
ATOM      2  H   LIG    1       27.095 -19.082   4.284  0.00  0.00    +0.122 HD
ENDROOT
BRANCH   1   4
ATOM      3  C   LIG    1       24.775 -19.037   3.621  0.00  0.00    +0.024 C 
ATOM      4  C   LIG    1       25.407 -20.240   4.351  0.00  0.00    +0.055 C 
BRANCH   4   5
ATOM      5  C   LIG    1       24.511 -20.695   5.540  0.00  0.00    +0.053 C 
BRANCH   5   6
ATOM      6  C   LIG    1       24.205 -22.171   5.735  0.00  0.00    -0.042 A 
ATOM      7  C   LIG    1       25.088 -23.121   5.190  0.00  0.00    +0.053 A 
ATOM      8  C   LIG    1       24.911 -24.455   5.485  0.00  0.00    +0.167 A 
ATOM      9  O   LIG    1       25.707 -25.480   5.078  0.00  0.00    -0.453 OA
ATOM     10  C   LIG    1       25.042 -26.607   5.688  0.00  0.00    +0.466 C 
ATOM     11  O   LIG    1       23.877 -26.235   6.454  0.00  0.00    -0.453 OA
ATOM     12  C   LIG    1       23.871 -24.884   6.281  0.00  0.00    +0.166 A 
ATOM     13  C   LIG    1       22.976 -23.998   6.820  0.00  0.00    +0.050 A 
ATOM     14  C   LIG    1       23.150 -22.630   6.563  0.00  0.00    +0.007 A 
ENDBRANCH   5   6
ENDBRANCH   4   5
ENDBRANCH   1   4
BRANCH   1  15
ATOM     15  C   LIG    1       27.102 -19.969   6.133  0.00  0.00    +0.117 C 
BRANCH  15  16
ATOM     16  C   LIG    1       28.198 -20.933   6.645  0.00  0.00    +0.158 C 
BRANCH  16  17
ATOM     17  C   LIG    1       29.281 -20.247   7.455  0.00  0.00    -0.014 A 
ATOM     18  C   LIG    1       30.283 -21.030   8.046  0.00  0.00    +0.055 A 
ATOM     19  C   LIG    1       31.244 -20.431   8.844  0.00  0.00    +0.159 A 
ATOM     20  C   LIG    1       31.253 -19.053   9.040  0.00  0.00    +0.158 A 
ATOM     21  C   LIG    1       30.295 -18.252   8.435  0.00  0.00    +0.049 A 
ATOM     22  C   LIG    1       29.311 -18.850   7.640  0.00  0.00    +0.010 A 
BRANCH  19  23
ATOM     23  O   LIG    1       32.174 -21.218   9.459  0.00  0.00    -0.503 OA
ATOM     24  H   LIG    1       32.753 -21.523   8.734  0.00  0.00    +0.292 HD
ENDBRANCH  19  23
BRANCH  20  25
ATOM     25  O   LIG    1       32.229 -18.535   9.846  0.00  0.00    -0.503 OA
ATOM     26  H   LIG    1       31.946 -17.649  10.134  0.00  0.00    +0.292 HD
ENDBRANCH  20  25
ENDBRANCH  16  17
BRANCH  16  27
ATOM     27  O   LIG    1       27.559 -21.940   7.447  0.00  0.00    -0.386 OA
ATOM     28  H   LIG    1       26.618 -21.942   7.203  0.00  0.00    +0.210 HD
ENDBRANCH  16  27
ENDBRANCH  15  16
ENDBRANCH   1  15
TORSDOF 9
ENDMDL
MODEL 2
REMARK VINA RESULT:      -9.4      1.877      6.742
REMARK  Name = *****
REMARK                            x       y       z     vdW  Elec       q    Type
REMARK                         _______ _______ _______ _____ _____    ______ ____
ROOT
ATOM      1  N   LIG    1       23.763 -21.478   4.786  0.00  0.00    -0.310 NA
ATOM      2  H   LIG    1       24.509 -22.143   5.002  0.00  0.00    +0.122 HD
ENDROOT
BRANCH   1   4
ATOM      3  C   LIG    1       23.534 -19.154   3.904  0.00  0.00    +0.024 C 
ATOM      4  C   LIG    1       24.330 -20.111   4.816  0.00  0.00    +0.055 C 
BRANCH   4   5
ATOM      5  C   LIG    1       25.855 -20.010   4.523  0.00  0.00    +0.053 C 
BRANCH   5   6
ATOM      6  C   LIG    1       26.853 -20.110   5.665  0.00  0.00    -0.042 A 
ATOM      7  C   LIG    1       28.188 -19.736   5.429  0.00  0.00    +0.053 A 
ATOM      8  C   LIG    1       29.070 -19.674   6.486  0.00  0.00    +0.167 A 
ATOM      9  O   LIG    1       30.370 -19.282   6.425  0.00  0.00    -0.453 OA
ATOM     10  C   LIG    1       30.766 -19.415   7.808  0.00  0.00    +0.466 C 
ATOM     11  O   LIG    1       29.696 -19.868   8.664  0.00  0.00    -0.453 OA
ATOM     12  C   LIG    1       28.680 -19.999   7.767  0.00  0.00    +0.166 A 
ATOM     13  C   LIG    1       27.395 -20.385   8.044  0.00  0.00    +0.050 A 
ATOM     14  C   LIG    1       26.467 -20.426   6.993  0.00  0.00    +0.007 A 
ENDBRANCH   5   6
ENDBRANCH   4   5
ENDBRANCH   1   4
BRANCH   1  15
ATOM     15  C   LIG    1       22.652 -21.680   5.735  0.00  0.00    +0.117 C 
BRANCH  15  16
ATOM     16  C   LIG    1       22.960 -22.505   7.007  0.00  0.00    +0.158 C 
BRANCH  16  17
ATOM     17  C   LIG    1       23.955 -23.626   6.777  0.00  0.00    -0.014 A 
ATOM     18  C   LIG    1       23.488 -24.857   6.295  0.00  0.00    +0.055 A 
ATOM     19  C   LIG    1       24.369 -25.915   6.141  0.00  0.00    +0.159 A 
ATOM     20  C   LIG    1       25.724 -25.766   6.423  0.00  0.00    +0.158 A 
ATOM     21  C   LIG    1       26.217 -24.546   6.865  0.00  0.00    +0.049 A 
ATOM     22  C   LIG    1       25.332 -23.476   7.039  0.00  0.00    +0.010 A 
BRANCH  19  23
ATOM     23  O   LIG    1       23.884 -27.122   5.728  0.00  0.00    -0.503 OA
ATOM     24  H   LIG    1       24.680 -27.636   5.488  0.00  0.00    +0.292 HD
ENDBRANCH  19  23
BRANCH  20  25
ATOM     25  O   LIG    1       26.530 -26.857   6.253  0.00  0.00    -0.503 OA
ATOM     26  H   LIG    1       26.546 -27.355   7.089  0.00  0.00    +0.292 HD
ENDBRANCH  20  25
ENDBRANCH  16  17
BRANCH  16  27
ATOM     27  O   LIG    1       23.469 -21.604   8.004  0.00  0.00    -0.386 OA
ATOM     28  H   LIG    1       22.810 -21.571   8.719  0.00  0.00    +0.210 HD
ENDBRANCH  16  27
ENDBRANCH  15  16
ENDBRANCH   1  15
TORSDOF 9
ENDMDL
MODEL 3
REMARK VINA RESULT:      -9.3      2.360      8.930
REMARK  Name = *****
REMARK                            x       y       z     vdW  Elec       q    Type
REMARK                         _______ _______ _______ _____ _____    ______ ____
ROOT
ATOM      1  N   LIG    1       28.220 -21.153   8.361  0.00  0.00    -0.310 NA
ATOM      2  H   LIG    1       28.201 -20.820   9.327  0.00  0.00    +0.122 HD
ENDROOT
BRANCH   1   4
ATOM      3  C   LIG    1       30.697 -21.291   8.637  0.00  0.00    +0.024 C 
ATOM      4  C   LIG    1       29.526 -20.793   7.765  0.00  0.00    +0.055 C 
BRANCH   4   5
ATOM      5  C   LIG    1       29.708 -19.290   7.406  0.00  0.00    +0.053 C 
BRANCH   5   6
ATOM      6  C   LIG    1       30.522 -18.387   8.318  0.00  0.00    -0.042 A 
ATOM      7  C   LIG    1       29.943 -17.947   9.523  0.00  0.00    +0.053 A 
ATOM      8  C   LIG    1       30.716 -17.257  10.432  0.00  0.00    +0.167 A 
ATOM      9  O   LIG    1       30.315 -16.815  11.653  0.00  0.00    -0.453 OA
ATOM     10  C   LIG    1       31.526 -16.189  12.132  0.00  0.00    +0.466 C 
ATOM     11  O   LIG    1       32.621 -16.281  11.198  0.00  0.00    -0.453 OA
ATOM     12  C   LIG    1       32.037 -16.962  10.175  0.00  0.00    +0.166 A 
ATOM     13  C   LIG    1       32.640 -17.355   9.009  0.00  0.00    +0.050 A 
ATOM     14  C   LIG    1       31.887 -18.087   8.079  0.00  0.00    +0.007 A 
ENDBRANCH   5   6
ENDBRANCH   4   5
ENDBRANCH   1   4
BRANCH   1  15
ATOM     15  C   LIG    1       27.063 -20.591   7.637  0.00  0.00    +0.117 C 
BRANCH  15  16
ATOM     16  C   LIG    1       25.659 -21.007   8.134  0.00  0.00    +0.158 C 
BRANCH  16  17
ATOM     17  C   LIG    1       25.138 -22.277   7.488  0.00  0.00    -0.014 A 
ATOM     18  C   LIG    1       23.759 -22.411   7.276  0.00  0.00    +0.055 A 
ATOM     19  C   LIG    1       23.255 -23.589   6.748  0.00  0.00    +0.159 A 
ATOM     20  C   LIG    1       24.103 -24.633   6.390  0.00  0.00    +0.158 A 
ATOM     21  C   LIG    1       25.475 -24.509   6.555  0.00  0.00    +0.049 A 
ATOM     22  C   LIG    1       25.992 -23.329   7.102  0.00  0.00    +0.010 A 
BRANCH  19  23
ATOM     23  O   LIG    1       21.904 -23.723   6.606  0.00  0.00    -0.503 OA
ATOM     24  H   LIG    1       21.535 -22.912   7.007  0.00  0.00    +0.292 HD
ENDBRANCH  19  23
BRANCH  20  25
ATOM     25  O   LIG    1       23.532 -25.767   5.882  0.00  0.00    -0.503 OA
ATOM     26  H   LIG    1       22.678 -25.524   5.484  0.00  0.00    +0.292 HD
ENDBRANCH  20  25
ENDBRANCH  16  17
BRANCH  16  27
ATOM     27  O   LIG    1       25.728 -21.182   9.558  0.00  0.00    -0.386 OA
ATOM     28  H   LIG    1       24.830 -21.395   9.861  0.00  0.00    +0.210 HD
ENDBRANCH  16  27
ENDBRANCH  15  16
ENDBRANCH   1  15
TORSDOF 9
ENDMDL
MODEL 4
REMARK VINA RESULT:      -9.2      2.164      8.599
REMARK  Name = *****
REMARK                            x       y       z     vdW  Elec       q    Type
REMARK                         _______ _______ _______ _____ _____    ______ ____
ROOT
ATOM      1  N   LIG    1       25.564 -22.588   6.117  0.00  0.00    -0.310 NA
ATOM      2  H   LIG    1       26.043 -22.611   5.215  0.00  0.00    +0.122 HD
ENDROOT
BRANCH   1   4
ATOM      3  C   LIG    1       25.783 -21.801   8.476  0.00  0.00    +0.024 C 
ATOM      4  C   LIG    1       26.497 -22.048   7.131  0.00  0.00    +0.055 C 
BRANCH   4   5
ATOM      5  C   LIG    1       27.303 -20.789   6.697  0.00  0.00    +0.053 C 
BRANCH   5   6
ATOM      6  C   LIG    1       28.670 -20.520   7.306  0.00  0.00    -0.042 A 
ATOM      7  C   LIG    1       29.154 -19.198   7.319  0.00  0.00    +0.053 A 
ATOM      8  C   LIG    1       30.317 -18.912   8.001  0.00  0.00    +0.167 A 
ATOM      9  O   LIG    1       30.878 -17.682   8.147  0.00  0.00    -0.453 OA
ATOM     10  C   LIG    1       32.043 -18.002   8.939  0.00  0.00    +0.466 C 
ATOM     11  O   LIG    1       32.145 -19.405   9.260  0.00  0.00    -0.453 OA
ATOM     12  C   LIG    1       31.033 -19.896   8.646  0.00  0.00    +0.166 A 
ATOM     13  C   LIG    1       30.611 -21.199   8.646  0.00  0.00    +0.050 A 
ATOM     14  C   LIG    1       29.414 -21.516   7.988  0.00  0.00    +0.007 A 
ENDBRANCH   5   6
ENDBRANCH   4   5
ENDBRANCH   1   4
BRANCH   1  15
ATOM     15  C   LIG    1       25.067 -23.941   6.431  0.00  0.00    +0.117 C 
BRANCH  15  16
ATOM     16  C   LIG    1       25.515 -25.085   5.492  0.00  0.00    +0.158 C 
BRANCH  16  17
ATOM     17  C   LIG    1       25.324 -26.468   6.084  0.00  0.00    -0.014 A 
ATOM     18  C   LIG    1       24.418 -27.347   5.474  0.00  0.00    +0.055 A 
ATOM     19  C   LIG    1       24.180 -28.590   6.037  0.00  0.00    +0.159 A 
ATOM     20  C   LIG    1       24.855 -28.999   7.184  0.00  0.00    +0.158 A 
ATOM     21  C   LIG    1       25.786 -28.162   7.784  0.00  0.00    +0.049 A 
ATOM     22  C   LIG    1       26.022 -26.898   7.232  0.00  0.00    +0.010 A 
BRANCH  19  23
ATOM     23  O   LIG    1       23.248 -29.406   5.463  0.00  0.00    -0.503 OA
ATOM     24  H   LIG    1       22.463 -29.323   6.039  0.00  0.00    +0.292 HD
ENDBRANCH  19  23
BRANCH  20  25
ATOM     25  O   LIG    1       24.562 -30.237   7.685  0.00  0.00    -0.503 OA
ATOM     26  H   LIG    1       24.102 -30.742   6.993  0.00  0.00    +0.292 HD
ENDBRANCH  20  25
ENDBRANCH  16  17
BRANCH  16  27
ATOM     27  O   LIG    1       24.765 -24.974   4.272  0.00  0.00    -0.386 OA
ATOM     28  H   LIG    1       24.410 -24.070   4.239  0.00  0.00    +0.210 HD
ENDBRANCH  16  27
ENDBRANCH  15  16
ENDBRANCH   1  15
TORSDOF 9
ENDMDL
MODEL 5
REMARK VINA RESULT:      -9.2      2.009      8.105
REMARK  Name = *****
REMARK                            x       y       z     vdW  Elec       q    Type
REMARK                         _______ _______ _______ _____ _____    ______ ____
ROOT
ATOM      1  N   LIG    1       25.068 -22.742   5.719  0.00  0.00    -0.310 NA
ATOM      2  H   LIG    1       25.690 -22.711   4.909  0.00  0.00    +0.122 HD
ENDROOT
BRANCH   1   4
ATOM      3  C   LIG    1       24.140 -20.999   7.247  0.00  0.00    +0.024 C 
ATOM      4  C   LIG    1       25.406 -21.613   6.615  0.00  0.00    +0.055 C 
BRANCH   4   5
ATOM      5  C   LIG    1       26.301 -20.505   5.988  0.00  0.00    +0.053 C 
BRANCH   5   6
ATOM      6  C   LIG    1       27.699 -20.263   6.534  0.00  0.00    -0.042 A 
ATOM      7  C   LIG    1       28.157 -21.065   7.596  0.00  0.00    +0.053 A 
ATOM      8  C   LIG    1       29.471 -20.964   8.001  0.00  0.00    +0.167 A 
ATOM      9  O   LIG    1       30.070 -21.704   8.971  0.00  0.00    -0.453 OA
ATOM     10  C   LIG    1       31.410 -21.168   8.940  0.00  0.00    +0.466 C 
ATOM     11  O   LIG    1       31.587 -20.135   7.949  0.00  0.00    -0.453 OA
ATOM     12  C   LIG    1       30.339 -20.074   7.408  0.00  0.00    +0.166 A 
ATOM     13  C   LIG    1       29.935 -19.261   6.382  0.00  0.00    +0.050 A 
ATOM     14  C   LIG    1       28.613 -19.364   5.927  0.00  0.00    +0.007 A 
ENDBRANCH   5   6
ENDBRANCH   4   5
ENDBRANCH   1   4
BRANCH   1  15
ATOM     15  C   LIG    1       25.185 -24.065   6.364  0.00  0.00    +0.117 C 
BRANCH  15  16
ATOM     16  C   LIG    1       25.604 -25.248   5.459  0.00  0.00    +0.158 C 
BRANCH  16  17
ATOM     17  C   LIG    1       25.354 -26.607   6.083  0.00  0.00    -0.014 A 
ATOM     18  C   LIG    1       24.443 -27.476   5.467  0.00  0.00    +0.055 A 
ATOM     19  C   LIG    1       24.150 -28.696   6.055  0.00  0.00    +0.159 A 
ATOM     20  C   LIG    1       24.776 -29.091   7.234  0.00  0.00    +0.158 A 
ATOM     21  C   LIG    1       25.711 -28.265   7.842  0.00  0.00    +0.049 A 
ATOM     22  C   LIG    1       26.002 -27.024   7.263  0.00  0.00    +0.010 A 
BRANCH  19  23
ATOM     23  O   LIG    1       23.214 -29.502   5.473  0.00  0.00    -0.503 OA
ATOM     24  H   LIG    1       22.359 -29.093   5.711  0.00  0.00    +0.292 HD
ENDBRANCH  19  23
BRANCH  20  25
ATOM     25  O   LIG    1       24.431 -30.306   7.759  0.00  0.00    -0.503 OA
ATOM     26  H   LIG    1       25.181 -30.633   8.284  0.00  0.00    +0.292 HD
ENDBRANCH  20  25
ENDBRANCH  16  17
BRANCH  16  27
ATOM     27  O   LIG    1       24.876 -25.140   4.226  0.00  0.00    -0.386 OA
ATOM     28  H   LIG    1       25.499 -24.808   3.557  0.00  0.00    +0.210 HD
ENDBRANCH  16  27
ENDBRANCH  15  16
ENDBRANCH   1  15
TORSDOF 9
ENDMDL
MODEL 6
REMARK VINA RESULT:      -9.1      2.391      7.638
REMARK  Name = *****
REMARK                            x       y       z     vdW  Elec       q    Type
REMARK                         _______ _______ _______ _____ _____    ______ ____
ROOT
ATOM      1  N   LIG    1       25.826 -23.009   8.002  0.00  0.00    -0.310 NA
ATOM      2  H   LIG    1       24.849 -22.901   8.285  0.00  0.00    +0.122 HD
ENDROOT
BRANCH   1   4
ATOM      3  C   LIG    1       25.527 -20.558   8.372  0.00  0.00    +0.024 C 
ATOM      4  C   LIG    1       26.526 -21.726   8.232  0.00  0.00    +0.055 C 
BRANCH   4   5
ATOM      5  C   LIG    1       27.641 -21.376   7.204  0.00  0.00    +0.053 C 
BRANCH   5   6
ATOM      6  C   LIG    1       28.974 -20.830   7.690  0.00  0.00    -0.042 A 
ATOM      7  C   LIG    1       29.214 -19.448   7.587  0.00  0.00    +0.053 A 
ATOM      8  C   LIG    1       30.349 -18.915   8.159  0.00  0.00    +0.167 A 
ATOM      9  O   LIG    1       30.691 -17.600   8.188  0.00  0.00    -0.453 OA
ATOM     10  C   LIG    1       31.942 -17.654   8.907  0.00  0.00    +0.466 C 
ATOM     11  O   LIG    1       32.313 -18.991   9.304  0.00  0.00    -0.453 OA
ATOM     12  C   LIG    1       31.269 -19.711   8.806  0.00  0.00    +0.166 A 
ATOM     13  C   LIG    1       31.087 -21.064   8.917  0.00  0.00    +0.050 A 
ATOM     14  C   LIG    1       29.925 -21.630   8.372  0.00  0.00    +0.007 A 
ENDBRANCH   5   6
ENDBRANCH   4   5
ENDBRANCH   1   4
BRANCH   1  15
ATOM     15  C   LIG    1       25.871 -23.466   6.600  0.00  0.00    +0.117 C 
BRANCH  15  16
ATOM     16  C   LIG    1       24.535 -23.464   5.821  0.00  0.00    +0.158 C 
BRANCH  16  17
ATOM     17  C   LIG    1       24.101 -22.086   5.362  0.00  0.00    -0.014 A 
ATOM     18  C   LIG    1       24.946 -21.359   4.512  0.00  0.00    +0.055 A 
ATOM     19  C   LIG    1       24.600 -20.072   4.134  0.00  0.00    +0.159 A 
ATOM     20  C   LIG    1       23.404 -19.498   4.555  0.00  0.00    +0.158 A 
ATOM     21  C   LIG    1       22.532 -20.213   5.364  0.00  0.00    +0.049 A 
ATOM     22  C   LIG    1       22.880 -21.508   5.765  0.00  0.00    +0.010 A 
BRANCH  19  23
ATOM     23  O   LIG    1       25.466 -19.358   3.356  0.00  0.00    -0.503 OA
ATOM     24  H   LIG    1       25.948 -20.035   2.843  0.00  0.00    +0.292 HD
ENDBRANCH  19  23
BRANCH  20  25
ATOM     25  O   LIG    1       23.134 -18.222   4.146  0.00  0.00    -0.503 OA
ATOM     26  H   LIG    1       23.957 -17.706   4.201  0.00  0.00    +0.292 HD
ENDBRANCH  20  25
ENDBRANCH  16  17
BRANCH  16  27
ATOM     27  O   LIG    1       24.686 -24.328   4.683  0.00  0.00    -0.386 OA
ATOM     28  H   LIG    1       25.352 -24.995   4.920  0.00  0.00    +0.210 HD
ENDBRANCH  16  27
ENDBRANCH  15  16
ENDBRANCH   1  15
TORSDOF 9
ENDMDL
MODEL 7
REMARK VINA RESULT:      -9.0      1.607      2.263
REMARK  Name = *****
REMARK                            x       y       z     vdW  Elec       q    Type
REMARK                         _______ _______ _______ _____ _____    ______ ____
ROOT
ATOM      1  N   LIG    1       24.997 -20.779   7.086  0.00  0.00    -0.310 NA
ATOM      2  H   LIG    1       25.036 -21.179   8.026  0.00  0.00    +0.122 HD
ENDROOT
BRANCH   1   4
ATOM      3  C   LIG    1       22.887 -20.789   5.752  0.00  0.00    +0.024 C 
ATOM      4  C   LIG    1       24.092 -21.608   6.260  0.00  0.00    +0.055 C 
BRANCH   4   5
ATOM      5  C   LIG    1       23.616 -22.938   6.914  0.00  0.00    +0.053 C 
BRANCH   5   6
ATOM      6  C   LIG    1       24.389 -24.223   6.662  0.00  0.00    -0.042 A 
ATOM      7  C   LIG    1       23.679 -25.368   6.254  0.00  0.00    +0.053 A 
ATOM      8  C   LIG    1       24.375 -26.495   5.874  0.00  0.00    +0.167 A 
ATOM      9  O   LIG    1       23.835 -27.653   5.410  0.00  0.00    -0.453 OA
ATOM     10  C   LIG    1       25.024 -28.440   5.179  0.00  0.00    +0.466 C 
ATOM     11  O   LIG    1       26.242 -27.735   5.495  0.00  0.00    -0.453 OA
ATOM     12  C   LIG    1       25.752 -26.536   5.913  0.00  0.00    +0.166 A 
ATOM     13  C   LIG    1       26.485 -25.453   6.319  0.00  0.00    +0.050 A 
ATOM     14  C   LIG    1       25.805 -24.281   6.681  0.00  0.00    +0.007 A 
ENDBRANCH   5   6
ENDBRANCH   4   5
ENDBRANCH   1   4
BRANCH   1  15
ATOM     15  C   LIG    1       26.368 -20.683   6.549  0.00  0.00    +0.117 C 
BRANCH  15  16
ATOM     16  C   LIG    1       27.494 -21.333   7.387  0.00  0.00    +0.158 C 
BRANCH  16  17
ATOM     17  C   LIG    1       28.779 -20.528   7.406  0.00  0.00    -0.014 A 
ATOM     18  C   LIG    1       29.824 -20.943   8.243  0.00  0.00    +0.055 A 
ATOM     19  C   LIG    1       30.982 -20.186   8.326  0.00  0.00    +0.159 A 
ATOM     20  C   LIG    1       31.140 -19.034   7.560  0.00  0.00    +0.158 A 
ATOM     21  C   LIG    1       30.135 -18.624   6.695  0.00  0.00    +0.049 A 
ATOM     22  C   LIG    1       28.955 -19.374   6.617  0.00  0.00    +0.010 A 
BRANCH  19  23
ATOM     23  O   LIG    1       31.963 -20.573   9.192  0.00  0.00    -0.503 OA
ATOM     24  H   LIG    1       31.967 -21.548   9.135  0.00  0.00    +0.292 HD
ENDBRANCH  19  23
BRANCH  20  25
ATOM     25  O   LIG    1       32.307 -18.335   7.700  0.00  0.00    -0.503 OA
ATOM     26  H   LIG    1       32.113 -17.517   8.190  0.00  0.00    +0.292 HD
ENDBRANCH  20  25
ENDBRANCH  16  17
BRANCH  16  27
ATOM     27  O   LIG    1       27.007 -21.498   8.728  0.00  0.00    -0.386 OA
ATOM     28  H   LIG    1       27.617 -22.107   9.179  0.00  0.00    +0.210 HD
ENDBRANCH  16  27
ENDBRANCH  15  16
ENDBRANCH   1  15
TORSDOF 9
ENDMDL
MODEL 8
REMARK VINA RESULT:      -9.0      2.522      8.278
REMARK  Name = *****
REMARK                            x       y       z     vdW  Elec       q    Type
REMARK                         _______ _______ _______ _____ _____    ______ ____
ROOT
ATOM      1  N   LIG    1       25.563 -23.957   5.724  0.00  0.00    -0.310 NA
ATOM      2  H   LIG    1       26.554 -23.803   5.925  0.00  0.00    +0.122 HD
ENDROOT
BRANCH   1   4
ATOM      3  C   LIG    1       23.287 -23.808   6.739  0.00  0.00    +0.024 C 
ATOM      4  C   LIG    1       24.764 -23.370   6.824  0.00  0.00    +0.055 C 
BRANCH   4   5
ATOM      5  C   LIG    1       24.873 -21.826   6.982  0.00  0.00    +0.053 C 
BRANCH   5   6
ATOM      6  C   LIG    1       26.235 -21.154   6.926  0.00  0.00    -0.042 A 
ATOM      7  C   LIG    1       27.194 -21.490   7.900  0.00  0.00    +0.053 A 
ATOM      8  C   LIG    1       28.479 -21.009   7.777  0.00  0.00    +0.167 A 
ATOM      9  O   LIG    1       29.522 -21.285   8.604  0.00  0.00    -0.453 OA
ATOM     10  C   LIG    1       30.580 -20.524   7.981  0.00  0.00    +0.466 C 
ATOM     11  O   LIG    1       30.153 -19.823   6.794  0.00  0.00    -0.453 OA
ATOM     12  C   LIG    1       28.841 -20.182   6.736  0.00  0.00    +0.166 A 
ATOM     13  C   LIG    1       27.938 -19.813   5.773  0.00  0.00    +0.050 A 
ATOM     14  C   LIG    1       26.631 -20.313   5.855  0.00  0.00    +0.007 A 
ENDBRANCH   5   6
ENDBRANCH   4   5
ENDBRANCH   1   4
BRANCH   1  15
ATOM     15  C   LIG    1       25.332 -25.401   5.529  0.00  0.00    +0.117 C 
BRANCH  15  16
ATOM     16  C   LIG    1       26.297 -26.367   6.256  0.00  0.00    +0.158 C 
BRANCH  16  17
ATOM     17  C   LIG    1       25.631 -27.639   6.742  0.00  0.00    -0.014 A 
ATOM     18  C   LIG    1       24.718 -28.289   5.900  0.00  0.00    +0.055 A 
ATOM     19  C   LIG    1       24.048 -29.416   6.350  0.00  0.00    +0.159 A 
ATOM     20  C   LIG    1       24.295 -29.938   7.617  0.00  0.00    +0.158 A 
ATOM     21  C   LIG    1       25.223 -29.335   8.454  0.00  0.00    +0.049 A 
ATOM     22  C   LIG    1       25.892 -28.187   8.015  0.00  0.00    +0.010 A 
BRANCH  19  23
ATOM     23  O   LIG    1       23.119 -29.998   5.538  0.00  0.00    -0.503 OA
ATOM     24  H   LIG    1       22.264 -29.819   5.977  0.00  0.00    +0.292 HD
ENDBRANCH  19  23
BRANCH  20  25
ATOM     25  O   LIG    1       23.591 -31.048   7.993  0.00  0.00    -0.503 OA
ATOM     26  H   LIG    1       22.752 -31.056   7.499  0.00  0.00    +0.292 HD
ENDBRANCH  20  25
ENDBRANCH  16  17
BRANCH  16  27
ATOM     27  O   LIG    1       27.361 -26.695   5.348  0.00  0.00    -0.386 OA
ATOM     28  H   LIG    1       28.166 -26.270   5.689  0.00  0.00    +0.210 HD
ENDBRANCH  16  27
ENDBRANCH  15  16
ENDBRANCH   1  15
TORSDOF 9
ENDMDL
MODEL 9
REMARK VINA RESULT:      -8.9      1.911      3.052
REMARK  Name = *****
REMARK                            x       y       z     vdW  Elec       q    Type
REMARK                         _______ _______ _______ _____ _____    ______ ____
ROOT
ATOM      1  N   LIG    1       25.615 -21.431   5.640  0.00  0.00    -0.310 NA
ATOM      2  H   LIG    1       24.919 -20.830   5.192  0.00  0.00    +0.122 HD
ENDROOT
BRANCH   1   4
ATOM      3  C   LIG    1       23.836 -22.262   7.182  0.00  0.00    +0.024 C 
ATOM      4  C   LIG    1       24.929 -22.636   6.160  0.00  0.00    +0.055 C 
BRANCH   4   5
ATOM      5  C   LIG    1       25.861 -23.744   6.730  0.00  0.00    +0.053 C 
BRANCH   5   6
ATOM      6  C   LIG    1       25.717 -25.177   6.245  0.00  0.00    -0.042 A 
ATOM      7  C   LIG    1       25.781 -26.219   7.189  0.00  0.00    +0.053 A 
ATOM      8  C   LIG    1       25.501 -27.509   6.792  0.00  0.00    +0.167 A 
ATOM      9  O   LIG    1       25.472 -28.606   7.593  0.00  0.00    -0.453 OA
ATOM     10  C   LIG    1       25.124 -29.635   6.641  0.00  0.00    +0.466 C 
ATOM     11  O   LIG    1       24.941 -29.133   5.302  0.00  0.00    -0.453 OA
ATOM     12  C   LIG    1       25.187 -27.806   5.483  0.00  0.00    +0.166 A 
ATOM     13  C   LIG    1       25.129 -26.828   4.526  0.00  0.00    +0.050 A 
ATOM     14  C   LIG    1       25.378 -25.502   4.907  0.00  0.00    +0.007 A 
ENDBRANCH   5   6
ENDBRANCH   4   5
ENDBRANCH   1   4
BRANCH   1  15
ATOM     15  C   LIG    1       26.321 -20.657   6.678  0.00  0.00    +0.117 C 
BRANCH  15  16
ATOM     16  C   LIG    1       27.584 -19.882   6.234  0.00  0.00    +0.158 C 
BRANCH  16  17
ATOM     17  C   LIG    1       28.796 -20.146   7.106  0.00  0.00    -0.014 A 
ATOM     18  C   LIG    1       29.834 -19.204   7.124  0.00  0.00    +0.055 A 
ATOM     19  C   LIG    1       30.979 -19.456   7.863  0.00  0.00    +0.159 A 
ATOM     20  C   LIG    1       31.102 -20.617   8.620  0.00  0.00    +0.158 A 
ATOM     21  C   LIG    1       30.072 -21.546   8.649  0.00  0.00    +0.049 A 
ATOM     22  C   LIG    1       28.918 -21.308   7.894  0.00  0.00    +0.010 A 
BRANCH  19  23
ATOM     23  O   LIG    1       32.004 -18.555   7.818  0.00  0.00    -0.503 OA
ATOM     24  H   LIG    1       31.769 -17.885   8.489  0.00  0.00    +0.292 HD
ENDBRANCH  19  23
BRANCH  20  25
ATOM     25  O   LIG    1       32.265 -20.799   9.317  0.00  0.00    -0.503 OA
ATOM     26  H   LIG    1       32.810 -20.001   9.210  0.00  0.00    +0.292 HD
ENDBRANCH  20  25
ENDBRANCH  16  17
BRANCH  16  27
ATOM     27  O   LIG    1       27.875 -20.253   4.877  0.00  0.00    -0.386 OA
ATOM     28  H   LIG    1       28.006 -19.429   4.380  0.00  0.00    +0.210 HD
ENDBRANCH  16  27
ENDBRANCH  15  16
ENDBRANCH   1  15
TORSDOF 9
ENDMDL
