MODEL 1
REMARK VINA RESULT:      -9.1      0.000      0.000
REMARK  Name = *****
REMARK                            x       y       z     vdW  Elec       q    Type
REMARK                         _______ _______ _______ _____ _____    ______ ____
ROOT
ATOM      1  C   LIG    1       29.093 -19.410   7.430  0.00  0.00    -0.034 A 
ATOM      2  C   LIG    1       28.153 -19.988   8.295  0.00  0.00    +0.005 A 
ATOM      3  C   LIG    1       26.970 -20.544   7.796  0.00  0.00    +0.004 A 
ATOM      4  C   LIG    1       26.708 -20.545   6.421  0.00  0.00    -0.047 A 
ATOM      5  C   LIG    1       27.637 -19.956   5.558  0.00  0.00    +0.004 A 
ATOM      6  C   LIG    1       28.817 -19.394   6.055  0.00  0.00    +0.005 A 
ENDROOT
BRANCH   1   8
ATOM      7  C   LIG    1       30.018 -17.717   9.049  0.00  0.00    +0.024 C 
ATOM      8  C   LIG    1       30.357 -18.774   7.991  0.00  0.00    +0.124 C 
BRANCH   8   9
ATOM      9  C   LIG    1       31.369 -19.775   8.550  0.00  0.00    +0.312 C 
ATOM     10  O   LIG    1       32.165 -19.507   9.444  0.00  0.00    -0.250 OA
BRANCH   9  11
ATOM     11  O   LIG    1       31.399 -20.980   7.937  0.00  0.00    -0.480 OA
ATOM     12  H   LIG    1       30.888 -21.027   7.106  0.00  0.00    +0.295 HD
ENDBRANCH   9  11
ENDBRANCH   8   9
ENDBRANCH   1   8
BRANCH   4  13
ATOM     13  C   LIG    1       25.440 -21.160   5.873  0.00  0.00    +0.046 C 
BRANCH  13  14
ATOM     14  C   LIG    1       25.002 -22.424   6.613  0.00  0.00    +0.059 C 
ATOM     15  C   LIG    1       23.583 -22.300   7.129  0.00  0.00    +0.137 C 
ATOM     16  O   LIG    1       23.144 -21.312   7.705  0.00  0.00    -0.297 OA
ATOM     17  C   LIG    1       22.764 -23.532   6.844  0.00  0.00    +0.075 C 
ATOM     18  C   LIG    1       23.831 -24.525   6.409  0.00  0.00    +0.008 C 
ATOM     19  C   LIG    1       24.889 -23.668   5.725  0.00  0.00    +0.012 C 
ENDBRANCH  13  14
ENDBRANCH   4  13
TORSDOF 5
ENDMDL
MODEL 2
REMARK VINA RESULT:      -8.6      1.330      7.155
REMARK  Name = *****
REMARK                            x       y       z     vdW  Elec       q    Type
REMARK                         _______ _______ _______ _____ _____    ______ ____
ROOT
ATOM      1  C   LIG    1       25.032 -21.129   6.984  0.00  0.00    -0.034 A 
ATOM      2  C   LIG    1       25.656 -20.761   5.784  0.00  0.00    +0.005 A 
ATOM      3  C   LIG    1       26.969 -20.277   5.781  0.00  0.00    +0.004 A 
ATOM      4  C   LIG    1       27.689 -20.163   6.976  0.00  0.00    -0.047 A 
ATOM      5  C   LIG    1       27.062 -20.515   8.176  0.00  0.00    +0.004 A 
ATOM      6  C   LIG    1       25.749 -20.992   8.182  0.00  0.00    +0.005 A 
ENDROOT
BRANCH   1   8
ATOM      7  C   LIG    1       22.776 -20.912   5.883  0.00  0.00    +0.024 C 
ATOM      8  C   LIG    1       23.589 -21.616   6.976  0.00  0.00    +0.124 C 
BRANCH   8   9
ATOM      9  C   LIG    1       23.439 -23.132   6.852  0.00  0.00    +0.312 C 
ATOM     10  O   LIG    1       24.386 -23.911   6.867  0.00  0.00    -0.250 OA
BRANCH   9  11
ATOM     11  O   LIG    1       22.181 -23.580   6.638  0.00  0.00    -0.480 OA
ATOM     12  H   LIG    1       21.705 -23.860   7.445  0.00  0.00    +0.295 HD
ENDBRANCH   9  11
ENDBRANCH   8   9
ENDBRANCH   1   8
BRANCH   4  13
ATOM     13  C   LIG    1       29.113 -19.658   6.978  0.00  0.00    +0.046 C 
BRANCH  13  14
ATOM     14  C   LIG    1       29.615 -19.242   8.360  0.00  0.00    +0.059 C 
ATOM     15  C   LIG    1       31.056 -19.658   8.575  0.00  0.00    +0.137 C 
ATOM     16  O   LIG    1       31.504 -20.761   8.289  0.00  0.00    -0.297 OA
ATOM     17  C   LIG    1       31.885 -18.551   9.174  0.00  0.00    +0.075 C 
ATOM     18  C   LIG    1       30.817 -17.554   9.599  0.00  0.00    +0.008 C 
ATOM     19  C   LIG    1       29.708 -17.726   8.569  0.00  0.00    +0.012 C 
ENDBRANCH  13  14
ENDBRANCH   4  13
TORSDOF 5
ENDMDL
MODEL 3
REMARK VINA RESULT:      -8.6      3.980      7.167
REMARK  Name = *****
REMARK                            x       y       z     vdW  Elec       q    Type
REMARK                         _______ _______ _______ _____ _____    ______ ____
ROOT
ATOM      1  C   LIG    1       24.854 -25.737   5.960  0.00  0.00    -0.034 A 
ATOM      2  C   LIG    1       26.009 -25.043   6.351  0.00  0.00    +0.005 A 
ATOM      3  C   LIG    1       25.916 -23.778   6.939  0.00  0.00    +0.004 A 
ATOM      4  C   LIG    1       24.668 -23.184   7.161  0.00  0.00    -0.047 A 
ATOM      5  C   LIG    1       23.516 -23.869   6.758  0.00  0.00    +0.004 A 
ATOM      6  C   LIG    1       23.607 -25.130   6.164  0.00  0.00    +0.005 A 
ENDROOT
BRANCH   1   8
ATOM      7  C   LIG    1       26.423 -27.387   4.883  0.00  0.00    +0.024 C 
ATOM      8  C   LIG    1       24.973 -27.097   5.285  0.00  0.00    +0.124 C 
BRANCH   8   9
ATOM      9  C   LIG    1       24.409 -28.257   6.105  0.00  0.00    +0.312 C 
ATOM     10  O   LIG    1       24.821 -28.562   7.220  0.00  0.00    -0.250 OA
BRANCH   9  11
ATOM     11  O   LIG    1       23.462 -29.002   5.491  0.00  0.00    -0.480 OA
ATOM     12  H   LIG    1       22.787 -29.377   6.090  0.00  0.00    +0.295 HD
ENDBRANCH   9  11
ENDBRANCH   8   9
ENDBRANCH   1   8
BRANCH   4  13
ATOM     13  C   LIG    1       24.560 -21.825   7.812  0.00  0.00    +0.046 C 
BRANCH  13  14
ATOM     14  C   LIG    1       24.172 -20.709   6.843  0.00  0.00    +0.059 C 
ATOM     15  C   LIG    1       25.205 -20.543   5.748  0.00  0.00    +0.137 C 
ATOM     16  O   LIG    1       26.415 -20.520   5.940  0.00  0.00    -0.297 OA
ATOM     17  C   LIG    1       24.575 -20.419   4.384  0.00  0.00    +0.075 C 
ATOM     18  C   LIG    1       23.110 -20.206   4.734  0.00  0.00    +0.008 C 
ATOM     19  C   LIG    1       22.910 -20.996   6.022  0.00  0.00    +0.012 C 
ENDBRANCH  13  14
ENDBRANCH   4  13
TORSDOF 5
ENDMDL
MODEL 4
REMARK VINA RESULT:      -8.6      3.266      7.226
REMARK  Name = *****
REMARK                            x       y       z     vdW  Elec       q    Type
REMARK                         _______ _______ _______ _____ _____    ______ ____
ROOT
ATOM      1  C   LIG    1       24.867 -25.689   5.939  0.00  0.00    -0.034 A 
ATOM      2  C   LIG    1       23.616 -25.072   6.082  0.00  0.00    +0.005 A 
ATOM      3  C   LIG    1       23.500 -23.838   6.730  0.00  0.00    +0.004 A 
ATOM      4  C   LIG    1       24.631 -23.190   7.239  0.00  0.00    -0.047 A 
ATOM      5  C   LIG    1       25.877 -23.811   7.110  0.00  0.00    +0.004 A 
ATOM      6  C   LIG    1       25.996 -25.047   6.468  0.00  0.00    +0.005 A 
ENDROOT
BRANCH   1   8
ATOM      7  C   LIG    1       26.423 -27.360   4.874  0.00  0.00    +0.024 C 
ATOM      8  C   LIG    1       24.973 -27.051   5.266  0.00  0.00    +0.124 C 
BRANCH   8   9
ATOM      9  C   LIG    1       24.390 -28.203   6.084  0.00  0.00    +0.312 C 
ATOM     10  O   LIG    1       24.780 -28.503   7.207  0.00  0.00    -0.250 OA
BRANCH   9  11
ATOM     11  O   LIG    1       23.450 -28.947   5.458  0.00  0.00    -0.480 OA
ATOM     12  H   LIG    1       23.356 -29.858   5.801  0.00  0.00    +0.295 HD
ENDBRANCH   9  11
ENDBRANCH   8   9
ENDBRANCH   1   8
BRANCH   4  13
ATOM     13  C   LIG    1       24.514 -21.848   7.925  0.00  0.00    +0.046 C 
BRANCH  13  14
ATOM     14  C   LIG    1       25.096 -20.691   7.113  0.00  0.00    +0.059 C 
ATOM     15  C   LIG    1       26.545 -20.436   7.474  0.00  0.00    +0.137 C 
ATOM     16  O   LIG    1       26.971 -20.390   8.621  0.00  0.00    -0.297 OA
ATOM     17  C   LIG    1       27.412 -20.255   6.254  0.00  0.00    +0.075 C 
ATOM     18  C   LIG    1       26.375 -20.103   5.151  0.00  0.00    +0.008 C 
ATOM     19  C   LIG    1       25.207 -20.969   5.610  0.00  0.00    +0.012 C 
ENDBRANCH  13  14
ENDBRANCH   4  13
TORSDOF 5
ENDMDL
MODEL 5
REMARK VINA RESULT:      -8.6      1.331      7.065
REMARK  Name = *****
REMARK                            x       y       z     vdW  Elec       q    Type
REMARK                         _______ _______ _______ _____ _____    ______ ____
ROOT
ATOM      1  C   LIG    1       25.009 -21.064   6.963  0.00  0.00    -0.034 A 
ATOM      2  C   LIG    1       25.729 -20.980   8.163  0.00  0.00    +0.005 A 
ATOM      3  C   LIG    1       27.058 -20.545   8.170  0.00  0.00    +0.004 A 
ATOM      4  C   LIG    1       27.692 -20.173   6.979  0.00  0.00    -0.047 A 
ATOM      5  C   LIG    1       26.980 -20.270   5.778  0.00  0.00    +0.004 A 
ATOM      6  C   LIG    1       25.654 -20.710   5.769  0.00  0.00    +0.005 A 
ENDROOT
BRANCH   1   8
ATOM      7  C   LIG    1       22.742 -20.893   5.877  0.00  0.00    +0.024 C 
ATOM      8  C   LIG    1       23.575 -21.577   6.967  0.00  0.00    +0.124 C 
BRANCH   8   9
ATOM      9  C   LIG    1       23.452 -23.097   6.851  0.00  0.00    +0.312 C 
ATOM     10  O   LIG    1       24.413 -23.859   6.868  0.00  0.00    -0.250 OA
BRANCH   9  11
ATOM     11  O   LIG    1       22.201 -23.568   6.642  0.00  0.00    -0.480 OA
ATOM     12  H   LIG    1       21.515 -22.877   6.558  0.00  0.00    +0.295 HD
ENDBRANCH   9  11
ENDBRANCH   8   9
ENDBRANCH   1   8
BRANCH   4  13
ATOM     13  C   LIG    1       29.122 -19.684   6.981  0.00  0.00    +0.046 C 
BRANCH  13  14
ATOM     14  C   LIG    1       29.620 -19.249   8.359  0.00  0.00    +0.059 C 
ATOM     15  C   LIG    1       31.063 -19.655   8.580  0.00  0.00    +0.137 C 
ATOM     16  O   LIG    1       31.516 -20.760   8.309  0.00  0.00    -0.297 OA
ATOM     17  C   LIG    1       31.885 -18.537   9.168  0.00  0.00    +0.075 C 
ATOM     18  C   LIG    1       30.812 -17.540   9.579  0.00  0.00    +0.008 C 
ATOM     19  C   LIG    1       29.705 -17.731   8.549  0.00  0.00    +0.012 C 
ENDBRANCH  13  14
ENDBRANCH   4  13
TORSDOF 5
ENDMDL
MODEL 6
REMARK VINA RESULT:      -8.6      1.733      7.174
REMARK  Name = *****
REMARK                            x       y       z     vdW  Elec       q    Type
REMARK                         _______ _______ _______ _____ _____    ______ ____
ROOT
ATOM      1  C   LIG    1       25.843 -20.654   6.433  0.00  0.00    -0.034 A 
ATOM      2  C   LIG    1       26.333 -20.695   7.746  0.00  0.00    +0.005 A 
ATOM      3  C   LIG    1       27.640 -20.288   8.032  0.00  0.00    +0.004 A 
ATOM      4  C   LIG    1       28.481 -19.820   7.016  0.00  0.00    -0.047 A 
ATOM      5  C   LIG    1       27.998 -19.793   5.703  0.00  0.00    +0.004 A 
ATOM      6  C   LIG    1       26.694 -20.205   5.414  0.00  0.00    +0.005 A 
ENDROOT
BRANCH   1   8
ATOM      7  C   LIG    1       23.460 -20.737   7.247  0.00  0.00    +0.024 C 
ATOM      8  C   LIG    1       24.431 -21.138   6.131  0.00  0.00    +0.124 C 
BRANCH   8   9
ATOM      9  C   LIG    1       23.890 -20.688   4.773  0.00  0.00    +0.312 C 
ATOM     10  O   LIG    1       23.387 -19.587   4.575  0.00  0.00    -0.250 OA
BRANCH   9  11
ATOM     11  O   LIG    1       23.922 -21.619   3.793  0.00  0.00    -0.480 OA
ATOM     12  H   LIG    1       24.621 -21.483   3.124  0.00  0.00    +0.295 HD
ENDBRANCH   9  11
ENDBRANCH   8   9
ENDBRANCH   1   8
BRANCH   4  13
ATOM     13  C   LIG    1       29.888 -19.362   7.321  0.00  0.00    +0.046 C 
BRANCH  13  14
ATOM     14  C   LIG    1       30.056 -18.794   8.730  0.00  0.00    +0.059 C 
ATOM     15  C   LIG    1       31.476 -18.961   9.229  0.00  0.00    +0.137 C 
ATOM     16  O   LIG    1       32.126 -19.994   9.122  0.00  0.00    -0.297 OA
ATOM     17  C   LIG    1       32.007 -17.705   9.869  0.00  0.00    +0.075 C 
ATOM     18  C   LIG    1       30.745 -16.868  10.012  0.00  0.00    +0.008 C 
ATOM     19  C   LIG    1       29.886 -17.273   8.821  0.00  0.00    +0.012 C 
ENDBRANCH  13  14
ENDBRANCH   4  13
TORSDOF 5
ENDMDL
MODEL 7
REMARK VINA RESULT:      -8.4      4.157      6.535
REMARK  Name = *****
REMARK                            x       y       z     vdW  Elec       q    Type
REMARK                         _______ _______ _______ _____ _____    ______ ____
ROOT
ATOM      1  C   LIG    1       25.019 -25.255   6.602  0.00  0.00    -0.034 A 
ATOM      2  C   LIG    1       23.669 -24.929   6.408  0.00  0.00    +0.005 A 
ATOM      3  C   LIG    1       23.196 -23.646   6.700  0.00  0.00    +0.004 A 
ATOM      4  C   LIG    1       24.063 -22.658   7.180  0.00  0.00    -0.047 A 
ATOM      5  C   LIG    1       25.407 -22.986   7.388  0.00  0.00    +0.004 A 
ATOM      6  C   LIG    1       25.881 -24.269   7.103  0.00  0.00    +0.005 A 
ENDROOT
BRANCH   1   8
ATOM      7  C   LIG    1       24.338 -27.642   6.174  0.00  0.00    +0.024 C 
ATOM      8  C   LIG    1       25.512 -26.667   6.317  0.00  0.00    +0.124 C 
BRANCH   8   9
ATOM      9  C   LIG    1       26.440 -26.777   5.106  0.00  0.00    +0.312 C 
ATOM     10  O   LIG    1       26.047 -26.743   3.945  0.00  0.00    -0.250 OA
BRANCH   9  11
ATOM     11  O   LIG    1       27.744 -27.000   5.388  0.00  0.00    -0.480 OA
ATOM     12  H   LIG    1       28.318 -27.100   4.603  0.00  0.00    +0.295 HD
ENDBRANCH   9  11
ENDBRANCH   8   9
ENDBRANCH   1   8
BRANCH   4  13
ATOM     13  C   LIG    1       23.562 -21.265   7.481  0.00  0.00    +0.046 C 
BRANCH  13  14
ATOM     14  C   LIG    1       23.525 -20.349   6.258  0.00  0.00    +0.059 C 
ATOM     15  C   LIG    1       24.856 -20.335   5.535  0.00  0.00    +0.137 C 
ATOM     16  O   LIG    1       25.941 -20.232   6.094  0.00  0.00    -0.297 OA
ATOM     17  C   LIG    1       24.696 -20.473   4.043  0.00  0.00    +0.075 C 
ATOM     18  C   LIG    1       23.200 -20.261   3.867  0.00  0.00    +0.008 C 
ATOM     19  C   LIG    1       22.586 -20.823   5.143  0.00  0.00    +0.012 C 
ENDBRANCH  13  14
ENDBRANCH   4  13
TORSDOF 5
ENDMDL
MODEL 8
REMARK VINA RESULT:      -8.2      2.076      2.858
REMARK  Name = *****
REMARK                            x       y       z     vdW  Elec       q    Type
REMARK                         _______ _______ _______ _____ _____    ______ ____
ROOT
ATOM      1  C   LIG    1       29.534 -20.330   7.295  0.00  0.00    -0.034 A 
ATOM      2  C   LIG    1       28.868 -19.583   6.312  0.00  0.00    +0.005 A 
ATOM      3  C   LIG    1       27.579 -19.936   5.901  0.00  0.00    +0.004 A 
ATOM      4  C   LIG    1       26.923 -21.033   6.470  0.00  0.00    -0.047 A 
ATOM      5  C   LIG    1       27.592 -21.788   7.439  0.00  0.00    +0.004 A 
ATOM      6  C   LIG    1       28.883 -21.442   7.848  0.00  0.00    +0.005 A 
ENDROOT
BRANCH   1   8
ATOM      7  C   LIG    1       31.243 -18.482   7.409  0.00  0.00    +0.024 C 
ATOM      8  C   LIG    1       30.953 -19.958   7.705  0.00  0.00    +0.124 C 
BRANCH   8   9
ATOM      9  C   LIG    1       31.291 -20.281   9.161  0.00  0.00    +0.312 C 
ATOM     10  O   LIG    1       30.847 -19.654  10.116  0.00  0.00    -0.250 OA
BRANCH   9  11
ATOM     11  O   LIG    1       32.194 -21.272   9.345  0.00  0.00    -0.480 OA
ATOM     12  H   LIG    1       33.124 -20.973   9.385  0.00  0.00    +0.295 HD
ENDBRANCH   9  11
ENDBRANCH   8   9
ENDBRANCH   1   8
BRANCH   4  13
ATOM     13  C   LIG    1       25.523 -21.409   6.042  0.00  0.00    +0.046 C 
BRANCH  13  14
ATOM     14  C   LIG    1       24.622 -20.205   5.768  0.00  0.00    +0.059 C 
ATOM     15  C   LIG    1       24.428 -19.985   4.282  0.00  0.00    +0.137 C 
ATOM     16  O   LIG    1       25.333 -20.018   3.457  0.00  0.00    -0.297 OA
ATOM     17  C   LIG    1       22.986 -19.729   3.927  0.00  0.00    +0.075 C 
ATOM     18  C   LIG    1       22.363 -19.497   5.295  0.00  0.00    +0.008 C 
ATOM     19  C   LIG    1       23.173 -20.382   6.235  0.00  0.00    +0.012 C 
ENDBRANCH  13  14
ENDBRANCH   4  13
TORSDOF 5
ENDMDL
MODEL 9
REMARK VINA RESULT:      -7.9      2.168      7.019
REMARK  Name = *****
REMARK                            x       y       z     vdW  Elec       q    Type
REMARK                         _______ _______ _______ _____ _____    ______ ____
ROOT
ATOM      1  C   LIG    1       24.857 -22.960   6.780  0.00  0.00    -0.034 A 
ATOM      2  C   LIG    1       26.146 -23.155   7.297  0.00  0.00    +0.005 A 
ATOM      3  C   LIG    1       27.104 -22.138   7.226  0.00  0.00    +0.004 A 
ATOM      4  C   LIG    1       26.791 -20.903   6.648  0.00  0.00    -0.047 A 
ATOM      5  C   LIG    1       25.511 -20.712   6.118  0.00  0.00    +0.004 A 
ATOM      6  C   LIG    1       24.553 -21.729   6.182  0.00  0.00    +0.005 A 
ENDROOT
BRANCH   1   8
ATOM      7  C   LIG    1       22.416 -23.559   6.605  0.00  0.00    +0.024 C 
ATOM      8  C   LIG    1       23.837 -24.090   6.828  0.00  0.00    +0.124 C 
BRANCH   8   9
ATOM      9  C   LIG    1       24.128 -25.241   5.865  0.00  0.00    +0.312 C 
ATOM     10  O   LIG    1       23.967 -26.423   6.153  0.00  0.00    -0.250 OA
BRANCH   9  11
ATOM     11  O   LIG    1       24.662 -24.887   4.674  0.00  0.00    -0.480 OA
ATOM     12  H   LIG    1       24.096 -24.304   4.132  0.00  0.00    +0.295 HD
ENDBRANCH   9  11
ENDBRANCH   8   9
ENDBRANCH   1   8
BRANCH   4  13
ATOM     13  C   LIG    1       27.816 -19.794   6.584  0.00  0.00    +0.046 C 
BRANCH  13  14
ATOM     14  C   LIG    1       29.256 -20.280   6.746  0.00  0.00    +0.059 C 
ATOM     15  C   LIG    1       30.249 -19.161   6.505  0.00  0.00    +0.137 C 
ATOM     16  O   LIG    1       30.183 -18.372   5.571  0.00  0.00    -0.297 OA
ATOM     17  C   LIG    1       31.328 -19.121   7.556  0.00  0.00    +0.075 C 
ATOM     18  C   LIG    1       31.123 -20.450   8.268  0.00  0.00    +0.008 C 
ATOM     19  C   LIG    1       29.623 -20.702   8.173  0.00  0.00    +0.012 C 
ENDBRANCH  13  14
ENDBRANCH   4  13
TORSDOF 5
ENDMDL
