MODEL 1
REMARK VINA RESULT:      -1.9      0.000      0.000
REMARK  Name = *****
REMARK                            x       y       z     vdW  Elec       q    Type
REMARK                         _______ _______ _______ _____ _____    ______ ____
ROOT
ATOM      1  N   LIG    1       25.812 -18.761   4.400  0.00  0.00    -0.298 N 
ATOM      2  C   LIG    1       24.485 -19.241   4.654  0.00  0.00    +0.049 A 
ATOM      3  C   LIG    1       24.220 -20.197   5.667  0.00  0.00    +0.034 A 
ATOM      4  C   LIG    1       22.934 -20.742   5.871  0.00  0.00    +0.018 A 
ATOM      5  C   LIG    1       21.856 -20.319   5.113  0.00  0.00    +0.020 A 
ATOM      6  C   LIG    1       22.062 -19.351   4.140  0.00  0.00    +0.054 A 
ATOM      7  S   LIG    1       25.415 -20.758   6.848  0.00  0.00    -0.086 S 
ATOM      8  C   LIG    1       26.914 -20.082   6.204  0.00  0.00    +0.034 A 
ATOM      9  C   LIG    1       28.068 -20.437   6.934  0.00  0.00    +0.017 A 
ATOM     10  C   LIG    1       29.328 -20.045   6.513  0.00  0.00    +0.001 A 
ATOM     11  C   LIG    1       29.443 -19.359   5.318  0.00  0.00    +0.002 A 
ATOM     12  C   LIG    1       28.295 -18.999   4.595  0.00  0.00    +0.024 A 
ATOM     13  C   LIG    1       23.356 -18.835   3.907  0.00  0.00    +0.043 A 
ATOM     14  C   LIG    1       26.987 -19.270   5.050  0.00  0.00    +0.048 A 
ENDROOT
BRANCH   6  15
ATOM     15  C   LIG    1       20.934 -18.869   3.389  0.00  0.00    +0.099 C 
ATOM     16  N   LIG    1       20.022 -18.467   2.809  0.00  0.00    -0.191 NA
ENDBRANCH   6  15
BRANCH   1  17
ATOM     17  C   LIG    1       26.000 -17.612   3.442  0.00  0.00    +0.115 C 
BRANCH  17  19
ATOM     18  C   LIG    1       24.771 -15.376   3.611  0.00  0.00    +0.010 C 
ATOM     19  C   LIG    1       25.998 -16.192   4.089  0.00  0.00    +0.018 C 
BRANCH  19  20
ATOM     20  C   LIG    1       27.281 -15.391   3.755  0.00  0.00    +0.088 C 
BRANCH  20  21
ATOM     21  N   LIG    1       27.200 -13.943   4.048  0.00  0.00    -0.308 NA
ATOM     22  C   LIG    1       28.427 -13.260   3.642  0.00  0.00    +0.104 C 
ATOM     23  C   LIG    1       26.894 -13.678   5.455  0.00  0.00    +0.104 C 
ENDBRANCH  20  21
ENDBRANCH  19  20
ENDBRANCH  17  19
ENDBRANCH   1  17
TORSDOF 5
ENDMDL
MODEL 2
REMARK VINA RESULT:      -1.2      2.242      5.204
REMARK  Name = *****
REMARK                            x       y       z     vdW  Elec       q    Type
REMARK                         _______ _______ _______ _____ _____    ______ ____
ROOT
ATOM      1  N   LIG    1       25.776 -16.890   3.797  0.00  0.00    -0.298 N 
ATOM      2  C   LIG    1       24.426 -17.304   4.055  0.00  0.00    +0.049 A 
ATOM      3  C   LIG    1       23.358 -16.373   4.101  0.00  0.00    +0.034 A 
ATOM      4  C   LIG    1       22.042 -16.755   4.438  0.00  0.00    +0.018 A 
ATOM      5  C   LIG    1       21.729 -18.079   4.690  0.00  0.00    +0.020 A 
ATOM      6  C   LIG    1       22.737 -19.030   4.612  0.00  0.00    +0.054 A 
ATOM      7  S   LIG    1       23.502 -14.664   3.661  0.00  0.00    -0.086 S 
ATOM      8  C   LIG    1       25.252 -14.470   3.510  0.00  0.00    +0.034 A 
ATOM      9  C   LIG    1       25.663 -13.151   3.222  0.00  0.00    +0.017 A 
ATOM     10  C   LIG    1       27.007 -12.823   3.145  0.00  0.00    +0.001 A 
ATOM     11  C   LIG    1       27.944 -13.799   3.429  0.00  0.00    +0.002 A 
ATOM     12  C   LIG    1       27.535 -15.113   3.709  0.00  0.00    +0.024 A 
ATOM     13  C   LIG    1       24.063 -18.644   4.316  0.00  0.00    +0.043 A 
ATOM     14  C   LIG    1       26.183 -15.518   3.676  0.00  0.00    +0.048 A 
ENDROOT
BRANCH   6  15
ATOM     15  C   LIG    1       22.405 -20.414   4.818  0.00  0.00    +0.099 C 
ATOM     16  N   LIG    1       22.131 -21.518   5.010  0.00  0.00    -0.191 NA
ENDBRANCH   6  15
BRANCH   1  17
ATOM     17  C   LIG    1       26.831 -17.943   3.576  0.00  0.00    +0.115 C 
BRANCH  17  19
ATOM     18  C   LIG    1       29.019 -18.238   4.866  0.00  0.00    +0.010 C 
ATOM     19  C   LIG    1       27.494 -18.510   4.870  0.00  0.00    +0.018 C 
BRANCH  19  20
ATOM     20  C   LIG    1       27.267 -20.035   5.028  0.00  0.00    +0.088 C 
BRANCH  20  21
ATOM     21  N   LIG    1       26.875 -20.463   6.388  0.00  0.00    -0.308 NA
ATOM     22  C   LIG    1       27.983 -21.137   7.062  0.00  0.00    +0.104 C 
ATOM     23  C   LIG    1       25.677 -21.304   6.380  0.00  0.00    +0.104 C 
ENDBRANCH  20  21
ENDBRANCH  19  20
ENDBRANCH  17  19
ENDBRANCH   1  17
TORSDOF 5
ENDMDL
MODEL 3
REMARK VINA RESULT:      -1.0      1.629      5.155
REMARK  Name = *****
REMARK                            x       y       z     vdW  Elec       q    Type
REMARK                         _______ _______ _______ _____ _____    ______ ____
ROOT
ATOM      1  N   LIG    1       24.096 -18.909   4.177  0.00  0.00    -0.298 N 
ATOM      2  C   LIG    1       24.841 -19.747   5.072  0.00  0.00    +0.049 A 
ATOM      3  C   LIG    1       24.224 -20.797   5.797  0.00  0.00    +0.034 A 
ATOM      4  C   LIG    1       24.926 -21.572   6.745  0.00  0.00    +0.018 A 
ATOM      5  C   LIG    1       26.277 -21.368   6.967  0.00  0.00    +0.020 A 
ATOM      6  C   LIG    1       26.931 -20.379   6.247  0.00  0.00    +0.054 A 
ATOM      7  S   LIG    1       22.553 -21.331   5.554  0.00  0.00    -0.086 S 
ATOM      8  C   LIG    1       21.911 -20.062   4.505  0.00  0.00    +0.034 A 
ATOM      9  C   LIG    1       20.541 -20.206   4.199  0.00  0.00    +0.017 A 
ATOM     10  C   LIG    1       19.874 -19.253   3.447  0.00  0.00    +0.001 A 
ATOM     11  C   LIG    1       20.559 -18.115   3.062  0.00  0.00    +0.002 A 
ATOM     12  C   LIG    1       21.923 -17.975   3.362  0.00  0.00    +0.024 A 
ATOM     13  C   LIG    1       26.220 -19.574   5.328  0.00  0.00    +0.043 A 
ATOM     14  C   LIG    1       22.670 -18.977   4.017  0.00  0.00    +0.048 A 
ENDROOT
BRANCH   6  15
ATOM     15  C   LIG    1       28.345 -20.201   6.435  0.00  0.00    +0.099 C 
ATOM     16  N   LIG    1       29.475 -20.043   6.609  0.00  0.00    -0.191 NA
ENDBRANCH   6  15
BRANCH   1  17
ATOM     17  C   LIG    1       24.841 -17.937   3.298  0.00  0.00    +0.115 C 
BRANCH  17  19
ATOM     18  C   LIG    1       24.102 -15.620   4.088  0.00  0.00    +0.010 C 
ATOM     19  C   LIG    1       25.288 -16.612   3.992  0.00  0.00    +0.018 C 
BRANCH  19  20
ATOM     20  C   LIG    1       26.451 -15.917   3.241  0.00  0.00    +0.088 C 
BRANCH  20  21
ATOM     21  N   LIG    1       26.558 -14.462   3.480  0.00  0.00    -0.308 NA
ATOM     22  C   LIG    1       26.242 -13.710   2.266  0.00  0.00    +0.104 C 
ATOM     23  C   LIG    1       27.870 -14.081   4.005  0.00  0.00    +0.104 C 
ENDBRANCH  20  21
ENDBRANCH  19  20
ENDBRANCH  17  19
ENDBRANCH   1  17
TORSDOF 5
ENDMDL
MODEL 4
REMARK VINA RESULT:      -0.6      2.069      6.189
REMARK  Name = *****
REMARK                            x       y       z     vdW  Elec       q    Type
REMARK                         _______ _______ _______ _____ _____    ______ ____
ROOT
ATOM      1  N   LIG    1       25.459 -17.644   3.698  0.00  0.00    -0.298 N 
ATOM      2  C   LIG    1       25.422 -16.210   3.743  0.00  0.00    +0.049 A 
ATOM      3  C   LIG    1       24.223 -15.505   4.015  0.00  0.00    +0.034 A 
ATOM      4  C   LIG    1       24.153 -14.096   3.977  0.00  0.00    +0.018 A 
ATOM      5  C   LIG    1       25.281 -13.336   3.720  0.00  0.00    +0.020 A 
ATOM      6  C   LIG    1       26.486 -13.985   3.492  0.00  0.00    +0.054 A 
ATOM      7  S   LIG    1       22.707 -16.270   4.519  0.00  0.00    -0.086 S 
ATOM      8  C   LIG    1       23.055 -17.982   4.261  0.00  0.00    +0.034 A 
ATOM      9  C   LIG    1       21.966 -18.839   4.528  0.00  0.00    +0.017 A 
ATOM     10  C   LIG    1       22.059 -20.203   4.304  0.00  0.00    +0.001 A 
ATOM     11  C   LIG    1       23.218 -20.703   3.741  0.00  0.00    +0.002 A 
ATOM     12  C   LIG    1       24.304 -19.852   3.481  0.00  0.00    +0.024 A 
ATOM     13  C   LIG    1       26.549 -15.396   3.488  0.00  0.00    +0.043 A 
ATOM     14  C   LIG    1       24.297 -18.479   3.808  0.00  0.00    +0.048 A 
ENDROOT
BRANCH   6  15
ATOM     15  C   LIG    1       27.671 -13.198   3.280  0.00  0.00    +0.099 C 
ATOM     16  N   LIG    1       28.635 -12.585   3.126  0.00  0.00    -0.191 NA
ENDBRANCH   6  15
BRANCH   1  17
ATOM     17  C   LIG    1       26.795 -18.335   3.591  0.00  0.00    +0.115 C 
BRANCH  17  19
ATOM     18  C   LIG    1       28.792 -18.248   5.186  0.00  0.00    +0.010 C 
ATOM     19  C   LIG    1       27.390 -18.858   4.935  0.00  0.00    +0.018 C 
BRANCH  19  20
ATOM     20  C   LIG    1       27.512 -20.402   4.964  0.00  0.00    +0.088 C 
BRANCH  20  21
ATOM     21  N   LIG    1       27.424 -21.004   6.312  0.00  0.00    -0.308 NA
ATOM     22  C   LIG    1       26.302 -20.440   7.062  0.00  0.00    +0.104 C 
ATOM     23  C   LIG    1       28.674 -20.872   7.062  0.00  0.00    +0.104 C 
ENDBRANCH  20  21
ENDBRANCH  19  20
ENDBRANCH  17  19
ENDBRANCH   1  17
TORSDOF 5
ENDMDL
MODEL 5
REMARK VINA RESULT:       0.5      1.819      5.201
REMARK  Name = *****
REMARK                            x       y       z     vdW  Elec       q    Type
REMARK                         _______ _______ _______ _____ _____    ______ ____
ROOT
ATOM      1  N   LIG    1       26.177 -18.395   4.285  0.00  0.00    -0.298 N 
ATOM      2  C   LIG    1       26.607 -17.054   4.012  0.00  0.00    +0.049 A 
ATOM      3  C   LIG    1       27.873 -16.578   4.438  0.00  0.00    +0.034 A 
ATOM      4  C   LIG    1       28.273 -15.237   4.253  0.00  0.00    +0.018 A 
ATOM      5  C   LIG    1       27.456 -14.336   3.592  0.00  0.00    +0.020 A 
ATOM      6  C   LIG    1       26.226 -14.773   3.120  0.00  0.00    +0.054 A 
ATOM      7  S   LIG    1       29.132 -17.593   5.159  0.00  0.00    -0.086 S 
ATOM      8  C   LIG    1       28.265 -19.105   5.445  0.00  0.00    +0.034 A 
ATOM      9  C   LIG    1       29.033 -20.097   6.090  0.00  0.00    +0.017 A 
ATOM     10  C   LIG    1       28.474 -21.312   6.450  0.00  0.00    +0.001 A 
ATOM     11  C   LIG    1       27.123 -21.510   6.231  0.00  0.00    +0.002 A 
ATOM     12  C   LIG    1       26.360 -20.525   5.584  0.00  0.00    +0.024 A 
ATOM     13  C   LIG    1       25.806 -16.103   3.341  0.00  0.00    +0.043 A 
ATOM     14  C   LIG    1       26.916 -19.326   5.091  0.00  0.00    +0.048 A 
ENDROOT
BRANCH   6  15
ATOM     15  C   LIG    1       25.398 -13.855   2.385  0.00  0.00    +0.099 C 
ATOM     16  N   LIG    1       24.743 -13.098   1.812  0.00  0.00    -0.191 NA
ENDBRANCH   6  15
BRANCH   1  17
ATOM     17  C   LIG    1       24.906 -18.896   3.646  0.00  0.00    +0.115 C 
BRANCH  17  19
ATOM     18  C   LIG    1       23.781 -21.190   3.755  0.00  0.00    +0.010 C 
ATOM     19  C   LIG    1       24.056 -19.871   4.519  0.00  0.00    +0.018 C 
BRANCH  19  20
ATOM     20  C   LIG    1       22.698 -19.254   4.939  0.00  0.00    +0.088 C 
BRANCH  20  21
ATOM     21  N   LIG    1       22.201 -18.187   4.043  0.00  0.00    -0.308 NA
ATOM     22  C   LIG    1       22.316 -16.876   4.679  0.00  0.00    +0.104 C 
ATOM     23  C   LIG    1       20.829 -18.434   3.595  0.00  0.00    +0.104 C 
ENDBRANCH  20  21
ENDBRANCH  19  20
ENDBRANCH  17  19
ENDBRANCH   1  17
TORSDOF 5
ENDMDL
