MODEL 1
REMARK VINA RESULT:      -3.9      0.000      0.000
REMARK  Name = *****
REMARK                            x       y       z     vdW  Elec       q    Type
REMARK                         _______ _______ _______ _____ _____    ______ ____
ROOT
ATOM      1  C   LIG    1       24.422 -14.075   3.464  0.00  0.00    +0.050 C 
ATOM      2  C   LIG    1       25.092 -13.472   4.719  0.00  0.00    +0.065 C 
ATOM      3  C   LIG    1       24.364 -12.149   4.843  0.00  0.00    +0.140 C 
ATOM      4  O   LIG    1       24.386 -11.453   5.854  0.00  0.00    -0.297 OA
ATOM      5  C   LIG    1       23.579 -11.775   3.614  0.00  0.00    +0.106 C 
ATOM      6  C   LIG    1       23.975 -12.862   2.624  0.00  0.00    +0.129 C 
ENDROOT
BRANCH   6   7
ATOM      7  O   LIG    1       25.056 -12.411   1.812  0.00  0.00    -0.391 OA
ATOM      8  H   LIG    1       25.251 -11.488   2.064  0.00  0.00    +0.210 HD
ENDBRANCH   6   7
BRANCH   1  10
ATOM      9  C   LIG    1       23.306 -16.113   4.472  0.00  0.00    -0.028 C 
ATOM     10  C   LIG    1       23.225 -14.929   3.843  0.00  0.00    -0.024 C 
BRANCH   9  11
ATOM     11  C   LIG    1       22.085 -16.916   4.870  0.00  0.00    +0.061 C 
BRANCH  11  12
ATOM     12  C   LIG    1       22.095 -18.384   4.364  0.00  0.00    +0.067 C 
ATOM     13  C   LIG    1       20.777 -18.744   3.662  0.00  0.00    +0.041 C 
BRANCH  12  14
ATOM     14  O   LIG    1       23.164 -18.562   3.428  0.00  0.00    -0.389 OA
ATOM     15  H   LIG    1       22.863 -19.207   2.764  0.00  0.00    +0.210 HD
ENDBRANCH  12  14
BRANCH  12  16
ATOM     16  C   LIG    1       22.324 -19.389   5.515  0.00  0.00    +0.035 C 
BRANCH  16  17
ATOM     17  C   LIG    1       22.425 -20.865   5.099  0.00  0.00    +0.002 C 
BRANCH  17  19
ATOM     18  C   LIG    1       24.207 -20.980   6.920  0.00  0.00    +0.004 C 
ATOM     19  C   LIG    1       23.724 -21.522   5.583  0.00  0.00    -0.003 C 
ENDBRANCH  17  19
ENDBRANCH  16  17
ENDBRANCH  12  16
ENDBRANCH  11  12
ENDBRANCH   9  11
ENDBRANCH   1  10
BRANCH   2  20
ATOM     20  C   LIG    1       26.612 -13.225   4.631  0.00  0.00    +0.011 C 
BRANCH  20  21
ATOM     21  C   LIG    1       27.339 -14.249   3.744  0.00  0.00    +0.001 C 
BRANCH  21  22
ATOM     22  C   LIG    1       27.612 -15.615   4.408  0.00  0.00    +0.000 C 
BRANCH  22  23
ATOM     23  C   LIG    1       27.360 -16.813   3.482  0.00  0.00    +0.000 C 
BRANCH  23  24
ATOM     24  C   LIG    1       26.222 -17.729   3.962  0.00  0.00    +0.011 C 
BRANCH  24  25
ATOM     25  C   LIG    1       26.698 -19.173   4.166  0.00  0.00    +0.120 C 
BRANCH  25  26
ATOM     26  C   LIG    1       27.831 -19.249   5.191  0.00  0.00    +0.307 C 
ATOM     27  O   LIG    1       28.848 -18.579   5.170  0.00  0.00    -0.251 OA
BRANCH  26  28
ATOM     28  O   LIG    1       27.521 -20.228   6.105  0.00  0.00    -0.468 OA
ATOM     29  C   LIG    1       28.651 -20.794   6.779  0.00  0.00    +0.280 C 
ENDBRANCH  26  28
ENDBRANCH  25  26
ENDBRANCH  24  25
ENDBRANCH  23  24
ENDBRANCH  22  23
ENDBRANCH  21  22
ENDBRANCH  20  21
ENDBRANCH   2  20
TORSDOF 16
ENDMDL
MODEL 2
REMARK VINA RESULT:      -3.2      1.963      7.707
REMARK  Name = *****
REMARK                            x       y       z     vdW  Elec       q    Type
REMARK                         _______ _______ _______ _____ _____    ______ ____
ROOT
ATOM      1  C   LIG    1       24.364 -19.465   3.498  0.00  0.00    +0.050 C 
ATOM      2  C   LIG    1       23.450 -19.325   4.737  0.00  0.00    +0.065 C 
ATOM      3  C   LIG    1       23.846 -20.547   5.542  0.00  0.00    +0.140 C 
ATOM      4  O   LIG    1       23.565 -20.701   6.727  0.00  0.00    -0.297 OA
ATOM      5  C   LIG    1       24.647 -21.552   4.758  0.00  0.00    +0.106 C 
ATOM      6  C   LIG    1       24.609 -20.980   3.347  0.00  0.00    +0.129 C 
ENDROOT
BRANCH   6   7
ATOM      7  O   LIG    1       23.542 -21.572   2.610  0.00  0.00    -0.391 OA
ATOM      8  H   LIG    1       23.650 -21.315   1.675  0.00  0.00    +0.210 HD
ENDBRANCH   6   7
BRANCH   1  10
ATOM      9  C   LIG    1       25.894 -17.452   3.359  0.00  0.00    -0.028 C 
ATOM     10  C   LIG    1       25.677 -18.732   3.704  0.00  0.00    -0.024 C 
BRANCH   9  11
ATOM     11  C   LIG    1       27.207 -16.743   3.620  0.00  0.00    +0.061 C 
BRANCH  11  12
ATOM     12  C   LIG    1       27.094 -15.196   3.678  0.00  0.00    +0.067 C 
ATOM     13  C   LIG    1       26.477 -14.629   2.390  0.00  0.00    +0.041 C 
BRANCH  12  14
ATOM     14  O   LIG    1       26.260 -14.816   4.778  0.00  0.00    -0.389 OA
ATOM     15  H   LIG    1       26.678 -15.153   5.590  0.00  0.00    +0.210 HD
ENDBRANCH  12  14
BRANCH  12  16
ATOM     16  C   LIG    1       28.468 -14.524   3.895  0.00  0.00    +0.035 C 
BRANCH  16  17
ATOM     17  C   LIG    1       28.636 -13.132   3.267  0.00  0.00    +0.002 C 
BRANCH  17  19
ATOM     18  C   LIG    1       28.315 -12.176   5.610  0.00  0.00    +0.004 C 
ATOM     19  C   LIG    1       29.069 -12.075   4.292  0.00  0.00    -0.003 C 
ENDBRANCH  17  19
ENDBRANCH  16  17
ENDBRANCH  12  16
ENDBRANCH  11  12
ENDBRANCH   9  11
ENDBRANCH   1  10
BRANCH   2  20
ATOM     20  C   LIG    1       21.931 -19.344   4.473  0.00  0.00    +0.011 C 
BRANCH  20  21
ATOM     21  C   LIG    1       21.369 -17.964   4.090  0.00  0.00    +0.001 C 
BRANCH  21  22
ATOM     22  C   LIG    1       22.006 -16.769   4.829  0.00  0.00    +0.000 C 
BRANCH  22  23
ATOM     23  C   LIG    1       22.897 -15.894   3.937  0.00  0.00    +0.000 C 
BRANCH  23  24
ATOM     24  C   LIG    1       23.241 -14.532   4.563  0.00  0.00    +0.011 C 
BRANCH  24  25
ATOM     25  C   LIG    1       23.406 -13.440   3.498  0.00  0.00    +0.120 C 
BRANCH  25  26
ATOM     26  C   LIG    1       24.092 -12.199   4.073  0.00  0.00    +0.307 C 
ATOM     27  O   LIG    1       23.832 -11.681   5.144  0.00  0.00    -0.251 OA
BRANCH  26  28
ATOM     28  O   LIG    1       25.011 -11.750   3.156  0.00  0.00    -0.468 OA
ATOM     29  C   LIG    1       24.523 -11.666   1.812  0.00  0.00    +0.280 C 
ENDBRANCH  26  28
ENDBRANCH  25  26
ENDBRANCH  24  25
ENDBRANCH  23  24
ENDBRANCH  22  23
ENDBRANCH  21  22
ENDBRANCH  20  21
ENDBRANCH   2  20
TORSDOF 16
ENDMDL
MODEL 3
REMARK VINA RESULT:      -2.8      1.229      1.953
REMARK  Name = *****
REMARK                            x       y       z     vdW  Elec       q    Type
REMARK                         _______ _______ _______ _____ _____    ______ ____
ROOT
ATOM      1  C   LIG    1       24.545 -14.444   3.717  0.00  0.00    +0.050 C 
ATOM      2  C   LIG    1       25.365 -13.742   4.822  0.00  0.00    +0.065 C 
ATOM      3  C   LIG    1       24.658 -12.404   4.917  0.00  0.00    +0.140 C 
ATOM      4  O   LIG    1       24.805 -11.623   5.852  0.00  0.00    -0.297 OA
ATOM      5  C   LIG    1       23.729 -12.131   3.764  0.00  0.00    +0.106 C 
ATOM      6  C   LIG    1       24.000 -13.305   2.833  0.00  0.00    +0.129 C 
ENDROOT
BRANCH   6   7
ATOM      7  O   LIG    1       24.974 -12.940   1.859  0.00  0.00    -0.391 OA
ATOM      8  H   LIG    1       24.548 -12.330   1.228  0.00  0.00    +0.210 HD
ENDBRANCH   6   7
BRANCH   1  10
ATOM      9  C   LIG    1       23.239 -16.571   4.149  0.00  0.00    -0.028 C 
ATOM     10  C   LIG    1       23.403 -15.248   4.313  0.00  0.00    -0.024 C 
BRANCH   9  11
ATOM     11  C   LIG    1       22.108 -17.343   4.796  0.00  0.00    +0.061 C 
BRANCH  11  12
ATOM     12  C   LIG    1       22.096 -18.859   4.457  0.00  0.00    +0.067 C 
ATOM     13  C   LIG    1       22.426 -19.711   5.692  0.00  0.00    +0.041 C 
BRANCH  12  14
ATOM     14  O   LIG    1       20.798 -19.236   3.987  0.00  0.00    -0.389 OA
ATOM     15  H   LIG    1       20.781 -19.083   3.026  0.00  0.00    +0.210 HD
ENDBRANCH  12  14
BRANCH  12  16
ATOM     16  C   LIG    1       23.105 -19.209   3.342  0.00  0.00    +0.035 C 
BRANCH  16  17
ATOM     17  C   LIG    1       24.188 -20.232   3.719  0.00  0.00    +0.002 C 
BRANCH  17  19
ATOM     18  C   LIG    1       25.651 -18.180   3.323  0.00  0.00    +0.004 C 
ATOM     19  C   LIG    1       25.607 -19.691   3.501  0.00  0.00    -0.003 C 
ENDBRANCH  17  19
ENDBRANCH  16  17
ENDBRANCH  12  16
ENDBRANCH  11  12
ENDBRANCH   9  11
ENDBRANCH   1  10
BRANCH   2  20
ATOM     20  C   LIG    1       26.863 -13.521   4.528  0.00  0.00    +0.011 C 
BRANCH  20  21
ATOM     21  C   LIG    1       27.473 -14.623   3.646  0.00  0.00    +0.001 C 
BRANCH  21  22
ATOM     22  C   LIG    1       28.668 -15.374   4.267  0.00  0.00    +0.000 C 
BRANCH  22  23
ATOM     23  C   LIG    1       28.260 -16.473   5.258  0.00  0.00    +0.000 C 
BRANCH  23  24
ATOM     24  C   LIG    1       28.854 -17.852   4.923  0.00  0.00    +0.011 C 
BRANCH  24  25
ATOM     25  C   LIG    1       29.466 -18.526   6.158  0.00  0.00    +0.120 C 
BRANCH  25  26
ATOM     26  C   LIG    1       28.871 -19.917   6.387  0.00  0.00    +0.307 C 
ATOM     27  O   LIG    1       29.469 -20.873   6.847  0.00  0.00    -0.251 OA
BRANCH  26  28
ATOM     28  O   LIG    1       27.571 -19.908   5.945  0.00  0.00    -0.468 OA
ATOM     29  C   LIG    1       26.614 -20.391   6.895  0.00  0.00    +0.280 C 
ENDBRANCH  26  28
ENDBRANCH  25  26
ENDBRANCH  24  25
ENDBRANCH  23  24
ENDBRANCH  22  23
ENDBRANCH  21  22
ENDBRANCH  20  21
ENDBRANCH   2  20
TORSDOF 16
ENDMDL
MODEL 4
REMARK VINA RESULT:      -2.6      1.670      6.575
REMARK  Name = *****
REMARK                            x       y       z     vdW  Elec       q    Type
REMARK                         _______ _______ _______ _____ _____    ______ ____
ROOT
ATOM      1  C   LIG    1       24.264 -18.861   4.476  0.00  0.00    +0.050 C 
ATOM      2  C   LIG    1       24.457 -20.366   4.181  0.00  0.00    +0.065 C 
ATOM      3  C   LIG    1       23.471 -20.579   3.050  0.00  0.00    +0.140 C 
ATOM      4  O   LIG    1       23.475 -21.568   2.323  0.00  0.00    -0.297 OA
ATOM      5  C   LIG    1       22.496 -19.446   2.878  0.00  0.00    +0.106 C 
ATOM      6  C   LIG    1       22.808 -18.555   4.073  0.00  0.00    +0.129 C 
ENDROOT
BRANCH   6   7
ATOM      7  O   LIG    1       21.932 -18.865   5.154  0.00  0.00    -0.391 OA
ATOM      8  H   LIG    1       21.835 -19.836   5.188  0.00  0.00    +0.210 HD
ENDBRANCH   6   7
BRANCH   1  10
ATOM      9  C   LIG    1       25.321 -16.680   3.739  0.00  0.00    -0.028 C 
ATOM     10  C   LIG    1       25.229 -18.018   3.662  0.00  0.00    -0.024 C 
BRANCH   9  11
ATOM     11  C   LIG    1       26.327 -15.879   2.940  0.00  0.00    +0.061 C 
BRANCH  11  12
ATOM     12  C   LIG    1       26.363 -14.367   3.294  0.00  0.00    +0.067 C 
ATOM     13  C   LIG    1       27.772 -13.923   3.714  0.00  0.00    +0.041 C 
BRANCH  12  14
ATOM     14  O   LIG    1       25.973 -13.597   2.151  0.00  0.00    -0.389 OA
ATOM     15  H   LIG    1       25.174 -13.097   2.396  0.00  0.00    +0.210 HD
ENDBRANCH  12  14
BRANCH  12  16
ATOM     16  C   LIG    1       25.382 -14.018   4.435  0.00  0.00    +0.035 C 
BRANCH  16  17
ATOM     17  C   LIG    1       23.996 -13.524   3.994  0.00  0.00    +0.002 C 
BRANCH  17  19
ATOM     18  C   LIG    1       23.902 -11.461   2.497  0.00  0.00    +0.004 C 
ATOM     19  C   LIG    1       23.915 -11.993   3.923  0.00  0.00    -0.003 C 
ENDBRANCH  17  19
ENDBRANCH  16  17
ENDBRANCH  12  16
ENDBRANCH  11  12
ENDBRANCH   9  11
ENDBRANCH   1  10
BRANCH   2  20
ATOM     20  C   LIG    1       24.143 -21.336   5.338  0.00  0.00    +0.011 C 
BRANCH  20  21
ATOM     21  C   LIG    1       24.399 -20.724   6.725  0.00  0.00    +0.001 C 
BRANCH  21  22
ATOM     22  C   LIG    1       25.877 -20.424   7.046  0.00  0.00    +0.000 C 
BRANCH  22  23
ATOM     23  C   LIG    1       26.861 -21.421   6.420  0.00  0.00    +0.000 C 
BRANCH  23  24
ATOM     24  C   LIG    1       28.259 -21.388   7.062  0.00  0.00    +0.011 C 
BRANCH  24  25
ATOM     25  C   LIG    1       29.281 -20.674   6.168  0.00  0.00    +0.120 C 
BRANCH  25  26
ATOM     26  C   LIG    1       29.062 -19.160   6.167  0.00  0.00    +0.307 C 
ATOM     27  O   LIG    1       29.389 -18.399   7.059  0.00  0.00    -0.251 OA
BRANCH  26  28
ATOM     28  O   LIG    1       28.396 -18.821   5.013  0.00  0.00    -0.468 OA
ATOM     29  C   LIG    1       28.780 -17.561   4.450  0.00  0.00    +0.280 C 
ENDBRANCH  26  28
ENDBRANCH  25  26
ENDBRANCH  24  25
ENDBRANCH  23  24
ENDBRANCH  22  23
ENDBRANCH  21  22
ENDBRANCH  20  21
ENDBRANCH   2  20
TORSDOF 16
ENDMDL
MODEL 5
REMARK VINA RESULT:      -2.0      1.811      6.600
REMARK  Name = *****
REMARK                            x       y       z     vdW  Elec       q    Type
REMARK                         _______ _______ _______ _____ _____    ______ ____
ROOT
ATOM      1  C   LIG    1       24.162 -18.850   4.481  0.00  0.00    +0.050 C 
ATOM      2  C   LIG    1       24.547 -20.297   4.097  0.00  0.00    +0.065 C 
ATOM      3  C   LIG    1       23.518 -20.608   3.028  0.00  0.00    +0.140 C 
ATOM      4  O   LIG    1       23.609 -21.556   2.254  0.00  0.00    -0.297 OA
ATOM      5  C   LIG    1       22.380 -19.625   2.983  0.00  0.00    +0.106 C 
ATOM      6  C   LIG    1       22.651 -18.746   4.197  0.00  0.00    +0.129 C 
ENDROOT
BRANCH   6   7
ATOM      7  O   LIG    1       21.914 -19.225   5.319  0.00  0.00    -0.391 OA
ATOM      8  H   LIG    1       21.347 -19.957   5.011  0.00  0.00    +0.210 HD
ENDBRANCH   6   7
BRANCH   1  10
ATOM      9  C   LIG    1       24.843 -16.510   3.791  0.00  0.00    -0.028 C 
ATOM     10  C   LIG    1       24.931 -17.842   3.645  0.00  0.00    -0.024 C 
BRANCH   9  11
ATOM     11  C   LIG    1       25.659 -15.538   2.964  0.00  0.00    +0.061 C 
BRANCH  11  12
ATOM     12  C   LIG    1       25.338 -14.044   3.238  0.00  0.00    +0.067 C 
ATOM     13  C   LIG    1       24.932 -13.313   1.949  0.00  0.00    +0.041 C 
BRANCH  12  14
ATOM     14  O   LIG    1       24.254 -13.947   4.167  0.00  0.00    -0.389 OA
ATOM     15  H   LIG    1       24.091 -14.841   4.519  0.00  0.00    +0.210 HD
ENDBRANCH  12  14
BRANCH  12  16
ATOM     16  C   LIG    1       26.540 -13.299   3.860  0.00  0.00    +0.035 C 
BRANCH  16  17
ATOM     17  C   LIG    1       27.925 -13.882   3.538  0.00  0.00    +0.002 C 
BRANCH  17  19
ATOM     18  C   LIG    1       28.603 -11.951   5.061  0.00  0.00    +0.004 C 
ATOM     19  C   LIG    1       29.067 -13.002   4.062  0.00  0.00    -0.003 C 
ENDBRANCH  17  19
ENDBRANCH  16  17
ENDBRANCH  12  16
ENDBRANCH  11  12
ENDBRANCH   9  11
ENDBRANCH   1  10
BRANCH   2  20
ATOM     20  C   LIG    1       24.465 -21.348   5.223  0.00  0.00    +0.011 C 
BRANCH  20  21
ATOM     21  C   LIG    1       24.630 -20.743   6.626  0.00  0.00    +0.001 C 
BRANCH  21  22
ATOM     22  C   LIG    1       26.085 -20.450   7.048  0.00  0.00    +0.000 C 
BRANCH  22  23
ATOM     23  C   LIG    1       27.110 -21.422   6.447  0.00  0.00    +0.000 C 
BRANCH  23  24
ATOM     24  C   LIG    1       28.513 -21.288   7.062  0.00  0.00    +0.011 C 
BRANCH  24  25
ATOM     25  C   LIG    1       29.475 -20.537   6.132  0.00  0.00    +0.120 C 
BRANCH  25  26
ATOM     26  C   LIG    1       29.162 -19.040   6.094  0.00  0.00    +0.307 C 
ATOM     27  O   LIG    1       29.400 -18.246   6.987  0.00  0.00    -0.251 OA
BRANCH  26  28
ATOM     28  O   LIG    1       28.530 -18.761   4.907  0.00  0.00    -0.468 OA
ATOM     29  C   LIG    1       28.311 -17.367   4.659  0.00  0.00    +0.280 C 
ENDBRANCH  26  28
ENDBRANCH  25  26
ENDBRANCH  24  25
ENDBRANCH  23  24
ENDBRANCH  22  23
ENDBRANCH  21  22
ENDBRANCH  20  21
ENDBRANCH   2  20
TORSDOF 16
ENDMDL
