MODEL 1
REMARK VINA RESULT:      -6.8      0.000      0.000
REMARK  Name = *****
REMARK                            x       y       z     vdW  Elec       q    Type
REMARK                         _______ _______ _______ _____ _____    ______ ____
ROOT
ATOM      1  C   LIG    1       30.499 -18.984   7.970  0.00  0.00    +0.122 C 
ATOM      2  C   LIG    1       29.525 -19.666   7.340  0.00  0.00    +0.079 C 
ATOM      3  N   LIG    1       28.869 -19.221   6.209  0.00  0.00    -0.267 N 
ATOM      4  C   LIG    1       29.217 -18.000   5.508  0.00  0.00    +0.139 C 
ATOM      5  C   LIG    1       27.854 -20.046   5.711  0.00  0.00    +0.248 C 
ATOM      6  O   LIG    1       27.303 -19.886   4.623  0.00  0.00    -0.273 OA
ATOM      7  C   LIG    1       27.471 -21.157   6.722  0.00  0.00    +0.208 C 
ATOM      8  S   LIG    1       28.983 -21.249   7.773  0.00  0.00    -0.081 S 
ENDROOT
BRANCH   7   9
ATOM      9  N   LIG    1       26.273 -20.772   7.513  0.00  0.00    -0.283 NA
ATOM     10  C   LIG    1       25.100 -20.404   6.703  0.00  0.00    +0.086 C 
ATOM     11  C   LIG    1       24.397 -21.581   6.023  0.00  0.00    +0.015 C 
ATOM     12  C   LIG    1       24.027 -22.675   7.018  0.00  0.00    +0.002 C 
ATOM     13  C   LIG    1       25.187 -23.019   7.945  0.00  0.00    +0.015 C 
ATOM     14  C   LIG    1       25.869 -21.774   8.515  0.00  0.00    +0.086 C 
ENDBRANCH   7   9
BRANCH   1  15
ATOM     15  C   LIG    1       31.252 -19.431   9.164  0.00  0.00    +0.334 C 
ATOM     16  O   LIG    1       32.216 -20.153   9.202  0.00  0.00    -0.245 OA
BRANCH  15  17
ATOM     17  O   LIG    1       30.636 -18.834  10.223  0.00  0.00    -0.462 OA
BRANCH  17  19
ATOM     18  C   LIG    1       31.041 -16.783  11.340  0.00  0.00    +0.048 C 
ATOM     19  C   LIG    1       30.417 -17.419  10.114  0.00  0.00    +0.229 C 
ENDBRANCH  17  19
ENDBRANCH  15  17
ENDBRANCH   1  15
TORSDOF 4
ENDMDL
MODEL 2
REMARK VINA RESULT:      -6.8      3.158      4.987
REMARK  Name = *****
REMARK                            x       y       z     vdW  Elec       q    Type
REMARK                         _______ _______ _______ _____ _____    ______ ____
ROOT
ATOM      1  C   LIG    1       27.146 -22.131   7.294  0.00  0.00    +0.122 C 
ATOM      2  C   LIG    1       25.814 -22.211   7.117  0.00  0.00    +0.079 C 
ATOM      3  N   LIG    1       25.118 -23.394   6.972  0.00  0.00    -0.267 N 
ATOM      4  C   LIG    1       25.729 -24.704   7.086  0.00  0.00    +0.139 C 
ATOM      5  C   LIG    1       23.739 -23.284   6.756  0.00  0.00    +0.248 C 
ATOM      6  O   LIG    1       22.956 -24.232   6.788  0.00  0.00    -0.273 OA
ATOM      7  C   LIG    1       23.326 -21.828   6.420  0.00  0.00    +0.208 C 
ATOM      8  S   LIG    1       24.730 -20.865   7.126  0.00  0.00    -0.081 S 
ENDROOT
BRANCH   7   9
ATOM      9  N   LIG    1       23.205 -21.631   4.952  0.00  0.00    -0.283 NA
ATOM     10  C   LIG    1       22.082 -20.771   4.542  0.00  0.00    +0.086 C 
ATOM     11  C   LIG    1       22.281 -19.281   4.827  0.00  0.00    +0.015 C 
ATOM     12  C   LIG    1       23.586 -18.758   4.239  0.00  0.00    +0.002 C 
ATOM     13  C   LIG    1       24.763 -19.673   4.557  0.00  0.00    +0.015 C 
ATOM     14  C   LIG    1       24.440 -21.148   4.308  0.00  0.00    +0.086 C 
ENDBRANCH   7   9
BRANCH   1  15
ATOM     15  C   LIG    1       27.932 -20.892   7.484  0.00  0.00    +0.334 C 
ATOM     16  O   LIG    1       27.968 -20.180   8.457  0.00  0.00    -0.245 OA
BRANCH  15  17
ATOM     17  O   LIG    1       28.636 -20.729   6.328  0.00  0.00    -0.462 OA
BRANCH  17  19
ATOM     18  C   LIG    1       29.474 -18.582   5.779  0.00  0.00    +0.048 C 
ATOM     19  C   LIG    1       28.332 -19.554   5.560  0.00  0.00    +0.229 C 
ENDBRANCH  17  19
ENDBRANCH  15  17
ENDBRANCH   1  15
TORSDOF 4
ENDMDL
MODEL 3
REMARK VINA RESULT:      -6.7      2.979      4.858
REMARK  Name = *****
REMARK                            x       y       z     vdW  Elec       q    Type
REMARK                         _______ _______ _______ _____ _____    ______ ____
ROOT
ATOM      1  C   LIG    1       27.227 -22.224   7.104  0.00  0.00    +0.122 C 
ATOM      2  C   LIG    1       25.886 -22.241   6.995  0.00  0.00    +0.079 C 
ATOM      3  N   LIG    1       25.126 -23.391   6.918  0.00  0.00    -0.267 N 
ATOM      4  C   LIG    1       25.678 -24.727   7.038  0.00  0.00    +0.139 C 
ATOM      5  C   LIG    1       23.745 -23.218   6.769  0.00  0.00    +0.248 C 
ATOM      6  O   LIG    1       22.920 -24.125   6.866  0.00  0.00    -0.273 OA
ATOM      7  C   LIG    1       23.386 -21.753   6.414  0.00  0.00    +0.208 C 
ATOM      8  S   LIG    1       24.870 -20.843   7.022  0.00  0.00    -0.081 S 
ENDROOT
BRANCH   7   9
ATOM      9  N   LIG    1       23.200 -21.587   4.948  0.00  0.00    -0.283 NA
ATOM     10  C   LIG    1       22.080 -20.708   4.571  0.00  0.00    +0.086 C 
ATOM     11  C   LIG    1       22.328 -19.218   4.811  0.00  0.00    +0.015 C 
ATOM     12  C   LIG    1       23.616 -18.741   4.149  0.00  0.00    +0.002 C 
ATOM     13  C   LIG    1       24.784 -19.678   4.433  0.00  0.00    +0.015 C 
ATOM     14  C   LIG    1       24.414 -21.150   4.236  0.00  0.00    +0.086 C 
ENDBRANCH   7   9
BRANCH   1  15
ATOM     15  C   LIG    1       28.081 -21.020   7.221  0.00  0.00    +0.334 C 
ATOM     16  O   LIG    1       28.093 -20.049   6.505  0.00  0.00    -0.245 OA
BRANCH  15  17
ATOM     17  O   LIG    1       28.846 -21.226   8.330  0.00  0.00    -0.462 OA
BRANCH  17  19
ATOM     18  C   LIG    1       31.005 -21.840   9.093  0.00  0.00    +0.048 C 
ATOM     19  C   LIG    1       30.233 -20.871   8.218  0.00  0.00    +0.229 C 
ENDBRANCH  17  19
ENDBRANCH  15  17
ENDBRANCH   1  15
TORSDOF 4
ENDMDL
MODEL 4
REMARK VINA RESULT:      -5.8      3.291      6.668
REMARK  Name = *****
REMARK                            x       y       z     vdW  Elec       q    Type
REMARK                         _______ _______ _______ _____ _____    ______ ____
ROOT
ATOM      1  C   LIG    1       24.425 -23.218   5.331  0.00  0.00    +0.122 C 
ATOM      2  C   LIG    1       25.067 -22.049   5.506  0.00  0.00    +0.079 C 
ATOM      3  N   LIG    1       25.151 -21.056   4.551  0.00  0.00    -0.267 N 
ATOM      4  C   LIG    1       24.475 -21.116   3.269  0.00  0.00    +0.139 C 
ATOM      5  C   LIG    1       25.894 -19.920   4.893  0.00  0.00    +0.248 C 
ATOM      6  O   LIG    1       25.915 -18.882   4.235  0.00  0.00    -0.273 OA
ATOM      7  C   LIG    1       26.730 -20.149   6.179  0.00  0.00    +0.208 C 
ATOM      8  S   LIG    1       25.823 -21.542   6.976  0.00  0.00    -0.081 S 
ENDROOT
BRANCH   7   9
ATOM      9  N   LIG    1       28.131 -20.522   5.848  0.00  0.00    -0.283 NA
ATOM     10  C   LIG    1       28.983 -19.391   5.444  0.00  0.00    +0.086 C 
ATOM     11  C   LIG    1       29.394 -18.460   6.586  0.00  0.00    +0.015 C 
ATOM     12  C   LIG    1       30.042 -19.221   7.737  0.00  0.00    +0.002 C 
ATOM     13  C   LIG    1       29.240 -20.459   8.123  0.00  0.00    +0.015 C 
ATOM     14  C   LIG    1       28.814 -21.284   6.907  0.00  0.00    +0.086 C 
ENDBRANCH   7   9
BRANCH   1  15
ATOM     15  C   LIG    1       24.283 -24.298   6.333  0.00  0.00    +0.334 C 
ATOM     16  O   LIG    1       23.270 -24.698   6.851  0.00  0.00    -0.245 OA
BRANCH  15  17
ATOM     17  O   LIG    1       25.545 -24.772   6.536  0.00  0.00    -0.462 OA
BRANCH  17  19
ATOM     18  C   LIG    1       25.964 -26.669   5.180  0.00  0.00    +0.048 C 
ATOM     19  C   LIG    1       25.685 -26.199   6.594  0.00  0.00    +0.229 C 
ENDBRANCH  17  19
ENDBRANCH  15  17
ENDBRANCH   1  15
TORSDOF 4
ENDMDL
MODEL 5
REMARK VINA RESULT:      -5.7      1.309      1.415
REMARK  Name = *****
REMARK                            x       y       z     vdW  Elec       q    Type
REMARK                         _______ _______ _______ _____ _____    ______ ____
ROOT
ATOM      1  C   LIG    1       29.554 -19.740   7.417  0.00  0.00    +0.122 C 
ATOM      2  C   LIG    1       28.471 -20.172   6.745  0.00  0.00    +0.079 C 
ATOM      3  N   LIG    1       27.905 -19.511   5.673  0.00  0.00    -0.267 N 
ATOM      4  C   LIG    1       28.468 -18.313   5.081  0.00  0.00    +0.139 C 
ATOM      5  C   LIG    1       26.756 -20.089   5.120  0.00  0.00    +0.248 C 
ATOM      6  O   LIG    1       26.242 -19.730   4.061  0.00  0.00    -0.273 OA
ATOM      7  C   LIG    1       26.179 -21.202   6.031  0.00  0.00    +0.208 C 
ATOM      8  S   LIG    1       27.650 -21.664   7.040  0.00  0.00    -0.081 S 
ENDROOT
BRANCH   7   9
ATOM      9  N   LIG    1       25.072 -20.682   6.876  0.00  0.00    -0.283 NA
ATOM     10  C   LIG    1       23.885 -20.241   6.124  0.00  0.00    +0.086 C 
ATOM     11  C   LIG    1       23.041 -21.375   5.539  0.00  0.00    +0.015 C 
ATOM     12  C   LIG    1       22.642 -22.394   6.602  0.00  0.00    +0.002 C 
ATOM     13  C   LIG    1       23.826 -22.805   7.470  0.00  0.00    +0.015 C 
ATOM     14  C   LIG    1       24.649 -21.606   7.944  0.00  0.00    +0.086 C 
ENDBRANCH   7   9
BRANCH   1  15
ATOM     15  C   LIG    1       30.214 -20.426   8.550  0.00  0.00    +0.334 C 
ATOM     16  O   LIG    1       30.316 -21.613   8.738  0.00  0.00    -0.245 OA
BRANCH  15  17
ATOM     17  O   LIG    1       30.710 -19.430   9.337  0.00  0.00    -0.462 OA
BRANCH  17  19
ATOM     18  C   LIG    1       30.321 -17.351  10.407  0.00  0.00    +0.048 C 
ATOM     19  C   LIG    1       30.180 -18.116   9.105  0.00  0.00    +0.229 C 
ENDBRANCH  17  19
ENDBRANCH  15  17
ENDBRANCH   1  15
TORSDOF 4
ENDMDL
MODEL 6
REMARK VINA RESULT:      -5.7      3.886      6.545
REMARK  Name = *****
REMARK                            x       y       z     vdW  Elec       q    Type
REMARK                         _______ _______ _______ _____ _____    ______ ____
ROOT
ATOM      1  C   LIG    1       25.283 -20.282   4.859  0.00  0.00    +0.122 C 
ATOM      2  C   LIG    1       25.229 -21.345   5.682  0.00  0.00    +0.079 C 
ATOM      3  N   LIG    1       26.044 -21.519   6.783  0.00  0.00    -0.267 N 
ATOM      4  C   LIG    1       26.999 -20.527   7.239  0.00  0.00    +0.139 C 
ATOM      5  C   LIG    1       25.873 -22.706   7.505  0.00  0.00    +0.248 C 
ATOM      6  O   LIG    1       26.386 -22.930   8.600  0.00  0.00    -0.273 OA
ATOM      7  C   LIG    1       25.002 -23.727   6.730  0.00  0.00    +0.208 C 
ATOM      8  S   LIG    1       24.081 -22.632   5.567  0.00  0.00    -0.081 S 
ENDROOT
BRANCH   7   9
ATOM      9  N   LIG    1       25.847 -24.713   6.006  0.00  0.00    -0.283 NA
ATOM     10  C   LIG    1       26.371 -25.801   6.848  0.00  0.00    +0.086 C 
ATOM     11  C   LIG    1       25.333 -26.845   7.264  0.00  0.00    +0.015 C 
ATOM     12  C   LIG    1       24.591 -27.420   6.062  0.00  0.00    +0.002 C 
ATOM     13  C   LIG    1       24.115 -26.329   5.111  0.00  0.00    +0.015 C 
ATOM     14  C   LIG    1       25.202 -25.295   4.815  0.00  0.00    +0.086 C 
ENDBRANCH   7   9
BRANCH   1  15
ATOM     15  C   LIG    1       24.412 -20.036   3.687  0.00  0.00    +0.334 C 
ATOM     16  O   LIG    1       24.226 -20.759   2.740  0.00  0.00    -0.245 OA
BRANCH  15  17
ATOM     17  O   LIG    1       23.840 -18.820   3.911  0.00  0.00    -0.462 OA
BRANCH  17  19
ATOM     18  C   LIG    1       22.111 -17.390   4.675  0.00  0.00    +0.048 C 
ATOM     19  C   LIG    1       22.508 -18.835   4.447  0.00  0.00    +0.229 C 
ENDBRANCH  17  19
ENDBRANCH  15  17
ENDBRANCH   1  15
TORSDOF 4
ENDMDL
MODEL 7
REMARK VINA RESULT:      -5.4      5.074      6.150
REMARK  Name = *****
REMARK                            x       y       z     vdW  Elec       q    Type
REMARK                         _______ _______ _______ _____ _____    ______ ____
ROOT
ATOM      1  C   LIG    1       24.690 -17.668   3.808  0.00  0.00    +0.122 C 
ATOM      2  C   LIG    1       24.234 -18.915   4.028  0.00  0.00    +0.079 C 
ATOM      3  N   LIG    1       22.923 -19.222   4.333  0.00  0.00    -0.267 N 
ATOM      4  C   LIG    1       21.855 -18.240   4.362  0.00  0.00    +0.139 C 
ATOM      5  C   LIG    1       22.636 -20.571   4.569  0.00  0.00    +0.248 C 
ATOM      6  O   LIG    1       21.499 -21.030   4.672  0.00  0.00    -0.273 OA
ATOM      7  C   LIG    1       23.928 -21.411   4.737  0.00  0.00    +0.208 C 
ATOM      8  S   LIG    1       25.177 -20.357   3.884  0.00  0.00    -0.081 S 
ENDROOT
BRANCH   7   9
ATOM      9  N   LIG    1       24.259 -21.604   6.173  0.00  0.00    -0.283 NA
ATOM     10  C   LIG    1       23.199 -22.256   6.961  0.00  0.00    +0.086 C 
ATOM     11  C   LIG    1       23.034 -23.753   6.694  0.00  0.00    +0.015 C 
ATOM     12  C   LIG    1       24.348 -24.509   6.853  0.00  0.00    +0.002 C 
ATOM     13  C   LIG    1       25.497 -23.813   6.132  0.00  0.00    +0.015 C 
ATOM     14  C   LIG    1       25.533 -22.308   6.405  0.00  0.00    +0.086 C 
ENDBRANCH   7   9
BRANCH   1  15
ATOM     15  C   LIG    1       26.076 -17.293   3.449  0.00  0.00    +0.334 C 
ATOM     16  O   LIG    1       27.092 -17.894   3.694  0.00  0.00    -0.245 OA
BRANCH  15  17
ATOM     17  O   LIG    1       25.966 -16.125   2.755  0.00  0.00    -0.462 OA
BRANCH  17  19
ATOM     18  C   LIG    1       26.288 -13.799   2.435  0.00  0.00    +0.048 C 
ATOM     19  C   LIG    1       26.511 -14.957   3.388  0.00  0.00    +0.229 C 
ENDBRANCH  17  19
ENDBRANCH  15  17
ENDBRANCH   1  15
TORSDOF 4
ENDMDL
MODEL 8
REMARK VINA RESULT:      -5.3      1.957      6.836
REMARK  Name = *****
REMARK                            x       y       z     vdW  Elec       q    Type
REMARK                         _______ _______ _______ _____ _____    ______ ____
ROOT
ATOM      1  C   LIG    1       28.184 -20.805   7.128  0.00  0.00    +0.122 C 
ATOM      2  C   LIG    1       29.302 -20.191   7.557  0.00  0.00    +0.079 C 
ATOM      3  N   LIG    1       30.238 -20.773   8.389  0.00  0.00    -0.267 N 
ATOM      4  C   LIG    1       30.174 -22.153   8.828  0.00  0.00    +0.139 C 
ATOM      5  C   LIG    1       31.322 -19.971   8.767  0.00  0.00    +0.248 C 
ATOM      6  O   LIG    1       32.322 -20.388   9.348  0.00  0.00    -0.273 OA
ATOM      7  C   LIG    1       31.083 -18.481   8.409  0.00  0.00    +0.208 C 
ATOM      8  S   LIG    1       29.812 -18.610   7.081  0.00  0.00    -0.081 S 
ENDROOT
BRANCH   7   9
ATOM      9  N   LIG    1       30.578 -17.723   9.584  0.00  0.00    -0.283 NA
ATOM     10  C   LIG    1       31.308 -17.981  10.836  0.00  0.00    +0.086 C 
ATOM     11  C   LIG    1       32.703 -17.356  10.905  0.00  0.00    +0.015 C 
ATOM     12  C   LIG    1       32.671 -15.860  10.614  0.00  0.00    +0.002 C 
ATOM     13  C   LIG    1       31.841 -15.537   9.377  0.00  0.00    +0.015 C 
ATOM     14  C   LIG    1       30.497 -16.267   9.367  0.00  0.00    +0.086 C 
ENDBRANCH   7   9
BRANCH   1  15
ATOM     15  C   LIG    1       27.168 -20.236   6.213  0.00  0.00    +0.334 C 
ATOM     16  O   LIG    1       27.327 -19.838   5.086  0.00  0.00    -0.245 OA
BRANCH  15  17
ATOM     17  O   LIG    1       25.995 -20.275   6.907  0.00  0.00    -0.462 OA
BRANCH  17  19
ATOM     18  C   LIG    1       23.723 -20.895   7.164  0.00  0.00    +0.048 C 
ATOM     19  C   LIG    1       25.019 -21.222   6.449  0.00  0.00    +0.229 C 
ENDBRANCH  17  19
ENDBRANCH  15  17
ENDBRANCH   1  15
TORSDOF 4
ENDMDL
MODEL 9
REMARK VINA RESULT:      -5.3      8.071     10.592
REMARK  Name = *****
REMARK                            x       y       z     vdW  Elec       q    Type
REMARK                         _______ _______ _______ _____ _____    ______ ____
ROOT
ATOM      1  C   LIG    1       26.309 -27.053   7.336  0.00  0.00    +0.122 C 
ATOM      2  C   LIG    1       25.791 -28.256   7.644  0.00  0.00    +0.079 C 
ATOM      3  N   LIG    1       25.977 -28.897   8.852  0.00  0.00    -0.267 N 
ATOM      4  C   LIG    1       26.680 -28.307   9.974  0.00  0.00    +0.139 C 
ATOM      5  C   LIG    1       25.395 -30.164   8.983  0.00  0.00    +0.248 C 
ATOM      6  O   LIG    1       25.313 -30.782  10.043  0.00  0.00    -0.273 OA
ATOM      7  C   LIG    1       24.912 -30.716   7.617  0.00  0.00    +0.208 C 
ATOM      8  S   LIG    1       24.735 -29.172   6.627  0.00  0.00    -0.081 S 
ENDROOT
BRANCH   7   9
ATOM      9  N   LIG    1       25.918 -31.637   7.026  0.00  0.00    -0.283 NA
ATOM     10  C   LIG    1       25.842 -33.022   7.522  0.00  0.00    +0.086 C 
ATOM     11  C   LIG    1       24.650 -33.825   6.998  0.00  0.00    +0.015 C 
ATOM     12  C   LIG    1       24.577 -33.807   5.475  0.00  0.00    +0.002 C 
ATOM     13  C   LIG    1       24.749 -32.400   4.913  0.00  0.00    +0.015 C 
ATOM     14  C   LIG    1       25.922 -31.654   5.553  0.00  0.00    +0.086 C 
ENDBRANCH   7   9
BRANCH   1  15
ATOM     15  C   LIG    1       26.114 -26.313   6.069  0.00  0.00    +0.334 C 
ATOM     16  O   LIG    1       26.473 -26.632   4.963  0.00  0.00    -0.245 OA
BRANCH  15  17
ATOM     17  O   LIG    1       25.414 -25.193   6.408  0.00  0.00    -0.462 OA
BRANCH  17  19
ATOM     18  C   LIG    1       23.432 -23.925   6.690  0.00  0.00    +0.048 C 
ATOM     19  C   LIG    1       23.995 -25.244   6.198  0.00  0.00    +0.229 C 
ENDBRANCH  17  19
ENDBRANCH  15  17
ENDBRANCH   1  15
TORSDOF 4
ENDMDL
