MODEL 1
REMARK VINA RESULT:      -7.5      0.000      0.000
REMARK  Name = *****
REMARK                            x       y       z     vdW  Elec       q    Type
REMARK                         _______ _______ _______ _____ _____    ______ ____
ROOT
ATOM      1  CA  LIG    1       27.526 -21.618   6.404  0.00  0.00    +0.191 C 
ATOM      2  C   LIG    1       28.730 -20.709   6.028  0.00  0.00    +0.169 C 
ATOM      3  N   LIG    1       29.333 -21.119   7.286  0.00  0.00    -0.249 N 
ATOM      4  CA  LIG    1       30.395 -20.492   7.892  0.00  0.00    +0.125 C 
ATOM      5  C   LIG    1       30.860 -19.306   7.411  0.00  0.00    +0.006 C 
ATOM      6  C   LIG    1       30.207 -18.548   6.271  0.00  0.00    +0.107 C 
ATOM      7  S   LIG    1       28.444 -18.926   6.047  0.00  0.00    -0.131 S 
ATOM      8  C   LIG    1       28.202 -21.653   7.804  0.00  0.00    +0.244 C 
ATOM      9  O   LIG    1       27.947 -21.956   8.952  0.00  0.00    -0.273 OA
ENDROOT
BRANCH   1  11
ATOM     10  C   LIG    1       25.117 -21.854   5.857  0.00  0.00    +0.270 C 
ATOM     11  N   LIG    1       26.152 -21.071   6.338  0.00  0.00    -0.296 N 
ATOM     12  H   LIG    1       25.950 -20.085   6.492  0.00  0.00    +0.150 HD
ATOM     13  O   LIG    1       25.303 -23.001   5.475  0.00  0.00    -0.268 OA
BRANCH  10  15
ATOM     14  N   LIG    1       22.696 -21.637   6.532  0.00  0.00    -0.076 NA
ATOM     15  C   LIG    1       23.721 -21.205   5.846  0.00  0.00    +0.206 C 
BRANCH  15  16
ATOM     16  C   LIG    1       23.552 -20.060   4.978  0.00  0.00    +0.161 A 
ATOM     17  O   LIG    1       24.597 -19.647   4.197  0.00  0.00    -0.461 OA
ATOM     18  C   LIG    1       24.196 -18.552   3.508  0.00  0.00    +0.196 A 
ATOM     19  C   LIG    1       22.895 -18.244   3.819  0.00  0.00    +0.042 A 
ATOM     20  C   LIG    1       22.483 -19.201   4.782  0.00  0.00    +0.052 A 
ENDBRANCH  15  16
BRANCH  14  22
ATOM     21  C   LIG    1       22.541 -23.917   6.752  0.00  0.00    +0.313 C 
ATOM     22  O   LIG    1       23.001 -22.718   7.370  0.00  0.00    -0.396 OA
ENDBRANCH  14  22
ENDBRANCH  10  15
ENDBRANCH   1  11
BRANCH   4  23
ATOM     23  C   LIG    1       31.127 -21.245   8.991  0.00  0.00    +0.351 C 
ATOM     24  O   LIG    1       30.989 -20.992  10.180  0.00  0.00    -0.244 OA
BRANCH  23  25
ATOM     25  OXT LIG    1       32.055 -22.136   8.589  0.00  0.00    -0.476 OA
ATOM     26  HXT LIG    1       32.738 -21.800   7.966  0.00  0.00    +0.295 HD
ENDBRANCH  23  25
ENDBRANCH   4  23
BRANCH   5  27
ATOM     27  C   LIG    1       32.090 -18.604   7.974  0.00  0.00    +0.268 C 
BRANCH  27  28
ATOM     28  O   LIG    1       31.854 -17.274   8.469  0.00  0.00    -0.446 OA
BRANCH  28  29
ATOM     29  C   LIG    1       31.110 -17.207   9.593  0.00  0.00    +0.398 C 
ATOM     30  O   LIG    1       30.039 -16.640   9.720  0.00  0.00    -0.227 OA
ATOM     31  N   LIG    1       31.694 -17.934  10.571  0.00  0.00    -0.295 N 
ATOM     32  H   LIG    1       31.115 -18.175  11.363  0.00  0.00    +0.148 HD
ATOM     33  H   LIG    1       32.465 -18.534  10.321  0.00  0.00    +0.148 HD
ENDBRANCH  28  29
ENDBRANCH  27  28
ENDBRANCH   5  27
TORSDOF 9
ENDMDL
MODEL 2
REMARK VINA RESULT:      -6.1      1.850      8.056
REMARK  Name = *****
REMARK                            x       y       z     vdW  Elec       q    Type
REMARK                         _______ _______ _______ _____ _____    ______ ____
ROOT
ATOM      1  CA  LIG    1       27.643 -19.957   8.507  0.00  0.00    +0.191 C 
ATOM      2  C   LIG    1       26.841 -19.653   7.210  0.00  0.00    +0.169 C 
ATOM      3  N   LIG    1       26.130 -20.900   7.449  0.00  0.00    -0.249 N 
ATOM      4  CA  LIG    1       25.360 -21.558   6.522  0.00  0.00    +0.125 C 
ATOM      5  C   LIG    1       25.348 -21.150   5.222  0.00  0.00    +0.006 C 
ATOM      6  C   LIG    1       26.229 -20.038   4.683  0.00  0.00    +0.107 C 
ATOM      7  S   LIG    1       27.742 -19.761   5.649  0.00  0.00    -0.131 S 
ATOM      8  C   LIG    1       26.997 -21.366   8.378  0.00  0.00    +0.244 C 
ATOM      9  O   LIG    1       27.128 -22.492   8.816  0.00  0.00    -0.273 OA
ENDROOT
BRANCH   1  11
ATOM     10  C   LIG    1       29.788 -18.958   9.253  0.00  0.00    +0.270 C 
ATOM     11  N   LIG    1       29.121 -19.893   8.481  0.00  0.00    -0.296 N 
ATOM     12  H   LIG    1       29.677 -20.410   7.802  0.00  0.00    +0.150 HD
ATOM     13  O   LIG    1       29.186 -18.167   9.967  0.00  0.00    -0.268 OA
BRANCH  10  15
ATOM     14  N   LIG    1       32.033 -20.007   8.781  0.00  0.00    -0.076 NA
ATOM     15  C   LIG    1       31.325 -18.982   9.176  0.00  0.00    +0.206 C 
BRANCH  15  16
ATOM     16  C   LIG    1       32.008 -17.783   9.611  0.00  0.00    +0.161 A 
ATOM     17  O   LIG    1       32.452 -17.692  10.902  0.00  0.00    -0.461 OA
ATOM     18  C   LIG    1       33.025 -16.475  11.062  0.00  0.00    +0.196 A 
ATOM     19  C   LIG    1       32.971 -15.766   9.888  0.00  0.00    +0.042 A 
ATOM     20  C   LIG    1       32.298 -16.598   8.956  0.00  0.00    +0.052 A 
ENDBRANCH  15  16
BRANCH  14  22
ATOM     21  C   LIG    1       31.502 -22.202   9.188  0.00  0.00    +0.313 C 
ATOM     22  O   LIG    1       31.256 -21.085   8.338  0.00  0.00    -0.396 OA
ENDBRANCH  14  22
ENDBRANCH  10  15
ENDBRANCH   1  11
BRANCH   4  23
ATOM     23  C   LIG    1       24.408 -22.630   7.026  0.00  0.00    +0.351 C 
ATOM     24  O   LIG    1       23.285 -22.383   7.444  0.00  0.00    -0.244 OA
BRANCH  23  25
ATOM     25  OXT LIG    1       24.908 -23.878   7.118  0.00  0.00    -0.476 OA
ATOM     26  HXT LIG    1       24.954 -24.261   8.023  0.00  0.00    +0.295 HD
ENDBRANCH  23  25
ENDBRANCH   4  23
BRANCH   5  27
ATOM     27  C   LIG    1       24.447 -21.773   4.162  0.00  0.00    +0.268 C 
BRANCH  27  28
ATOM     28  O   LIG    1       23.401 -20.913   3.677  0.00  0.00    -0.446 OA
BRANCH  28  29
ATOM     29  C   LIG    1       22.507 -20.520   4.610  0.00  0.00    +0.398 C 
ATOM     30  O   LIG    1       22.373 -19.394   5.056  0.00  0.00    -0.227 OA
ATOM     31  N   LIG    1       21.708 -21.558   4.941  0.00  0.00    -0.295 N 
ATOM     32  H   LIG    1       20.849 -21.333   5.421  0.00  0.00    +0.148 HD
ATOM     33  H   LIG    1       21.754 -22.393   4.376  0.00  0.00    +0.148 HD
ENDBRANCH  28  29
ENDBRANCH  27  28
ENDBRANCH   5  27
TORSDOF 9
ENDMDL
MODEL 3
REMARK VINA RESULT:      -5.9      2.574      8.362
REMARK  Name = *****
REMARK                            x       y       z     vdW  Elec       q    Type
REMARK                         _______ _______ _______ _____ _____    ______ ____
ROOT
ATOM      1  CA  LIG    1       27.065 -20.252   7.204  0.00  0.00    +0.191 C 
ATOM      2  C   LIG    1       26.809 -21.593   6.460  0.00  0.00    +0.169 C 
ATOM      3  N   LIG    1       25.418 -21.464   6.868  0.00  0.00    -0.249 N 
ATOM      4  CA  LIG    1       24.490 -22.475   6.835  0.00  0.00    +0.125 C 
ATOM      5  C   LIG    1       24.873 -23.753   6.560  0.00  0.00    +0.006 C 
ATOM      6  C   LIG    1       26.319 -24.174   6.373  0.00  0.00    +0.107 C 
ATOM      7  S   LIG    1       27.517 -23.083   7.194  0.00  0.00    -0.131 S 
ATOM      8  C   LIG    1       25.642 -20.491   7.783  0.00  0.00    +0.244 C 
ATOM      9  O   LIG    1       24.923 -20.094   8.678  0.00  0.00    -0.273 OA
ENDROOT
BRANCH   1  11
ATOM     10  C   LIG    1       29.343 -19.498   7.837  0.00  0.00    +0.270 C 
ATOM     11  N   LIG    1       28.177 -20.161   8.178  0.00  0.00    -0.296 N 
ATOM     12  H   LIG    1       28.188 -20.696   9.044  0.00  0.00    +0.150 HD
ATOM     13  O   LIG    1       29.489 -18.977   6.739  0.00  0.00    -0.268 OA
BRANCH  10  15
ATOM     14  N   LIG    1       30.922 -20.478   9.543  0.00  0.00    -0.076 NA
ATOM     15  C   LIG    1       30.434 -19.437   8.922  0.00  0.00    +0.206 C 
BRANCH  15  16
ATOM     16  C   LIG    1       30.906 -18.118   9.283  0.00  0.00    +0.161 A 
ATOM     17  O   LIG    1       31.989 -17.590   8.635  0.00  0.00    -0.461 OA
ATOM     18  C   LIG    1       32.244 -16.373   9.172  0.00  0.00    +0.196 A 
ATOM     19  C   LIG    1       31.335 -16.088  10.160  0.00  0.00    +0.042 A 
ATOM     20  C   LIG    1       30.484 -17.220  10.250  0.00  0.00    +0.052 A 
ENDBRANCH  15  16
BRANCH  14  22
ATOM     21  C   LIG    1       31.519 -22.569   8.811  0.00  0.00    +0.313 C 
ATOM     22  O   LIG    1       30.422 -21.697   9.068  0.00  0.00    -0.396 OA
ENDBRANCH  14  22
ENDBRANCH  10  15
ENDBRANCH   1  11
BRANCH   4  23
ATOM     23  C   LIG    1       23.023 -22.093   6.944  0.00  0.00    +0.351 C 
ATOM     24  O   LIG    1       22.324 -21.839   5.972  0.00  0.00    -0.244 OA
BRANCH  23  25
ATOM     25  OXT LIG    1       22.543 -21.915   8.190  0.00  0.00    -0.476 OA
ATOM     26  HXT LIG    1       21.981 -22.639   8.547  0.00  0.00    +0.295 HD
ENDBRANCH  23  25
ENDBRANCH   4  23
BRANCH   5  27
ATOM     27  C   LIG    1       23.887 -24.906   6.414  0.00  0.00    +0.268 C 
BRANCH  27  28
ATOM     28  O   LIG    1       24.268 -25.910   5.456  0.00  0.00    -0.446 OA
BRANCH  28  29
ATOM     29  C   LIG    1       24.520 -27.129   5.977  0.00  0.00    +0.398 C 
ATOM     30  O   LIG    1       25.113 -27.365   7.016  0.00  0.00    -0.227 OA
ATOM     31  N   LIG    1       23.949 -28.081   5.207  0.00  0.00    -0.295 N 
ATOM     32  H   LIG    1       23.843 -28.996   5.622  0.00  0.00    +0.148 HD
ATOM     33  H   LIG    1       23.308 -27.787   4.486  0.00  0.00    +0.148 HD
ENDBRANCH  28  29
ENDBRANCH  27  28
ENDBRANCH   5  27
TORSDOF 9
ENDMDL
MODEL 4
REMARK VINA RESULT:      -5.8      9.138     13.143
REMARK  Name = *****
REMARK                            x       y       z     vdW  Elec       q    Type
REMARK                         _______ _______ _______ _____ _____    ______ ____
ROOT
ATOM      1  CA  LIG    1       23.385 -30.668  11.411  0.00  0.00    +0.191 C 
ATOM      2  C   LIG    1       22.721 -30.181  12.730  0.00  0.00    +0.169 C 
ATOM      3  N   LIG    1       21.470 -30.706  12.203  0.00  0.00    -0.249 N 
ATOM      4  CA  LIG    1       20.222 -30.407  12.693  0.00  0.00    +0.125 C 
ATOM      5  C   LIG    1       20.066 -29.436  13.635  0.00  0.00    +0.006 C 
ATOM      6  C   LIG    1       21.200 -28.561  14.135  0.00  0.00    +0.107 C 
ATOM      7  S   LIG    1       22.577 -28.396  12.961  0.00  0.00    -0.131 S 
ATOM      8  C   LIG    1       21.917 -30.852  10.934  0.00  0.00    +0.244 C 
ATOM      9  O   LIG    1       21.286 -31.019   9.908  0.00  0.00    -0.273 OA
ENDROOT
BRANCH   1  11
ATOM     10  C   LIG    1       25.022 -30.211   9.604  0.00  0.00    +0.270 C 
ATOM     11  N   LIG    1       24.230 -29.734  10.634  0.00  0.00    -0.296 N 
ATOM     12  H   LIG    1       24.374 -28.766  10.916  0.00  0.00    +0.150 HD
ATOM     13  O   LIG    1       25.051 -31.398   9.311  0.00  0.00    -0.268 OA
BRANCH  10  15
ATOM     14  N   LIG    1       26.972 -28.646   9.265  0.00  0.00    -0.076 NA
ATOM     15  C   LIG    1       25.849 -29.160   8.839  0.00  0.00    +0.206 C 
BRANCH  15  16
ATOM     16  C   LIG    1       25.300 -28.704   7.581  0.00  0.00    +0.161 A 
ATOM     17  O   LIG    1       24.418 -29.500   6.903  0.00  0.00    -0.461 OA
ATOM     18  C   LIG    1       24.079 -28.865   5.756  0.00  0.00    +0.196 A 
ATOM     19  C   LIG    1       24.721 -27.655   5.674  0.00  0.00    +0.042 A 
ATOM     20  C   LIG    1       25.525 -27.557   6.838  0.00  0.00    +0.052 A 
ENDBRANCH  15  16
BRANCH  14  22
ATOM     21  C   LIG    1       27.359 -28.210  11.485  0.00  0.00    +0.313 C 
ATOM     22  O   LIG    1       27.423 -29.206  10.468  0.00  0.00    -0.396 OA
ENDBRANCH  14  22
ENDBRANCH  10  15
ENDBRANCH   1  11
BRANCH   4  23
ATOM     23  C   LIG    1       19.067 -31.302  12.277  0.00  0.00    +0.351 C 
ATOM     24  O   LIG    1       18.824 -32.375  12.815  0.00  0.00    -0.244 OA
BRANCH  23  25
ATOM     25  OXT LIG    1       18.380 -30.923  11.181  0.00  0.00    -0.476 OA
ATOM     26  HXT LIG    1       17.400 -30.944  11.254  0.00  0.00    +0.295 HD
ENDBRANCH  23  25
ENDBRANCH   4  23
BRANCH   5  27
ATOM     27  C   LIG    1       18.727 -29.118  14.290  0.00  0.00    +0.268 C 
BRANCH  27  28
ATOM     28  O   LIG    1       18.645 -27.817  14.898  0.00  0.00    -0.446 OA
BRANCH  28  29
ATOM     29  C   LIG    1       17.666 -27.022  14.417  0.00  0.00    +0.398 C 
ATOM     30  O   LIG    1       16.476 -27.283  14.374  0.00  0.00    -0.227 OA
ATOM     31  N   LIG    1       18.187 -25.833  14.043  0.00  0.00    -0.295 N 
ATOM     32  H   LIG    1       17.534 -25.073  13.915  0.00  0.00    +0.148 HD
ATOM     33  H   LIG    1       19.140 -25.629  14.303  0.00  0.00    +0.148 HD
ENDBRANCH  28  29
ENDBRANCH  27  28
ENDBRANCH   5  27
TORSDOF 9
ENDMDL
MODEL 5
REMARK VINA RESULT:      -5.6      5.973      9.676
REMARK  Name = *****
REMARK                            x       y       z     vdW  Elec       q    Type
REMARK                         _______ _______ _______ _____ _____    ______ ____
ROOT
ATOM      1  CA  LIG    1       26.196 -26.499   6.363  0.00  0.00    +0.191 C 
ATOM      2  C   LIG    1       26.691 -27.684   7.240  0.00  0.00    +0.169 C 
ATOM      3  N   LIG    1       25.726 -28.510   6.531  0.00  0.00    -0.249 N 
ATOM      4  CA  LIG    1       25.304 -29.753   6.936  0.00  0.00    +0.125 C 
ATOM      5  C   LIG    1       25.658 -30.235   8.159  0.00  0.00    +0.006 C 
ATOM      6  C   LIG    1       26.434 -29.432   9.186  0.00  0.00    +0.107 C 
ATOM      7  S   LIG    1       26.268 -27.633   8.995  0.00  0.00    -0.131 S 
ATOM      8  C   LIG    1       25.047 -27.475   5.984  0.00  0.00    +0.244 C 
ATOM      9  O   LIG    1       23.948 -27.460   5.466  0.00  0.00    -0.273 OA
ENDROOT
BRANCH   1  11
ATOM     10  C   LIG    1       25.352 -24.169   6.244  0.00  0.00    +0.270 C 
ATOM     11  N   LIG    1       25.808 -25.226   7.012  0.00  0.00    -0.296 N 
ATOM     12  H   LIG    1       26.002 -25.033   7.992  0.00  0.00    +0.150 HD
ATOM     13  O   LIG    1       25.259 -24.252   5.027  0.00  0.00    -0.268 OA
BRANCH  10  15
ATOM     14  N   LIG    1       23.726 -22.574   7.330  0.00  0.00    -0.076 NA
ATOM     15  C   LIG    1       24.951 -22.894   7.010  0.00  0.00    +0.206 C 
BRANCH  15  16
ATOM     16  C   LIG    1       26.026 -21.989   7.354  0.00  0.00    +0.161 A 
ATOM     17  O   LIG    1       27.323 -22.417   7.261  0.00  0.00    -0.461 OA
ATOM     18  C   LIG    1       28.127 -21.403   7.662  0.00  0.00    +0.196 A 
ATOM     19  C   LIG    1       27.375 -20.308   8.008  0.00  0.00    +0.042 A 
ATOM     20  C   LIG    1       26.020 -20.689   7.831  0.00  0.00    +0.052 A 
ENDBRANCH  15  16
BRANCH  14  22
ATOM     21  C   LIG    1       21.822 -22.973   6.113  0.00  0.00    +0.313 C 
ATOM     22  O   LIG    1       22.785 -23.554   6.987  0.00  0.00    -0.396 OA
ENDBRANCH  14  22
ENDBRANCH  10  15
ENDBRANCH   1  11
BRANCH   4  23
ATOM     23  C   LIG    1       24.587 -30.623   5.917  0.00  0.00    +0.351 C 
ATOM     24  O   LIG    1       25.174 -31.349   5.125  0.00  0.00    -0.244 OA
BRANCH  23  25
ATOM     25  OXT LIG    1       23.251 -30.464   5.829  0.00  0.00    -0.476 OA
ATOM     26  HXT LIG    1       22.719 -30.860   6.556  0.00  0.00    +0.295 HD
ENDBRANCH  23  25
ENDBRANCH   4  23
BRANCH   5  27
ATOM     27  C   LIG    1       25.306 -31.640   8.635  0.00  0.00    +0.268 C 
BRANCH  27  28
ATOM     28  O   LIG    1       24.310 -31.696   9.671  0.00  0.00    -0.446 OA
BRANCH  28  29
ATOM     29  C   LIG    1       23.032 -31.728   9.234  0.00  0.00    +0.398 C 
ATOM     30  O   LIG    1       22.129 -30.989   9.584  0.00  0.00    -0.227 OA
ATOM     31  N   LIG    1       22.902 -32.672   8.277  0.00  0.00    -0.295 N 
ATOM     32  H   LIG    1       22.077 -32.617   7.696  0.00  0.00    +0.148 HD
ATOM     33  H   LIG    1       23.740 -33.092   7.905  0.00  0.00    +0.148 HD
ENDBRANCH  28  29
ENDBRANCH  27  28
ENDBRANCH   5  27
TORSDOF 9
ENDMDL
MODEL 6
REMARK VINA RESULT:      -5.6      9.729     12.257
REMARK  Name = *****
REMARK                            x       y       z     vdW  Elec       q    Type
REMARK                         _______ _______ _______ _____ _____    ______ ____
ROOT
ATOM      1  CA  LIG    1       25.747 -29.772  11.999  0.00  0.00    +0.191 C 
ATOM      2  C   LIG    1       24.775 -30.846  11.433  0.00  0.00    +0.169 C 
ATOM      3  N   LIG    1       25.792 -31.127  10.431  0.00  0.00    -0.249 N 
ATOM      4  CA  LIG    1       25.583 -31.836   9.273  0.00  0.00    +0.125 C 
ATOM      5  C   LIG    1       24.322 -32.194   8.903  0.00  0.00    +0.006 C 
ATOM      6  C   LIG    1       23.074 -31.770   9.654  0.00  0.00    +0.107 C 
ATOM      7  S   LIG    1       23.278 -30.246  10.622  0.00  0.00    -0.131 S 
ATOM      8  C   LIG    1       26.521 -30.012  10.672  0.00  0.00    +0.244 C 
ATOM      9  O   LIG    1       27.390 -29.497   9.996  0.00  0.00    -0.273 OA
ENDROOT
BRANCH   1  11
ATOM     10  C   LIG    1       24.824 -28.036  13.511  0.00  0.00    +0.270 C 
ATOM     11  N   LIG    1       25.250 -28.400  12.246  0.00  0.00    -0.296 N 
ATOM     12  H   LIG    1       25.064 -27.744  11.490  0.00  0.00    +0.150 HD
ATOM     13  O   LIG    1       24.841 -28.824  14.447  0.00  0.00    -0.268 OA
BRANCH  10  15
ATOM     14  N   LIG    1       23.136 -26.163  13.410  0.00  0.00    -0.076 NA
ATOM     15  C   LIG    1       24.345 -26.581  13.676  0.00  0.00    +0.206 C 
BRANCH  15  16
ATOM     16  C   LIG    1       25.336 -25.627  14.124  0.00  0.00    +0.161 A 
ATOM     17  O   LIG    1       26.654 -25.830  13.816  0.00  0.00    -0.461 OA
ATOM     18  C   LIG    1       27.371 -24.823  14.369  0.00  0.00    +0.196 A 
ATOM     19  C   LIG    1       26.540 -23.952  15.029  0.00  0.00    +0.042 A 
ATOM     20  C   LIG    1       25.230 -24.479  14.891  0.00  0.00    +0.052 A 
ENDBRANCH  15  16
BRANCH  14  22
ATOM     21  C   LIG    1       20.922 -26.714  13.163  0.00  0.00    +0.313 C 
ATOM     22  O   LIG    1       22.260 -27.189  13.035  0.00  0.00    -0.396 OA
ENDBRANCH  14  22
ENDBRANCH  10  15
ENDBRANCH   1  11
BRANCH   4  23
ATOM     23  C   LIG    1       26.804 -32.345   8.526  0.00  0.00    +0.351 C 
ATOM     24  O   LIG    1       27.588 -33.157   8.999  0.00  0.00    -0.244 OA
BRANCH  23  25
ATOM     25  OXT LIG    1       27.070 -31.756   7.343  0.00  0.00    -0.476 OA
ATOM     26  HXT LIG    1       26.763 -30.827   7.242  0.00  0.00    +0.295 HD
ENDBRANCH  23  25
ENDBRANCH   4  23
BRANCH   5  27
ATOM     27  C   LIG    1       24.027 -33.061   7.684  0.00  0.00    +0.268 C 
BRANCH  27  28
ATOM     28  O   LIG    1       23.233 -32.423   6.668  0.00  0.00    -0.446 OA
BRANCH  28  29
ATOM     29  C   LIG    1       23.824 -31.375   6.056  0.00  0.00    +0.398 C 
ATOM     30  O   LIG    1       23.551 -30.197   6.212  0.00  0.00    -0.227 OA
ATOM     31  N   LIG    1       24.836 -31.813   5.276  0.00  0.00    -0.295 N 
ATOM     32  H   LIG    1       25.510 -31.122   4.978  0.00  0.00    +0.148 HD
ATOM     33  H   LIG    1       25.123 -32.776   5.366  0.00  0.00    +0.148 HD
ENDBRANCH  28  29
ENDBRANCH  27  28
ENDBRANCH   5  27
TORSDOF 9
ENDMDL
MODEL 7
REMARK VINA RESULT:      -5.6      8.049     10.231
REMARK  Name = *****
REMARK                            x       y       z     vdW  Elec       q    Type
REMARK                         _______ _______ _______ _____ _____    ______ ____
ROOT
ATOM      1  CA  LIG    1       24.571 -30.503  10.510  0.00  0.00    +0.191 C 
ATOM      2  C   LIG    1       25.879 -29.995  11.180  0.00  0.00    +0.169 C 
ATOM      3  N   LIG    1       25.067 -29.677  12.345  0.00  0.00    -0.249 N 
ATOM      4  CA  LIG    1       25.459 -28.865  13.381  0.00  0.00    +0.125 C 
ATOM      5  C   LIG    1       26.617 -28.152  13.297  0.00  0.00    +0.006 C 
ATOM      6  C   LIG    1       27.491 -28.112  12.057  0.00  0.00    +0.107 C 
ATOM      7  S   LIG    1       26.602 -28.480  10.516  0.00  0.00    -0.131 S 
ATOM      8  C   LIG    1       23.878 -29.797  11.709  0.00  0.00    +0.244 C 
ATOM      9  O   LIG    1       22.777 -29.414  12.053  0.00  0.00    -0.273 OA
ENDROOT
BRANCH   1  11
ATOM     10  C   LIG    1       24.929 -30.469   8.055  0.00  0.00    +0.270 C 
ATOM     11  N   LIG    1       24.215 -30.026   9.155  0.00  0.00    -0.296 N 
ATOM     12  H   LIG    1       23.559 -29.263   9.001  0.00  0.00    +0.150 HD
ATOM     13  O   LIG    1       25.862 -31.253   8.167  0.00  0.00    -0.268 OA
BRANCH  10  15
ATOM     14  N   LIG    1       23.652 -30.557   5.881  0.00  0.00    -0.076 NA
ATOM     15  C   LIG    1       24.472 -29.934   6.686  0.00  0.00    +0.206 C 
BRANCH  15  16
ATOM     16  C   LIG    1       25.034 -28.667   6.272  0.00  0.00    +0.161 A 
ATOM     17  O   LIG    1       25.518 -27.804   7.217  0.00  0.00    -0.461 OA
ATOM     18  C   LIG    1       25.957 -26.692   6.581  0.00  0.00    +0.196 A 
ATOM     19  C   LIG    1       25.776 -26.815   5.226  0.00  0.00    +0.042 A 
ATOM     20  C   LIG    1       25.162 -28.078   5.025  0.00  0.00    +0.052 A 
ENDBRANCH  15  16
BRANCH  14  22
ATOM     21  C   LIG    1       23.536 -32.830   5.582  0.00  0.00    +0.313 C 
ATOM     22  O   LIG    1       23.139 -31.746   6.417  0.00  0.00    -0.396 OA
ENDBRANCH  14  22
ENDBRANCH  10  15
ENDBRANCH   1  11
BRANCH   4  23
ATOM     23  C   LIG    1       24.657 -28.926  14.670  0.00  0.00    +0.351 C 
ATOM     24  O   LIG    1       24.779 -29.824  15.492  0.00  0.00    -0.244 OA
BRANCH  23  25
ATOM     25  OXT LIG    1       23.688 -27.999  14.815  0.00  0.00    -0.476 OA
ATOM     26  HXT LIG    1       23.950 -27.068  14.640  0.00  0.00    +0.295 HD
ENDBRANCH  23  25
ENDBRANCH   4  23
BRANCH   5  27
ATOM     27  C   LIG    1       27.160 -27.307  14.443  0.00  0.00    +0.268 C 
BRANCH  27  28
ATOM     28  O   LIG    1       26.282 -26.258  14.890  0.00  0.00    -0.446 OA
BRANCH  28  29
ATOM     29  C   LIG    1       26.026 -25.298  13.975  0.00  0.00    +0.398 C 
ATOM     30  O   LIG    1       26.850 -24.683  13.322  0.00  0.00    -0.227 OA
ATOM     31  N   LIG    1       24.691 -25.156  13.825  0.00  0.00    -0.295 N 
ATOM     32  H   LIG    1       24.379 -24.668  12.997  0.00  0.00    +0.148 HD
ATOM     33  H   LIG    1       24.089 -25.844  14.250  0.00  0.00    +0.148 HD
ENDBRANCH  28  29
ENDBRANCH  27  28
ENDBRANCH   5  27
TORSDOF 9
ENDMDL
MODEL 8
REMARK VINA RESULT:      -5.6      9.827     12.720
REMARK  Name = *****
REMARK                            x       y       z     vdW  Elec       q    Type
REMARK                         _______ _______ _______ _____ _____    ______ ____
ROOT
ATOM      1  CA  LIG    1       25.978 -30.329  11.593  0.00  0.00    +0.191 C 
ATOM      2  C   LIG    1       25.127 -31.545  11.129  0.00  0.00    +0.169 C 
ATOM      3  N   LIG    1       26.022 -31.638   9.987  0.00  0.00    -0.249 N 
ATOM      4  CA  LIG    1       25.771 -32.359   8.845  0.00  0.00    +0.125 C 
ATOM      5  C   LIG    1       24.547 -32.921   8.641  0.00  0.00    +0.006 C 
ATOM      6  C   LIG    1       23.366 -32.722   9.573  0.00  0.00    +0.107 C 
ATOM      7  S   LIG    1       23.450 -31.196  10.556  0.00  0.00    -0.131 S 
ATOM      8  C   LIG    1       26.584 -30.419  10.164  0.00  0.00    +0.244 C 
ATOM      9  O   LIG    1       27.250 -29.757   9.392  0.00  0.00    -0.273 OA
ENDROOT
BRANCH   1  11
ATOM     10  C   LIG    1       25.066 -28.759  13.284  0.00  0.00    +0.270 C 
ATOM     11  N   LIG    1       25.302 -29.063  11.954  0.00  0.00    -0.296 N 
ATOM     12  H   LIG    1       24.862 -28.462  11.260  0.00  0.00    +0.150 HD
ATOM     13  O   LIG    1       25.401 -29.516  14.185  0.00  0.00    -0.268 OA
BRANCH  10  15
ATOM     14  N   LIG    1       24.983 -26.347  14.020  0.00  0.00    -0.076 NA
ATOM     15  C   LIG    1       24.377 -27.411  13.563  0.00  0.00    +0.206 C 
BRANCH  15  16
ATOM     16  C   LIG    1       22.950 -27.358  13.326  0.00  0.00    +0.161 A 
ATOM     17  O   LIG    1       22.311 -28.457  12.819  0.00  0.00    -0.461 OA
ATOM     18  C   LIG    1       21.002 -28.144  12.665  0.00  0.00    +0.196 A 
ATOM     19  C   LIG    1       20.769 -26.855  13.074  0.00  0.00    +0.042 A 
ATOM     20  C   LIG    1       22.027 -26.339  13.481  0.00  0.00    +0.052 A 
ENDBRANCH  15  16
BRANCH  14  22
ATOM     21  C   LIG    1       27.022 -25.591  13.289  0.00  0.00    +0.313 C 
ATOM     22  O   LIG    1       26.368 -26.510  14.159  0.00  0.00    -0.396 OA
ENDBRANCH  14  22
ENDBRANCH  10  15
ENDBRANCH   1  11
BRANCH   4  23
ATOM     23  C   LIG    1       26.940 -32.646   7.918  0.00  0.00    +0.351 C 
ATOM     24  O   LIG    1       27.790 -33.493   8.157  0.00  0.00    -0.244 OA
BRANCH  23  25
ATOM     25  OXT LIG    1       27.080 -31.823   6.860  0.00  0.00    -0.476 OA
ATOM     26  HXT LIG    1       27.763 -31.121   6.945  0.00  0.00    +0.295 HD
ENDBRANCH  23  25
ENDBRANCH   4  23
BRANCH   5  27
ATOM     27  C   LIG    1       24.227 -33.811   7.446  0.00  0.00    +0.268 C 
BRANCH  27  28
ATOM     28  O   LIG    1       23.271 -33.262   6.522  0.00  0.00    -0.446 OA
BRANCH  28  29
ATOM     29  C   LIG    1       23.674 -32.145   5.879  0.00  0.00    +0.398 C 
ATOM     30  O   LIG    1       23.294 -31.008   6.095  0.00  0.00    -0.227 OA
ATOM     31  N   LIG    1       24.637 -32.457   4.983  0.00  0.00    -0.295 N 
ATOM     32  H   LIG    1       25.195 -31.691   4.634  0.00  0.00    +0.148 HD
ATOM     33  H   LIG    1       25.034 -33.384   5.016  0.00  0.00    +0.148 HD
ENDBRANCH  28  29
ENDBRANCH  27  28
ENDBRANCH   5  27
TORSDOF 9
ENDMDL
MODEL 9
REMARK VINA RESULT:      -5.6      4.792      8.170
REMARK  Name = *****
REMARK                            x       y       z     vdW  Elec       q    Type
REMARK                         _______ _______ _______ _____ _____    ______ ____
ROOT
ATOM      1  CA  LIG    1       25.681 -24.994   6.296  0.00  0.00    +0.191 C 
ATOM      2  C   LIG    1       24.535 -24.117   5.717  0.00  0.00    +0.169 C 
ATOM      3  N   LIG    1       25.295 -22.962   6.172  0.00  0.00    -0.249 N 
ATOM      4  CA  LIG    1       24.795 -21.688   6.294  0.00  0.00    +0.125 C 
ATOM      5  C   LIG    1       23.462 -21.455   6.145  0.00  0.00    +0.006 C 
ATOM      6  C   LIG    1       22.434 -22.552   5.939  0.00  0.00    +0.107 C 
ATOM      7  S   LIG    1       22.949 -24.173   6.578  0.00  0.00    -0.131 S 
ATOM      8  C   LIG    1       26.139 -23.667   6.962  0.00  0.00    +0.244 C 
ATOM      9  O   LIG    1       26.881 -23.275   7.841  0.00  0.00    -0.273 OA
ENDROOT
BRANCH   1  11
ATOM     10  C   LIG    1       25.975 -27.343   7.040  0.00  0.00    +0.270 C 
ATOM     11  N   LIG    1       25.350 -26.118   7.200  0.00  0.00    -0.296 N 
ATOM     12  H   LIG    1       24.568 -26.082   7.851  0.00  0.00    +0.150 HD
ATOM     13  O   LIG    1       26.804 -27.532   6.160  0.00  0.00    -0.268 OA
BRANCH  10  15
ATOM     14  N   LIG    1       24.560 -29.246   7.902  0.00  0.00    -0.076 NA
ATOM     15  C   LIG    1       25.582 -28.444   8.042  0.00  0.00    +0.206 C 
BRANCH  15  16
ATOM     16  C   LIG    1       26.400 -28.551   9.231  0.00  0.00    +0.161 A 
ATOM     17  O   LIG    1       27.219 -29.636   9.390  0.00  0.00    -0.461 OA
ATOM     18  C   LIG    1       27.848 -29.513  10.583  0.00  0.00    +0.196 A 
ATOM     19  C   LIG    1       27.460 -28.355  11.209  0.00  0.00    +0.042 A 
ATOM     20  C   LIG    1       26.511 -27.743  10.350  0.00  0.00    +0.052 A 
ENDBRANCH  15  16
BRANCH  14  22
ATOM     21  C   LIG    1       24.120 -30.218   5.870  0.00  0.00    +0.313 C 
ATOM     22  O   LIG    1       23.881 -29.076   6.688  0.00  0.00    -0.396 OA
ENDBRANCH  14  22
ENDBRANCH  10  15
ENDBRANCH   1  11
BRANCH   4  23
ATOM     23  C   LIG    1       25.791 -20.548   6.428  0.00  0.00    +0.351 C 
ATOM     24  O   LIG    1       26.322 -20.008   5.467  0.00  0.00    -0.244 OA
BRANCH  23  25
ATOM     25  OXT LIG    1       26.174 -20.233   7.681  0.00  0.00    -0.476 OA
ATOM     26  HXT LIG    1       27.053 -19.801   7.770  0.00  0.00    +0.295 HD
ENDBRANCH  23  25
ENDBRANCH   4  23
BRANCH   5  27
ATOM     27  C   LIG    1       22.853 -20.058   6.173  0.00  0.00    +0.268 C 
BRANCH  27  28
ATOM     28  O   LIG    1       22.178 -19.668   4.964  0.00  0.00    -0.446 OA
BRANCH  28  29
ATOM     29  C   LIG    1       22.670 -18.563   4.365  0.00  0.00    +0.398 C 
ATOM     30  O   LIG    1       22.225 -17.432   4.453  0.00  0.00    -0.227 OA
ATOM     31  N   LIG    1       23.799 -18.875   3.691  0.00  0.00    -0.295 N 
ATOM     32  H   LIG    1       24.395 -18.104   3.425  0.00  0.00    +0.148 HD
ATOM     33  H   LIG    1       24.206 -19.785   3.841  0.00  0.00    +0.148 HD
ENDBRANCH  28  29
ENDBRANCH  27  28
ENDBRANCH   5  27
TORSDOF 9
ENDMDL
