MODEL 1
REMARK VINA RESULT:      -5.3      0.000      0.000
REMARK  Name = *****
REMARK                            x       y       z     vdW  Elec       q    Type
REMARK                         _______ _______ _______ _____ _____    ______ ____
ROOT
ATOM      1  C   LIG    1       25.935 -15.631   3.283  0.00  0.00    +0.307 C 
ATOM      2  O   LIG    1       24.845 -15.336   3.757  0.00  0.00    -0.251 OA
ENDROOT
BRANCH   1   3
ATOM      3  C   LIG    1       26.520 -17.013   3.365  0.00  0.00    +0.120 C 
BRANCH   3   4
ATOM      4  C   LIG    1       25.435 -18.083   3.345  0.00  0.00    +0.011 C 
BRANCH   4   5
ATOM      5  C   LIG    1       25.864 -19.354   4.084  0.00  0.00    +0.000 C 
BRANCH   5   6
ATOM      6  C   LIG    1       24.746 -20.398   4.181  0.00  0.00    -0.000 C 
BRANCH   6   7
ATOM      7  C   LIG    1       24.167 -20.551   5.592  0.00  0.00    -0.000 C 
BRANCH   7   9
ATOM      8  C   LIG    1       22.289 -19.095   4.687  0.00  0.00    +0.004 C 
ATOM      9  C   LIG    1       22.681 -20.192   5.667  0.00  0.00    -0.003 C 
ENDBRANCH   7   9
ENDBRANCH   6   7
ENDBRANCH   5   6
ENDBRANCH   4   5
ENDBRANCH   3   4
ENDBRANCH   1   3
BRANCH   1  10
ATOM     10  O   LIG    1       26.724 -14.779   2.590  0.00  0.00    -0.462 OA
BRANCH  10  11
ATOM     11  C   LIG    1       26.842 -13.448   3.137  0.00  0.00    +0.265 C 
BRANCH  11  12
ATOM     12  C   LIG    1       27.762 -13.466   4.362  0.00  0.00    +0.177 C 
BRANCH  12  13
ATOM     13  O   LIG    1       27.012 -13.167   5.555  0.00  0.00    -0.386 OA
ATOM     14  H   LIG    1       27.488 -13.587   6.295  0.00  0.00    +0.210 HD
ENDBRANCH  12  13
BRANCH  12  15
ATOM     15  C   LIG    1       28.874 -12.426   4.248  0.00  0.00    +0.190 C 
BRANCH  15  16
ATOM     16  O   LIG    1       29.089 -11.824   5.525  0.00  0.00    -0.392 OA
ATOM     17  H   LIG    1       28.682 -10.936   5.459  0.00  0.00    +0.209 HD
ENDBRANCH  15  16
ENDBRANCH  12  15
ENDBRANCH  11  12
ENDBRANCH  10  11
ENDBRANCH   1  10
TORSDOF 12
ENDMDL
MODEL 2
REMARK VINA RESULT:      -5.1      1.180      1.806
REMARK  Name = *****
REMARK                            x       y       z     vdW  Elec       q    Type
REMARK                         _______ _______ _______ _____ _____    ______ ____
ROOT
ATOM      1  C   LIG    1       25.857 -16.136   3.420  0.00  0.00    +0.307 C 
ATOM      2  O   LIG    1       24.800 -15.599   3.725  0.00  0.00    -0.251 OA
ENDROOT
BRANCH   1   3
ATOM      3  C   LIG    1       26.020 -17.626   3.310  0.00  0.00    +0.120 C 
BRANCH   3   4
ATOM      4  C   LIG    1       24.719 -18.356   3.623  0.00  0.00    +0.011 C 
BRANCH   4   5
ATOM      5  C   LIG    1       24.869 -19.877   3.513  0.00  0.00    +0.000 C 
BRANCH   5   6
ATOM      6  C   LIG    1       23.718 -20.643   4.173  0.00  0.00    -0.000 C 
BRANCH   6   7
ATOM      7  C   LIG    1       23.052 -19.881   5.324  0.00  0.00    -0.000 C 
BRANCH   7   9
ATOM      8  C   LIG    1       24.667 -20.850   7.031  0.00  0.00    +0.004 C 
ATOM      9  C   LIG    1       23.212 -20.584   6.675  0.00  0.00    -0.003 C 
ENDBRANCH   7   9
ENDBRANCH   6   7
ENDBRANCH   5   6
ENDBRANCH   4   5
ENDBRANCH   3   4
ENDBRANCH   1   3
BRANCH   1  10
ATOM     10  O   LIG    1       26.989 -15.471   3.096  0.00  0.00    -0.462 OA
BRANCH  10  11
ATOM     11  C   LIG    1       26.813 -14.098   2.685  0.00  0.00    +0.265 C 
BRANCH  11  12
ATOM     12  C   LIG    1       27.704 -13.181   3.529  0.00  0.00    +0.177 C 
BRANCH  12  13
ATOM     13  O   LIG    1       29.091 -13.517   3.338  0.00  0.00    -0.386 OA
ATOM     14  H   LIG    1       29.356 -14.051   4.109  0.00  0.00    +0.210 HD
ENDBRANCH  12  13
BRANCH  12  15
ATOM     15  C   LIG    1       27.401 -13.315   5.020  0.00  0.00    +0.190 C 
BRANCH  15  16
ATOM     16  O   LIG    1       25.985 -13.323   5.213  0.00  0.00    -0.392 OA
ATOM     17  H   LIG    1       25.850 -13.763   6.077  0.00  0.00    +0.209 HD
ENDBRANCH  15  16
ENDBRANCH  12  15
ENDBRANCH  11  12
ENDBRANCH  10  11
ENDBRANCH   1  10
TORSDOF 12
ENDMDL
MODEL 3
REMARK VINA RESULT:      -5.1      1.618      2.527
REMARK  Name = *****
REMARK                            x       y       z     vdW  Elec       q    Type
REMARK                         _______ _______ _______ _____ _____    ______ ____
ROOT
ATOM      1  C   LIG    1       24.179 -14.192   4.215  0.00  0.00    +0.307 C 
ATOM      2  O   LIG    1       24.091 -12.972   4.285  0.00  0.00    -0.251 OA
ENDROOT
BRANCH   1   3
ATOM      3  C   LIG    1       23.086 -15.122   4.657  0.00  0.00    +0.120 C 
BRANCH   3   4
ATOM      4  C   LIG    1       23.352 -16.554   4.204  0.00  0.00    +0.011 C 
BRANCH   4   5
ATOM      5  C   LIG    1       22.245 -17.515   4.649  0.00  0.00    +0.000 C 
BRANCH   5   6
ATOM      6  C   LIG    1       22.549 -18.978   4.309  0.00  0.00    -0.000 C 
BRANCH   6   7
ATOM      7  C   LIG    1       22.692 -19.880   5.540  0.00  0.00    -0.000 C 
BRANCH   7   9
ATOM      8  C   LIG    1       24.919 -20.309   4.391  0.00  0.00    +0.004 C 
ATOM      9  C   LIG    1       24.059 -20.565   5.620  0.00  0.00    -0.003 C 
ENDBRANCH   7   9
ENDBRANCH   6   7
ENDBRANCH   5   6
ENDBRANCH   4   5
ENDBRANCH   3   4
ENDBRANCH   1   3
BRANCH   1  10
ATOM     10  O   LIG    1       25.236 -14.854   3.692  0.00  0.00    -0.462 OA
BRANCH  10  11
ATOM     11  C   LIG    1       26.127 -14.065   2.873  0.00  0.00    +0.265 C 
BRANCH  11  12
ATOM     12  C   LIG    1       27.566 -14.208   3.378  0.00  0.00    +0.177 C 
BRANCH  12  13
ATOM     13  O   LIG    1       27.750 -15.490   4.008  0.00  0.00    -0.386 OA
ATOM     14  H   LIG    1       27.805 -15.323   4.967  0.00  0.00    +0.210 HD
ENDBRANCH  12  13
BRANCH  12  15
ATOM     15  C   LIG    1       27.911 -13.136   4.411  0.00  0.00    +0.190 C 
BRANCH  15  16
ATOM     16  O   LIG    1       27.018 -13.248   5.520  0.00  0.00    -0.392 OA
ATOM     17  H   LIG    1       27.597 -13.304   6.307  0.00  0.00    +0.209 HD
ENDBRANCH  15  16
ENDBRANCH  12  15
ENDBRANCH  11  12
ENDBRANCH  10  11
ENDBRANCH   1  10
TORSDOF 12
ENDMDL
MODEL 4
REMARK VINA RESULT:      -5.1      1.638      2.523
REMARK  Name = *****
REMARK                            x       y       z     vdW  Elec       q    Type
REMARK                         _______ _______ _______ _____ _____    ______ ____
ROOT
ATOM      1  C   LIG    1       26.518 -17.411   3.549  0.00  0.00    +0.307 C 
ATOM      2  O   LIG    1       27.595 -17.600   4.101  0.00  0.00    -0.251 OA
ENDROOT
BRANCH   1   3
ATOM      3  C   LIG    1       25.472 -18.479   3.397  0.00  0.00    +0.120 C 
BRANCH   3   4
ATOM      4  C   LIG    1       25.784 -19.695   4.262  0.00  0.00    +0.011 C 
BRANCH   4   5
ATOM      5  C   LIG    1       24.680 -20.755   4.188  0.00  0.00    +0.000 C 
BRANCH   5   6
ATOM      6  C   LIG    1       24.048 -21.059   5.550  0.00  0.00    -0.000 C 
BRANCH   6   7
ATOM      7  C   LIG    1       22.873 -20.141   5.903  0.00  0.00    -0.000 C 
BRANCH   7   9
ATOM      8  C   LIG    1       22.100 -18.122   4.565  0.00  0.00    +0.004 C 
ATOM      9  C   LIG    1       22.117 -19.640   4.670  0.00  0.00    -0.003 C 
ENDBRANCH   7   9
ENDBRANCH   6   7
ENDBRANCH   5   6
ENDBRANCH   4   5
ENDBRANCH   3   4
ENDBRANCH   1   3
BRANCH   1  10
ATOM     10  O   LIG    1       26.111 -16.220   3.054  0.00  0.00    -0.462 OA
BRANCH  10  11
ATOM     11  C   LIG    1       26.799 -15.059   3.569  0.00  0.00    +0.265 C 
BRANCH  11  12
ATOM     12  C   LIG    1       26.848 -13.963   2.500  0.00  0.00    +0.177 C 
BRANCH  12  13
ATOM     13  O   LIG    1       27.806 -12.952   2.864  0.00  0.00    -0.386 OA
ATOM     14  H   LIG    1       27.587 -12.159   2.340  0.00  0.00    +0.210 HD
ENDBRANCH  12  13
BRANCH  12  15
ATOM     15  C   LIG    1       25.494 -13.274   2.336  0.00  0.00    +0.190 C 
BRANCH  15  16
ATOM     16  O   LIG    1       24.628 -13.680   3.397  0.00  0.00    -0.392 OA
ATOM     17  H   LIG    1       25.008 -13.274   4.203  0.00  0.00    +0.209 HD
ENDBRANCH  15  16
ENDBRANCH  12  15
ENDBRANCH  11  12
ENDBRANCH  10  11
ENDBRANCH   1  10
TORSDOF 12
ENDMDL
MODEL 5
REMARK VINA RESULT:      -5.1      1.952      3.220
REMARK  Name = *****
REMARK                            x       y       z     vdW  Elec       q    Type
REMARK                         _______ _______ _______ _____ _____    ______ ____
ROOT
ATOM      1  C   LIG    1       23.914 -14.287   4.087  0.00  0.00    +0.307 C 
ATOM      2  O   LIG    1       23.599 -13.648   3.092  0.00  0.00    -0.251 OA
ENDROOT
BRANCH   1   3
ATOM      3  C   LIG    1       23.005 -15.287   4.745  0.00  0.00    +0.120 C 
BRANCH   3   4
ATOM      4  C   LIG    1       23.138 -16.667   4.109  0.00  0.00    +0.011 C 
BRANCH   4   5
ATOM      5  C   LIG    1       22.114 -17.661   4.668  0.00  0.00    +0.000 C 
BRANCH   5   6
ATOM      6  C   LIG    1       22.616 -19.108   4.657  0.00  0.00    -0.000 C 
BRANCH   6   7
ATOM      7  C   LIG    1       23.830 -19.333   3.750  0.00  0.00    -0.000 C 
BRANCH   7   9
ATOM      8  C   LIG    1       25.403 -20.529   5.349  0.00  0.00    +0.004 C 
ATOM      9  C   LIG    1       24.582 -20.626   4.072  0.00  0.00    -0.003 C 
ENDBRANCH   7   9
ENDBRANCH   6   7
ENDBRANCH   5   6
ENDBRANCH   4   5
ENDBRANCH   3   4
ENDBRANCH   1   3
BRANCH   1  10
ATOM     10  O   LIG    1       25.123 -14.218   4.690  0.00  0.00    -0.462 OA
BRANCH  10  11
ATOM     11  C   LIG    1       26.073 -13.314   4.087  0.00  0.00    +0.265 C 
BRANCH  11  12
ATOM     12  C   LIG    1       27.062 -14.097   3.217  0.00  0.00    +0.177 C 
BRANCH  12  13
ATOM     13  O   LIG    1       26.541 -14.251   1.884  0.00  0.00    -0.386 OA
ATOM     14  H   LIG    1       25.571 -14.298   1.968  0.00  0.00    +0.210 HD
ENDBRANCH  12  13
BRANCH  12  15
ATOM     15  C   LIG    1       27.318 -15.496   3.774  0.00  0.00    +0.190 C 
BRANCH  15  16
ATOM     16  O   LIG    1       26.449 -16.426   3.126  0.00  0.00    -0.392 OA
ATOM     17  H   LIG    1       25.813 -16.703   3.817  0.00  0.00    +0.209 HD
ENDBRANCH  15  16
ENDBRANCH  12  15
ENDBRANCH  11  12
ENDBRANCH  10  11
ENDBRANCH   1  10
TORSDOF 12
ENDMDL
MODEL 6
REMARK VINA RESULT:      -5.0      3.505      6.674
REMARK  Name = *****
REMARK                            x       y       z     vdW  Elec       q    Type
REMARK                         _______ _______ _______ _____ _____    ______ ____
ROOT
ATOM      1  C   LIG    1       25.010 -18.837   3.677  0.00  0.00    +0.307 C 
ATOM      2  O   LIG    1       23.827 -18.532   3.588  0.00  0.00    -0.251 OA
ENDROOT
BRANCH   1   3
ATOM      3  C   LIG    1       26.130 -17.886   3.361  0.00  0.00    +0.120 C 
BRANCH   3   4
ATOM      4  C   LIG    1       25.635 -16.448   3.269  0.00  0.00    +0.011 C 
BRANCH   4   5
ATOM      5  C   LIG    1       26.752 -15.434   3.536  0.00  0.00    +0.000 C 
BRANCH   5   6
ATOM      6  C   LIG    1       26.240 -14.122   4.139  0.00  0.00    -0.000 C 
BRANCH   6   7
ATOM      7  C   LIG    1       24.714 -14.052   4.259  0.00  0.00    -0.000 C 
BRANCH   7   9
ATOM      8  C   LIG    1       24.615 -12.826   2.034  0.00  0.00    +0.004 C 
ATOM      9  C   LIG    1       24.107 -12.892   3.467  0.00  0.00    -0.003 C 
ENDBRANCH   7   9
ENDBRANCH   6   7
ENDBRANCH   5   6
ENDBRANCH   4   5
ENDBRANCH   3   4
ENDBRANCH   1   3
BRANCH   1  10
ATOM     10  O   LIG    1       25.461 -20.035   4.114  0.00  0.00    -0.462 OA
BRANCH  10  11
ATOM     11  C   LIG    1       24.451 -21.044   4.329  0.00  0.00    +0.265 C 
BRANCH  11  12
ATOM     12  C   LIG    1       24.128 -21.152   5.823  0.00  0.00    +0.177 C 
BRANCH  12  13
ATOM     13  O   LIG    1       23.086 -20.224   6.178  0.00  0.00    -0.386 OA
ATOM     14  H   LIG    1       23.519 -19.364   6.327  0.00  0.00    +0.210 HD
ENDBRANCH  12  13
BRANCH  12  15
ATOM     15  C   LIG    1       25.345 -20.828   6.688  0.00  0.00    +0.190 C 
BRANCH  15  16
ATOM     16  O   LIG    1       26.472 -21.564   6.209  0.00  0.00    -0.392 OA
ATOM     17  H   LIG    1       26.559 -21.310   5.268  0.00  0.00    +0.209 HD
ENDBRANCH  15  16
ENDBRANCH  12  15
ENDBRANCH  11  12
ENDBRANCH  10  11
ENDBRANCH   1  10
TORSDOF 12
ENDMDL
MODEL 7
REMARK VINA RESULT:      -4.8      2.024      2.774
REMARK  Name = *****
REMARK                            x       y       z     vdW  Elec       q    Type
REMARK                         _______ _______ _______ _____ _____    ______ ____
ROOT
ATOM      1  C   LIG    1       26.643 -15.393   3.273  0.00  0.00    +0.307 C 
ATOM      2  O   LIG    1       27.573 -15.276   4.061  0.00  0.00    -0.251 OA
ENDROOT
BRANCH   1   3
ATOM      3  C   LIG    1       25.542 -16.401   3.443  0.00  0.00    +0.120 C 
BRANCH   3   4
ATOM      4  C   LIG    1       26.088 -17.824   3.488  0.00  0.00    +0.011 C 
BRANCH   4   5
ATOM      5  C   LIG    1       24.983 -18.872   3.322  0.00  0.00    +0.000 C 
BRANCH   5   6
ATOM      6  C   LIG    1       25.278 -20.178   4.066  0.00  0.00    -0.000 C 
BRANCH   6   7
ATOM      7  C   LIG    1       26.338 -20.036   5.163  0.00  0.00    -0.000 C 
BRANCH   7   9
ATOM      8  C   LIG    1       24.451 -20.805   6.683  0.00  0.00    +0.004 C 
ATOM      9  C   LIG    1       25.955 -20.757   6.458  0.00  0.00    -0.003 C 
ENDBRANCH   7   9
ENDBRANCH   6   7
ENDBRANCH   5   6
ENDBRANCH   4   5
ENDBRANCH   3   4
ENDBRANCH   1   3
BRANCH   1  10
ATOM     10  O   LIG    1       26.458 -14.609   2.186  0.00  0.00    -0.462 OA
BRANCH  10  11
ATOM     11  C   LIG    1       26.163 -13.222   2.456  0.00  0.00    +0.265 C 
BRANCH  11  12
ATOM     12  C   LIG    1       24.649 -13.025   2.585  0.00  0.00    +0.177 C 
BRANCH  12  13
ATOM     13  O   LIG    1       24.226 -11.886   1.812  0.00  0.00    -0.386 OA
ATOM     14  H   LIG    1       24.891 -11.764   1.110  0.00  0.00    +0.210 HD
ENDBRANCH  12  13
BRANCH  12  15
ATOM     15  C   LIG    1       24.234 -12.776   4.034  0.00  0.00    +0.190 C 
BRANCH  15  16
ATOM     16  O   LIG    1       25.356 -12.996   4.889  0.00  0.00    -0.392 OA
ATOM     17  H   LIG    1       25.397 -12.204   5.463  0.00  0.00    +0.209 HD
ENDBRANCH  15  16
ENDBRANCH  12  15
ENDBRANCH  11  12
ENDBRANCH  10  11
ENDBRANCH   1  10
TORSDOF 12
ENDMDL
MODEL 8
REMARK VINA RESULT:      -4.8      3.219      6.926
REMARK  Name = *****
REMARK                            x       y       z     vdW  Elec       q    Type
REMARK                         _______ _______ _______ _____ _____    ______ ____
ROOT
ATOM      1  C   LIG    1       25.334 -18.599   3.682  0.00  0.00    +0.307 C 
ATOM      2  O   LIG    1       24.175 -18.210   3.620  0.00  0.00    -0.251 OA
ENDROOT
BRANCH   1   3
ATOM      3  C   LIG    1       26.517 -17.675   3.609  0.00  0.00    +0.120 C 
BRANCH   3   4
ATOM      4  C   LIG    1       26.093 -16.250   3.271  0.00  0.00    +0.011 C 
BRANCH   4   5
ATOM      5  C   LIG    1       27.190 -15.229   3.595  0.00  0.00    +0.000 C 
BRANCH   5   6
ATOM      6  C   LIG    1       26.661 -13.795   3.703  0.00  0.00    -0.000 C 
BRANCH   6   7
ATOM      7  C   LIG    1       25.911 -13.319   2.454  0.00  0.00    -0.000 C 
BRANCH   7   9
ATOM      8  C   LIG    1       24.102 -12.988   4.210  0.00  0.00    +0.004 C 
ATOM      9  C   LIG    1       24.436 -13.017   2.725  0.00  0.00    -0.003 C 
ENDBRANCH   7   9
ENDBRANCH   6   7
ENDBRANCH   5   6
ENDBRANCH   4   5
ENDBRANCH   3   4
ENDBRANCH   1   3
BRANCH   1  10
ATOM     10  O   LIG    1       25.701 -19.888   3.869  0.00  0.00    -0.462 OA
BRANCH  10  11
ATOM     11  C   LIG    1       25.378 -20.449   5.160  0.00  0.00    +0.265 C 
BRANCH  11  12
ATOM     12  C   LIG    1       24.272 -21.499   5.012  0.00  0.00    +0.177 C 
BRANCH  12  13
ATOM     13  O   LIG    1       23.830 -21.570   3.644  0.00  0.00    -0.386 OA
ATOM     14  H   LIG    1       24.360 -20.920   3.146  0.00  0.00    +0.210 HD
ENDBRANCH  12  13
BRANCH  12  15
ATOM     15  C   LIG    1       23.054 -21.160   5.870  0.00  0.00    +0.190 C 
BRANCH  15  16
ATOM     16  O   LIG    1       22.764 -19.767   5.745  0.00  0.00    -0.392 OA
ATOM     17  H   LIG    1       23.586 -19.311   6.019  0.00  0.00    +0.209 HD
ENDBRANCH  15  16
ENDBRANCH  12  15
ENDBRANCH  11  12
ENDBRANCH  10  11
ENDBRANCH   1  10
TORSDOF 12
ENDMDL
MODEL 9
REMARK VINA RESULT:      -4.7      2.746      6.367
REMARK  Name = *****
REMARK                            x       y       z     vdW  Elec       q    Type
REMARK                         _______ _______ _______ _____ _____    ______ ____
ROOT
ATOM      1  C   LIG    1       26.697 -16.961   3.517  0.00  0.00    +0.307 C 
ATOM      2  O   LIG    1       27.697 -17.156   4.195  0.00  0.00    -0.251 OA
ENDROOT
BRANCH   1   3
ATOM      3  C   LIG    1       26.137 -15.591   3.252  0.00  0.00    +0.120 C 
BRANCH   3   4
ATOM      4  C   LIG    1       27.194 -14.509   3.440  0.00  0.00    +0.011 C 
BRANCH   4   5
ATOM      5  C   LIG    1       26.816 -13.518   4.546  0.00  0.00    +0.000 C 
BRANCH   5   6
ATOM      6  C   LIG    1       25.351 -13.635   4.981  0.00  0.00    -0.000 C 
BRANCH   6   7
ATOM      7  C   LIG    1       24.452 -12.528   4.423  0.00  0.00    -0.000 C 
BRANCH   7   9
ATOM      8  C   LIG    1       24.583 -11.926   1.956  0.00  0.00    +0.004 C 
ATOM      9  C   LIG    1       23.950 -12.825   3.008  0.00  0.00    -0.003 C 
ENDBRANCH   7   9
ENDBRANCH   6   7
ENDBRANCH   5   6
ENDBRANCH   4   5
ENDBRANCH   3   4
ENDBRANCH   1   3
BRANCH   1  10
ATOM     10  O   LIG    1       26.000 -17.931   2.882  0.00  0.00    -0.462 OA
BRANCH  10  11
ATOM     11  C   LIG    1       24.872 -18.468   3.607  0.00  0.00    +0.265 C 
BRANCH  11  12
ATOM     12  C   LIG    1       25.062 -19.973   3.829  0.00  0.00    +0.177 C 
BRANCH  12  13
ATOM     13  O   LIG    1       23.786 -20.620   3.986  0.00  0.00    -0.386 OA
ATOM     14  H   LIG    1       23.918 -21.345   4.623  0.00  0.00    +0.210 HD
ENDBRANCH  12  13
BRANCH  12  15
ATOM     15  C   LIG    1       25.879 -20.259   5.087  0.00  0.00    +0.190 C 
BRANCH  15  16
ATOM     16  O   LIG    1       27.266 -20.076   4.799  0.00  0.00    -0.392 OA
ATOM     17  H   LIG    1       27.662 -20.968   4.881  0.00  0.00    +0.209 HD
ENDBRANCH  15  16
ENDBRANCH  12  15
ENDBRANCH  11  12
ENDBRANCH  10  11
ENDBRANCH   1  10
TORSDOF 12
ENDMDL
