MODEL 1
REMARK VINA RESULT:      -4.4      0.000      0.000
REMARK  Name = *****
REMARK                            x       y       z     vdW  Elec       q    Type
REMARK                         _______ _______ _______ _____ _____    ______ ____
ROOT
ATOM      1  O   LIG    1       25.381 -17.172   2.966  0.00  0.00    -0.247 OA
ATOM      2  C   LIG    1       26.098 -17.842   3.692  0.00  0.00    +0.349 C 
ENDROOT
BRANCH   2   3
ATOM      3  C   LIG    1       25.803 -19.334   4.058  0.00  0.00    +0.213 C 
BRANCH   3   4
ATOM      4  C   LIG    1       24.308 -19.547   4.382  0.00  0.00    -0.001 A 
ATOM      5  C   LIG    1       23.814 -20.742   4.939  0.00  0.00    +0.007 A 
ATOM      6  C   LIG    1       22.443 -20.922   5.154  0.00  0.00    +0.000 A 
ATOM      7  C   LIG    1       21.538 -19.922   4.806  0.00  0.00    +0.000 A 
ATOM      8  C   LIG    1       22.002 -18.734   4.253  0.00  0.00    +0.000 A 
ATOM      9  C   LIG    1       23.371 -18.548   4.045  0.00  0.00    +0.007 A 
ENDBRANCH   3   4
BRANCH   3  10
ATOM     10  C   LIG    1       26.775 -19.881   5.121  0.00  0.00    -0.001 A 
ATOM     11  C   LIG    1       28.117 -19.442   5.161  0.00  0.00    +0.007 A 
ATOM     12  C   LIG    1       29.009 -19.925   6.126  0.00  0.00    +0.000 A 
ATOM     13  C   LIG    1       28.588 -20.866   7.062  0.00  0.00    +0.000 A 
ATOM     14  C   LIG    1       27.276 -21.323   7.035  0.00  0.00    +0.000 A 
ATOM     15  C   LIG    1       26.380 -20.831   6.080  0.00  0.00    +0.007 A 
ENDBRANCH   3  10
BRANCH   3  16
ATOM     16  O   LIG    1       26.068 -20.071   2.843  0.00  0.00    -0.370 OA
ATOM     17  H   LIG    1       26.594 -20.848   3.111  0.00  0.00    +0.212 HD
ENDBRANCH   3  16
ENDBRANCH   2   3
BRANCH   2  18
ATOM     18  O   LIG    1       27.221 -17.342   4.293  0.00  0.00    -0.459 OA
BRANCH  18  19
ATOM     19  C   LIG    1       27.617 -15.990   3.958  0.00  0.00    +0.187 C 
ATOM     20  C   LIG    1       27.426 -15.123   5.211  0.00  0.00    +0.099 C 
ATOM     21  C   LIG    1       27.093 -13.655   4.917  0.00  0.00    +0.070 C 
ATOM     22  N   LIG    1       25.858 -13.592   4.004  0.00  0.00    +0.248 N 
ATOM     23  C   LIG    1       26.489 -14.061   2.677  0.00  0.00    +0.070 C 
ATOM     24  C   LIG    1       27.786 -13.239   2.613  0.00  0.00    +0.060 C 
ATOM     25  C   LIG    1       25.297 -12.134   3.873  0.00  0.00    +0.134 C 
ATOM     26  C   LIG    1       23.862 -12.200   4.365  0.00  0.00    +0.056 C 
ATOM     27  C   LIG    1       23.442 -13.614   4.051  0.00  0.00    +0.056 C 
ATOM     28  C   LIG    1       24.648 -14.404   4.506  0.00  0.00    +0.134 C 
ATOM     29  C   LIG    1       28.183 -12.986   4.067  0.00  0.00    +0.060 C 
ATOM     30  C   LIG    1       26.797 -15.560   2.736  0.00  0.00    +0.099 C 
ENDBRANCH  18  19
ENDBRANCH   2  18
TORSDOF 6
ENDMDL
MODEL 2
REMARK VINA RESULT:      -3.0      1.209      2.563
REMARK  Name = *****
REMARK                            x       y       z     vdW  Elec       q    Type
REMARK                         _______ _______ _______ _____ _____    ______ ____
ROOT
ATOM      1  O   LIG    1       24.551 -18.373   2.635  0.00  0.00    -0.247 OA
ATOM      2  C   LIG    1       25.317 -18.372   3.585  0.00  0.00    +0.349 C 
ENDROOT
BRANCH   2   3
ATOM      3  C   LIG    1       25.776 -19.670   4.327  0.00  0.00    +0.213 C 
BRANCH   3   4
ATOM      4  C   LIG    1       24.613 -20.301   5.124  0.00  0.00    -0.001 A 
ATOM      5  C   LIG    1       24.787 -20.869   6.400  0.00  0.00    +0.007 A 
ATOM      6  C   LIG    1       23.723 -21.492   7.062  0.00  0.00    +0.000 A 
ATOM      7  C   LIG    1       22.470 -21.572   6.459  0.00  0.00    +0.000 A 
ATOM      8  C   LIG    1       22.273 -21.019   5.199  0.00  0.00    +0.000 A 
ATOM      9  C   LIG    1       23.332 -20.390   4.539  0.00  0.00    +0.007 A 
ENDBRANCH   3   4
BRANCH   3  10
ATOM     10  C   LIG    1       27.070 -19.459   5.136  0.00  0.00    -0.001 A 
ATOM     11  C   LIG    1       27.332 -20.234   6.286  0.00  0.00    +0.007 A 
ATOM     12  C   LIG    1       28.507 -20.058   7.027  0.00  0.00    +0.000 A 
ATOM     13  C   LIG    1       29.438 -19.096   6.646  0.00  0.00    +0.000 A 
ATOM     14  C   LIG    1       29.196 -18.311   5.525  0.00  0.00    +0.000 A 
ATOM     15  C   LIG    1       28.030 -18.495   4.776  0.00  0.00    +0.007 A 
ENDBRANCH   3  10
BRANCH   3  16
ATOM     16  O   LIG    1       26.101 -20.602   3.270  0.00  0.00    -0.370 OA
ATOM     17  H   LIG    1       25.868 -20.152   2.436  0.00  0.00    +0.212 HD
ENDBRANCH   3  16
ENDBRANCH   2   3
BRANCH   2  18
ATOM     18  O   LIG    1       25.828 -17.223   4.125  0.00  0.00    -0.459 OA
BRANCH  18  19
ATOM     19  C   LIG    1       25.404 -15.964   3.548  0.00  0.00    +0.187 C 
ATOM     20  C   LIG    1       26.451 -15.554   2.503  0.00  0.00    +0.099 C 
ATOM     21  C   LIG    1       26.599 -14.037   2.320  0.00  0.00    +0.070 C 
ATOM     22  N   LIG    1       26.893 -13.393   3.684  0.00  0.00    +0.248 N 
ATOM     23  C   LIG    1       25.501 -13.513   4.337  0.00  0.00    +0.070 C 
ATOM     24  C   LIG    1       24.564 -13.033   3.219  0.00  0.00    +0.060 C 
ATOM     25  C   LIG    1       27.319 -11.890   3.545  0.00  0.00    +0.134 C 
ATOM     26  C   LIG    1       28.699 -11.793   4.168  0.00  0.00    +0.056 C 
ATOM     27  C   LIG    1       28.697 -12.884   5.210  0.00  0.00    +0.056 C 
ATOM     28  C   LIG    1       28.064 -14.032   4.456  0.00  0.00    +0.134 C 
ATOM     29  C   LIG    1       25.272 -13.384   1.911  0.00  0.00    +0.060 C 
ATOM     30  C   LIG    1       25.211 -14.972   4.702  0.00  0.00    +0.099 C 
ENDBRANCH  18  19
ENDBRANCH   2  18
TORSDOF 6
ENDMDL
