MODEL 1
REMARK VINA RESULT:      -5.0      0.000      0.000
REMARK  Name = *****
REMARK                            x       y       z     vdW  Elec       q    Type
REMARK                         _______ _______ _______ _____ _____    ______ ____
ROOT
ATOM      1  C   LIG    1       22.843 -20.875   5.496  0.00  0.00    +0.406 C 
ATOM      2  F   LIG    1       21.748 -21.192   4.762  0.00  0.00    -0.170 F 
ATOM      3  F   LIG    1       22.672 -21.405   6.730  0.00  0.00    -0.170 F 
ENDROOT
BRANCH   1   4
ATOM      4  C   LIG    1       24.122 -21.450   4.874  0.00  0.00    +0.355 C 
ATOM      5 CL   LIG    1       25.563 -20.458   5.230  0.00  0.00    -0.076 Cl
ATOM      6  F   LIG    1       23.991 -21.535   3.520  0.00  0.00    -0.219 F 
ENDBRANCH   1   4
BRANCH   1   7
ATOM      7  O   LIG    1       22.906 -19.465   5.627  0.00  0.00    -0.255 OA
BRANCH   7   9
ATOM      8  F   LIG    1       21.901 -17.622   4.828  0.00  0.00    -0.178 F 
ATOM      9  C   LIG    1       22.343 -18.856   4.495  0.00  0.00    +0.487 C 
ATOM     10  F   LIG    1       23.345 -18.675   3.604  0.00  0.00    -0.178 F 
ENDBRANCH   7   9
ENDBRANCH   1   7
TORSDOF 3
ENDMDL
MODEL 2
REMARK VINA RESULT:      -5.0      1.529      2.328
REMARK  Name = *****
REMARK                            x       y       z     vdW  Elec       q    Type
REMARK                         _______ _______ _______ _____ _____    ______ ____
ROOT
ATOM      1  C   LIG    1       23.678 -19.995   4.421  0.00  0.00    +0.406 C 
ATOM      2  F   LIG    1       24.972 -19.824   4.789  0.00  0.00    -0.170 F 
ATOM      3  F   LIG    1       23.644 -21.007   3.521  0.00  0.00    -0.170 F 
ENDROOT
BRANCH   1   4
ATOM      4  C   LIG    1       22.795 -20.359   5.621  0.00  0.00    +0.355 C 
ATOM      5 CL   LIG    1       23.747 -20.830   7.055  0.00  0.00    -0.076 Cl
ATOM      6  F   LIG    1       21.969 -21.395   5.301  0.00  0.00    -0.219 F 
ENDBRANCH   1   4
BRANCH   1   7
ATOM      7  O   LIG    1       23.233 -18.816   3.774  0.00  0.00    -0.255 OA
BRANCH   7   9
ATOM      8  F   LIG    1       22.352 -16.944   4.649  0.00  0.00    -0.178 F 
ATOM      9  C   LIG    1       22.146 -18.269   4.474  0.00  0.00    +0.487 C 
ATOM     10  F   LIG    1       21.061 -18.385   3.673  0.00  0.00    -0.178 F 
ENDBRANCH   7   9
ENDBRANCH   1   7
TORSDOF 3
ENDMDL
MODEL 3
REMARK VINA RESULT:      -4.9      6.732      7.983
REMARK  Name = *****
REMARK                            x       y       z     vdW  Elec       q    Type
REMARK                         _______ _______ _______ _____ _____    ______ ____
ROOT
ATOM      1  C   LIG    1       26.530 -14.517   3.253  0.00  0.00    +0.406 C 
ATOM      2  F   LIG    1       26.182 -15.824   3.159  0.00  0.00    -0.170 F 
ATOM      3  F   LIG    1       26.816 -14.082   2.003  0.00  0.00    -0.170 F 
ENDROOT
BRANCH   1   4
ATOM      4  C   LIG    1       25.390 -13.671   3.832  0.00  0.00    +0.355 C 
ATOM      5 CL   LIG    1       23.904 -14.620   4.107  0.00  0.00    -0.076 Cl
ATOM      6  F   LIG    1       25.087 -12.645   2.985  0.00  0.00    -0.219 F 
ENDBRANCH   1   4
BRANCH   1   7
ATOM      7  O   LIG    1       27.710 -14.419   4.033  0.00  0.00    -0.255 OA
BRANCH   7   9
ATOM      8  F   LIG    1       28.261 -12.616   5.254  0.00  0.00    -0.178 F 
ATOM      9  C   LIG    1       28.199 -13.104   3.994  0.00  0.00    +0.487 C 
ATOM     10  F   LIG    1       29.474 -13.169   3.546  0.00  0.00    -0.178 F 
ENDBRANCH   7   9
ENDBRANCH   1   7
TORSDOF 3
ENDMDL
MODEL 4
REMARK VINA RESULT:      -4.8      6.514      7.230
REMARK  Name = *****
REMARK                            x       y       z     vdW  Elec       q    Type
REMARK                         _______ _______ _______ _____ _____    ______ ____
ROOT
ATOM      1  C   LIG    1       26.664 -14.626   3.430  0.00  0.00    +0.406 C 
ATOM      2  F   LIG    1       26.775 -14.281   2.124  0.00  0.00    -0.170 F 
ATOM      3  F   LIG    1       27.470 -15.695   3.637  0.00  0.00    -0.170 F 
ENDROOT
BRANCH   1   4
ATOM      4  C   LIG    1       27.099 -13.481   4.353  0.00  0.00    +0.355 C 
ATOM      5 CL   LIG    1       28.720 -12.853   3.948  0.00  0.00    -0.076 Cl
ATOM      6  F   LIG    1       27.120 -13.903   5.650  0.00  0.00    -0.219 F 
ENDBRANCH   1   4
BRANCH   1   7
ATOM      7  O   LIG    1       25.328 -15.028   3.680  0.00  0.00    -0.255 OA
BRANCH   7   9
ATOM      8  F   LIG    1       23.957 -13.522   2.733  0.00  0.00    -0.178 F 
ATOM      9  C   LIG    1       24.524 -13.900   3.901  0.00  0.00    +0.487 C 
ATOM     10  F   LIG    1       23.512 -14.288   4.710  0.00  0.00    -0.178 F 
ENDBRANCH   7   9
ENDBRANCH   1   7
TORSDOF 3
ENDMDL
MODEL 5
REMARK VINA RESULT:      -4.8      5.992      7.183
REMARK  Name = *****
REMARK                            x       y       z     vdW  Elec       q    Type
REMARK                         _______ _______ _______ _____ _____    ______ ____
ROOT
ATOM      1  C   LIG    1       26.102 -13.675   4.077  0.00  0.00    +0.406 C 
ATOM      2  F   LIG    1       25.674 -12.901   5.104  0.00  0.00    -0.170 F 
ATOM      3  F   LIG    1       26.116 -12.901   2.965  0.00  0.00    -0.170 F 
ENDROOT
BRANCH   1   4
ATOM      4  C   LIG    1       27.514 -14.217   4.330  0.00  0.00    +0.355 C 
ATOM      5 CL   LIG    1       28.788 -13.112   3.744  0.00  0.00    -0.076 Cl
ATOM      6  F   LIG    1       27.676 -15.419   3.708  0.00  0.00    -0.219 F 
ENDBRANCH   1   4
BRANCH   1   7
ATOM      7  O   LIG    1       25.163 -14.717   3.875  0.00  0.00    -0.255 OA
BRANCH   7   9
ATOM      8  F   LIG    1       23.361 -13.736   2.960  0.00  0.00    -0.178 F 
ATOM      9  C   LIG    1       23.864 -14.241   4.110  0.00  0.00    +0.487 C 
ATOM     10  F   LIG    1       23.100 -15.313   4.423  0.00  0.00    -0.178 F 
ENDBRANCH   7   9
ENDBRANCH   1   7
TORSDOF 3
ENDMDL
MODEL 6
REMARK VINA RESULT:      -4.8      1.651      2.207
REMARK  Name = *****
REMARK                            x       y       z     vdW  Elec       q    Type
REMARK                         _______ _______ _______ _____ _____    ______ ____
ROOT
ATOM      1  C   LIG    1       24.157 -20.288   3.901  0.00  0.00    +0.406 C 
ATOM      2  F   LIG    1       24.341 -20.526   2.579  0.00  0.00    -0.170 F 
ATOM      3  F   LIG    1       23.271 -21.204   4.359  0.00  0.00    -0.170 F 
ENDROOT
BRANCH   1   4
ATOM      4  C   LIG    1       25.469 -20.421   4.684  0.00  0.00    +0.355 C 
ATOM      5 CL   LIG    1       25.204 -20.609   6.439  0.00  0.00    -0.076 Cl
ATOM      6  F   LIG    1       26.249 -19.320   4.488  0.00  0.00    -0.219 F 
ENDBRANCH   1   4
BRANCH   1   7
ATOM      7  O   LIG    1       23.579 -19.003   4.052  0.00  0.00    -0.255 OA
BRANCH   7   9
ATOM      8  F   LIG    1       22.374 -19.082   5.946  0.00  0.00    -0.178 F 
ATOM      9  C   LIG    1       22.291 -19.121   4.597  0.00  0.00    +0.487 C 
ATOM     10  F   LIG    1       21.601 -18.018   4.224  0.00  0.00    -0.178 F 
ENDBRANCH   7   9
ENDBRANCH   1   7
TORSDOF 3
ENDMDL
MODEL 7
REMARK VINA RESULT:      -4.7      2.432      3.624
REMARK  Name = *****
REMARK                            x       y       z     vdW  Elec       q    Type
REMARK                         _______ _______ _______ _____ _____    ______ ____
ROOT
ATOM      1  C   LIG    1       24.097 -20.619   4.480  0.00  0.00    +0.406 C 
ATOM      2  F   LIG    1       23.988 -21.303   3.315  0.00  0.00    -0.170 F 
ATOM      3  F   LIG    1       24.820 -19.502   4.229  0.00  0.00    -0.170 F 
ENDROOT
BRANCH   1   4
ATOM      4  C   LIG    1       22.722 -20.216   5.026  0.00  0.00    +0.355 C 
ATOM      5 CL   LIG    1       22.277 -18.542   4.595  0.00  0.00    -0.076 Cl
ATOM      6  F   LIG    1       22.705 -20.322   6.386  0.00  0.00    -0.219 F 
ENDBRANCH   1   4
BRANCH   1   7
ATOM      7  O   LIG    1       24.821 -21.414   5.404  0.00  0.00    -0.255 OA
BRANCH   7   9
ATOM      8  F   LIG    1       25.509 -20.062   7.061  0.00  0.00    -0.178 F 
ATOM      9  C   LIG    1       25.899 -20.679   5.923  0.00  0.00    +0.487 C 
ATOM     10  F   LIG    1       26.851 -21.572   6.278  0.00  0.00    -0.178 F 
ENDBRANCH   7   9
ENDBRANCH   1   7
TORSDOF 3
ENDMDL
MODEL 8
REMARK VINA RESULT:      -4.7      1.586      2.970
REMARK  Name = *****
REMARK                            x       y       z     vdW  Elec       q    Type
REMARK                         _______ _______ _______ _____ _____    ______ ____
ROOT
ATOM      1  C   LIG    1       24.241 -20.008   3.648  0.00  0.00    +0.406 C 
ATOM      2  F   LIG    1       23.450 -18.910   3.571  0.00  0.00    -0.170 F 
ATOM      3  F   LIG    1       24.098 -20.694   2.489  0.00  0.00    -0.170 F 
ENDROOT
BRANCH   1   4
ATOM      4  C   LIG    1       25.716 -19.627   3.828  0.00  0.00    +0.355 C 
ATOM      5 CL   LIG    1       26.357 -20.105   5.424  0.00  0.00    -0.076 Cl
ATOM      6  F   LIG    1       25.874 -18.279   3.695  0.00  0.00    -0.219 F 
ENDBRANCH   1   4
BRANCH   1   7
ATOM      7  O   LIG    1       23.773 -20.828   4.705  0.00  0.00    -0.255 OA
BRANCH   7   9
ATOM      8  F   LIG    1       21.566 -21.097   5.028  0.00  0.00    -0.178 F 
ATOM      9  C   LIG    1       22.612 -20.271   5.262  0.00  0.00    +0.487 C 
ATOM     10  F   LIG    1       22.787 -20.248   6.604  0.00  0.00    -0.178 F 
ENDBRANCH   7   9
ENDBRANCH   1   7
TORSDOF 3
ENDMDL
MODEL 9
REMARK VINA RESULT:      -4.7      6.660      7.844
REMARK  Name = *****
REMARK                            x       y       z     vdW  Elec       q    Type
REMARK                         _______ _______ _______ _____ _____    ______ ____
ROOT
ATOM      1  C   LIG    1       25.336 -14.030   3.912  0.00  0.00    +0.406 C 
ATOM      2  F   LIG    1       25.587 -13.851   5.232  0.00  0.00    -0.170 F 
ATOM      3  F   LIG    1       24.993 -15.328   3.737  0.00  0.00    -0.170 F 
ENDROOT
BRANCH   1   4
ATOM      4  C   LIG    1       24.187 -13.136   3.432  0.00  0.00    +0.355 C 
ATOM      5 CL   LIG    1       24.620 -12.180   1.987  0.00  0.00    -0.076 Cl
ATOM      6  F   LIG    1       23.820 -12.269   4.419  0.00  0.00    -0.219 F 
ENDBRANCH   1   4
BRANCH   1   7
ATOM      7  O   LIG    1       26.532 -13.790   3.189  0.00  0.00    -0.255 OA
BRANCH   7   9
ATOM      8  F   LIG    1       27.901 -15.291   4.146  0.00  0.00    -0.178 F 
ATOM      9  C   LIG    1       27.641 -13.969   4.029  0.00  0.00    +0.487 C 
ATOM     10  F   LIG    1       28.707 -13.424   3.399  0.00  0.00    -0.178 F 
ENDBRANCH   7   9
ENDBRANCH   1   7
TORSDOF 3
ENDMDL
