MODEL 1
REMARK VINA RESULT:      -8.7      0.000      0.000
REMARK  Name = *****
REMARK                            x       y       z     vdW  Elec       q    Type
REMARK                         _______ _______ _______ _____ _____    ______ ____
ROOT
ATOM      1  C   LIG    1       25.158 -25.936   6.149  0.00  0.00    +0.028 A 
ATOM      2  C   LIG    1       23.828 -25.514   6.201  0.00  0.00    +0.069 A 
ATOM      3  C   LIG    1       23.502 -24.233   6.656  0.00  0.00    +0.133 A 
ATOM      4  C   LIG    1       24.511 -23.330   7.017  0.00  0.00    +0.101 A 
ATOM      5  C   LIG    1       25.849 -23.734   6.911  0.00  0.00    +0.020 A 
ATOM      6  C   LIG    1       26.164 -25.020   6.462  0.00  0.00    +0.024 A 
ENDROOT
BRANCH   1   7
ATOM      7  N   LIG    1       25.490 -27.167   5.575  0.00  0.00    -0.358 N 
ATOM      8  H   LIG    1       26.345 -27.574   5.943  0.00  0.00    +0.142 HD
ATOM      9  H   LIG    1       25.472 -27.167   4.560  0.00  0.00    +0.142 HD
ENDBRANCH   1   7
BRANCH   3  10
ATOM     10  O   LIG    1       22.165 -23.938   6.713  0.00  0.00    -0.506 OA
ATOM     11  H   LIG    1       22.019 -23.041   6.338  0.00  0.00    +0.292 HD
ENDBRANCH   3  10
BRANCH   4  12
ATOM     12  C   LIG    1       24.145 -21.969   7.483  0.00  0.00    +0.348 C 
ATOM     13  O   LIG    1       24.655 -21.463   8.475  0.00  0.00    -0.244 OA
BRANCH  12  14
ATOM     14  O   LIG    1       23.188 -21.422   6.646  0.00  0.00    -0.422 OA
BRANCH  14  15
ATOM     15  C   LIG    1       23.543 -20.523   5.623  0.00  0.00    +0.132 A 
ATOM     16  C   LIG    1       22.565 -19.599   5.250  0.00  0.00    +0.046 A 
ATOM     17  C   LIG    1       22.822 -18.712   4.205  0.00  0.00    +0.004 A 
ATOM     18  C   LIG    1       24.048 -18.758   3.538  0.00  0.00    +0.000 A 
ATOM     19  C   LIG    1       25.010 -19.699   3.906  0.00  0.00    +0.004 A 
ATOM     20  C   LIG    1       24.757 -20.594   4.943  0.00  0.00    +0.046 A 
ENDBRANCH  14  15
ENDBRANCH  12  14
ENDBRANCH   4  12
TORSDOF 5
ENDMDL
MODEL 2
REMARK VINA RESULT:      -8.2      0.766      2.037
REMARK  Name = *****
REMARK                            x       y       z     vdW  Elec       q    Type
REMARK                         _______ _______ _______ _____ _____    ______ ____
ROOT
ATOM      1  C   LIG    1       25.464 -26.048   6.134  0.00  0.00    +0.028 A 
ATOM      2  C   LIG    1       26.286 -24.997   6.546  0.00  0.00    +0.069 A 
ATOM      3  C   LIG    1       25.743 -23.750   6.868  0.00  0.00    +0.133 A 
ATOM      4  C   LIG    1       24.356 -23.549   6.835  0.00  0.00    +0.101 A 
ATOM      5  C   LIG    1       23.527 -24.621   6.477  0.00  0.00    +0.020 A 
ATOM      6  C   LIG    1       24.081 -25.862   6.149  0.00  0.00    +0.024 A 
ENDROOT
BRANCH   1   7
ATOM      7  N   LIG    1       25.994 -27.328   5.937  0.00  0.00    -0.358 N 
ATOM      8  H   LIG    1       26.391 -27.470   5.013  0.00  0.00    +0.142 HD
ATOM      9  H   LIG    1       25.367 -28.079   6.204  0.00  0.00    +0.142 HD
ENDBRANCH   1   7
BRANCH   3  10
ATOM     10  O   LIG    1       26.642 -22.774   7.213  0.00  0.00    -0.506 OA
ATOM     11  H   LIG    1       26.884 -22.263   6.409  0.00  0.00    +0.292 HD
ENDBRANCH   3  10
BRANCH   4  12
ATOM     12  C   LIG    1       23.798 -22.222   7.195  0.00  0.00    +0.348 C 
ATOM     13  O   LIG    1       24.135 -21.630   8.212  0.00  0.00    -0.244 OA
BRANCH  12  14
ATOM     14  O   LIG    1       22.891 -21.813   6.234  0.00  0.00    -0.422 OA
BRANCH  14  15
ATOM     15  C   LIG    1       23.207 -20.791   5.320  0.00  0.00    +0.132 A 
ATOM     16  C   LIG    1       24.457 -20.881   4.705  0.00  0.00    +0.046 A 
ATOM     17  C   LIG    1       24.865 -19.875   3.829  0.00  0.00    +0.004 A 
ATOM     18  C   LIG    1       24.028 -18.787   3.580  0.00  0.00    +0.000 A 
ATOM     19  C   LIG    1       22.789 -18.696   4.217  0.00  0.00    +0.004 A 
ATOM     20  C   LIG    1       22.379 -19.692   5.100  0.00  0.00    +0.046 A 
ENDBRANCH  14  15
ENDBRANCH  12  14
ENDBRANCH   4  12
TORSDOF 5
ENDMDL
MODEL 3
REMARK VINA RESULT:      -8.2      4.278      6.137
REMARK  Name = *****
REMARK                            x       y       z     vdW  Elec       q    Type
REMARK                         _______ _______ _______ _____ _____    ______ ____
ROOT
ATOM      1  C   LIG    1       30.588 -19.615   7.188  0.00  0.00    +0.028 A 
ATOM      2  C   LIG    1       29.983 -18.907   6.147  0.00  0.00    +0.069 A 
ATOM      3  C   LIG    1       28.668 -19.185   5.764  0.00  0.00    +0.133 A 
ATOM      4  C   LIG    1       27.915 -20.144   6.455  0.00  0.00    +0.101 A 
ATOM      5  C   LIG    1       28.503 -20.815   7.536  0.00  0.00    +0.020 A 
ATOM      6  C   LIG    1       29.822 -20.534   7.906  0.00  0.00    +0.024 A 
ENDROOT
BRANCH   1   7
ATOM      7  N   LIG    1       31.855 -19.248   7.653  0.00  0.00    -0.358 N 
ATOM      8  H   LIG    1       31.954 -18.253   7.832  0.00  0.00    +0.142 HD
ATOM      9  H   LIG    1       32.621 -19.615   7.097  0.00  0.00    +0.142 HD
ENDBRANCH   1   7
BRANCH   3  10
ATOM     10  O   LIG    1       28.187 -18.466   4.700  0.00  0.00    -0.506 OA
ATOM     11  H   LIG    1       27.489 -17.852   5.018  0.00  0.00    +0.292 HD
ENDBRANCH   3  10
BRANCH   4  12
ATOM     12  C   LIG    1       26.515 -20.414   6.042  0.00  0.00    +0.348 C 
ATOM     13  O   LIG    1       26.124 -20.211   4.900  0.00  0.00    -0.244 OA
BRANCH  12  14
ATOM     14  O   LIG    1       25.790 -20.904   7.115  0.00  0.00    -0.422 OA
BRANCH  14  15
ATOM     15  C   LIG    1       25.005 -22.065   6.996  0.00  0.00    +0.132 A 
ATOM     16  C   LIG    1       25.700 -23.260   6.802  0.00  0.00    +0.046 A 
ATOM     17  C   LIG    1       24.989 -24.446   6.619  0.00  0.00    +0.004 A 
ATOM     18  C   LIG    1       23.593 -24.428   6.625  0.00  0.00    +0.000 A 
ATOM     19  C   LIG    1       22.908 -23.225   6.799  0.00  0.00    +0.004 A 
ATOM     20  C   LIG    1       23.612 -22.036   6.973  0.00  0.00    +0.046 A 
ENDBRANCH  14  15
ENDBRANCH  12  14
ENDBRANCH   4  12
TORSDOF 5
ENDMDL
MODEL 4
REMARK VINA RESULT:      -8.2      3.162      3.938
REMARK  Name = *****
REMARK                            x       y       z     vdW  Elec       q    Type
REMARK                         _______ _______ _______ _____ _____    ______ ____
ROOT
ATOM      1  C   LIG    1       24.256 -24.306   6.428  0.00  0.00    +0.028 A 
ATOM      2  C   LIG    1       23.606 -23.129   6.805  0.00  0.00    +0.069 A 
ATOM      3  C   LIG    1       24.281 -22.143   7.531  0.00  0.00    +0.133 A 
ATOM      4  C   LIG    1       25.637 -22.296   7.848  0.00  0.00    +0.101 A 
ATOM      5  C   LIG    1       26.304 -23.453   7.420  0.00  0.00    +0.020 A 
ATOM      6  C   LIG    1       25.618 -24.437   6.701  0.00  0.00    +0.024 A 
ENDROOT
BRANCH   1   7
ATOM      7  N   LIG    1       23.619 -25.231   5.594  0.00  0.00    -0.358 N 
ATOM      8  H   LIG    1       23.233 -24.823   4.748  0.00  0.00    +0.142 HD
ATOM      9  H   LIG    1       22.949 -25.825   6.072  0.00  0.00    +0.142 HD
ENDBRANCH   1   7
BRANCH   3  10
ATOM     10  O   LIG    1       23.538 -21.049   7.892  0.00  0.00    -0.506 OA
ATOM     11  H   LIG    1       24.139 -20.283   8.024  0.00  0.00    +0.292 HD
ENDBRANCH   3  10
BRANCH   4  12
ATOM     12  C   LIG    1       26.339 -21.232   8.606  0.00  0.00    +0.348 C 
ATOM     13  O   LIG    1       25.742 -20.460   9.346  0.00  0.00    -0.244 OA
BRANCH  12  14
ATOM     14  O   LIG    1       27.696 -21.274   8.338  0.00  0.00    -0.422 OA
BRANCH  14  15
ATOM     15  C   LIG    1       28.315 -20.287   7.549  0.00  0.00    +0.132 A 
ATOM     16  C   LIG    1       27.832 -20.148   6.247  0.00  0.00    +0.046 A 
ATOM     17  C   LIG    1       28.432 -19.229   5.387  0.00  0.00    +0.004 A 
ATOM     18  C   LIG    1       29.511 -18.462   5.830  0.00  0.00    +0.000 A 
ATOM     19  C   LIG    1       29.999 -18.623   7.128  0.00  0.00    +0.004 A 
ATOM     20  C   LIG    1       29.410 -19.546   7.989  0.00  0.00    +0.046 A 
ENDBRANCH  14  15
ENDBRANCH  12  14
ENDBRANCH   4  12
TORSDOF 5
ENDMDL
MODEL 5
REMARK VINA RESULT:      -8.1      7.689      8.818
REMARK  Name = *****
REMARK                            x       y       z     vdW  Elec       q    Type
REMARK                         _______ _______ _______ _____ _____    ______ ____
ROOT
ATOM      1  C   LIG    1       28.104 -19.890   5.745  0.00  0.00    +0.028 A 
ATOM      2  C   LIG    1       28.288 -20.707   6.863  0.00  0.00    +0.069 A 
ATOM      3  C   LIG    1       29.402 -20.542   7.691  0.00  0.00    +0.133 A 
ATOM      4  C   LIG    1       30.326 -19.518   7.443  0.00  0.00    +0.101 A 
ATOM      5  C   LIG    1       30.111 -18.663   6.354  0.00  0.00    +0.020 A 
ATOM      6  C   LIG    1       28.997 -18.841   5.527  0.00  0.00    +0.024 A 
ENDROOT
BRANCH   1   7
ATOM      7  N   LIG    1       26.927 -19.972   4.994  0.00  0.00    -0.358 N 
ATOM      8  H   LIG    1       26.101 -19.646   5.488  0.00  0.00    +0.142 HD
ATOM      9  H   LIG    1       26.779 -20.875   4.556  0.00  0.00    +0.142 HD
ENDBRANCH   1   7
BRANCH   3  10
ATOM     10  O   LIG    1       29.513 -21.427   8.732  0.00  0.00    -0.506 OA
ATOM     11  H   LIG    1       30.455 -21.486   9.004  0.00  0.00    +0.292 HD
ENDBRANCH   3  10
BRANCH   4  12
ATOM     12  C   LIG    1       31.495 -19.351   8.343  0.00  0.00    +0.348 C 
ATOM     13  O   LIG    1       31.994 -20.294   8.941  0.00  0.00    -0.244 OA
BRANCH  12  14
ATOM     14  O   LIG    1       31.882 -18.022   8.375  0.00  0.00    -0.422 OA
BRANCH  14  15
ATOM     15  C   LIG    1       32.029 -17.335   9.594  0.00  0.00    +0.132 A 
ATOM     16  C   LIG    1       31.100 -17.642  10.589  0.00  0.00    +0.046 A 
ATOM     17  C   LIG    1       31.146 -16.961  11.806  0.00  0.00    +0.004 A 
ATOM     18  C   LIG    1       32.113 -15.976  12.015  0.00  0.00    +0.000 A 
ATOM     19  C   LIG    1       33.024 -15.662  11.006  0.00  0.00    +0.004 A 
ATOM     20  C   LIG    1       32.978 -16.332   9.786  0.00  0.00    +0.046 A 
ENDBRANCH  14  15
ENDBRANCH  12  14
ENDBRANCH   4  12
TORSDOF 5
ENDMDL
MODEL 6
REMARK VINA RESULT:      -8.1      2.932      5.368
REMARK  Name = *****
REMARK                            x       y       z     vdW  Elec       q    Type
REMARK                         _______ _______ _______ _____ _____    ______ ____
ROOT
ATOM      1  C   LIG    1       28.469 -19.852   6.889  0.00  0.00    +0.028 A 
ATOM      2  C   LIG    1       27.829 -20.122   8.101  0.00  0.00    +0.069 A 
ATOM      3  C   LIG    1       26.476 -20.470   8.132  0.00  0.00    +0.133 A 
ATOM      4  C   LIG    1       25.750 -20.606   6.941  0.00  0.00    +0.101 A 
ATOM      5  C   LIG    1       26.406 -20.390   5.721  0.00  0.00    +0.020 A 
ATOM      6  C   LIG    1       27.759 -20.036   5.701  0.00  0.00    +0.024 A 
ENDROOT
BRANCH   1   7
ATOM      7  N   LIG    1       29.849 -19.631   6.849  0.00  0.00    -0.358 N 
ATOM      8  H   LIG    1       30.251 -19.380   7.747  0.00  0.00    +0.142 HD
ATOM      9  H   LIG    1       30.145 -19.004   6.109  0.00  0.00    +0.142 HD
ENDBRANCH   1   7
BRANCH   3  10
ATOM     10  O   LIG    1       25.934 -20.667   9.376  0.00  0.00    -0.506 OA
ATOM     11  H   LIG    1       26.118 -19.878   9.933  0.00  0.00    +0.292 HD
ENDBRANCH   3  10
BRANCH   4  12
ATOM     12  C   LIG    1       24.317 -20.991   6.994  0.00  0.00    +0.348 C 
ATOM     13  O   LIG    1       23.442 -20.307   6.481  0.00  0.00    -0.244 OA
BRANCH  12  14
ATOM     14  O   LIG    1       24.171 -22.181   7.685  0.00  0.00    -0.422 OA
BRANCH  14  15
ATOM     15  C   LIG    1       24.522 -23.411   7.100  0.00  0.00    +0.132 A 
ATOM     16  C   LIG    1       23.466 -24.192   6.627  0.00  0.00    +0.046 A 
ATOM     17  C   LIG    1       23.731 -25.449   6.085  0.00  0.00    +0.004 A 
ATOM     18  C   LIG    1       25.043 -25.919   6.026  0.00  0.00    +0.000 A 
ATOM     19  C   LIG    1       26.090 -25.139   6.520  0.00  0.00    +0.004 A 
ATOM     20  C   LIG    1       25.832 -23.887   7.071  0.00  0.00    +0.046 A 
ENDBRANCH  14  15
ENDBRANCH  12  14
ENDBRANCH   4  12
TORSDOF 5
ENDMDL
MODEL 7
REMARK VINA RESULT:      -7.8      4.052      5.898
REMARK  Name = *****
REMARK                            x       y       z     vdW  Elec       q    Type
REMARK                         _______ _______ _______ _____ _____    ______ ____
ROOT
ATOM      1  C   LIG    1       30.453 -20.202   7.469  0.00  0.00    +0.028 A 
ATOM      2  C   LIG    1       29.940 -19.471   6.396  0.00  0.00    +0.069 A 
ATOM      3  C   LIG    1       28.607 -19.620   6.003  0.00  0.00    +0.133 A 
ATOM      4  C   LIG    1       27.746 -20.467   6.714  0.00  0.00    +0.101 A 
ATOM      5  C   LIG    1       28.247 -21.158   7.826  0.00  0.00    +0.020 A 
ATOM      6  C   LIG    1       29.584 -21.008   8.207  0.00  0.00    +0.024 A 
ENDROOT
BRANCH   1   7
ATOM      7  N   LIG    1       31.746 -19.957   7.941  0.00  0.00    -0.358 N 
ATOM      8  H   LIG    1       32.418 -20.676   7.689  0.00  0.00    +0.142 HD
ATOM      9  H   LIG    1       31.789 -19.723   8.927  0.00  0.00    +0.142 HD
ENDBRANCH   1   7
BRANCH   3  10
ATOM     10  O   LIG    1       28.218 -18.892   4.908  0.00  0.00    -0.506 OA
ATOM     11  H   LIG    1       27.514 -19.383   4.430  0.00  0.00    +0.292 HD
ENDBRANCH   3  10
BRANCH   4  12
ATOM     12  C   LIG    1       26.331 -20.600   6.290  0.00  0.00    +0.348 C 
ATOM     13  O   LIG    1       25.915 -20.105   5.250  0.00  0.00    -0.244 OA
BRANCH  12  14
ATOM     14  O   LIG    1       25.622 -21.334   7.224  0.00  0.00    -0.422 OA
BRANCH  14  15
ATOM     15  C   LIG    1       25.118 -22.612   6.918  0.00  0.00    +0.132 A 
ATOM     16  C   LIG    1       23.728 -22.739   6.907  0.00  0.00    +0.046 A 
ATOM     17  C   LIG    1       23.154 -23.987   6.667  0.00  0.00    +0.004 A 
ATOM     18  C   LIG    1       23.970 -25.097   6.446  0.00  0.00    +0.000 A 
ATOM     19  C   LIG    1       25.359 -24.963   6.479  0.00  0.00    +0.004 A 
ATOM     20  C   LIG    1       25.939 -23.722   6.727  0.00  0.00    +0.046 A 
ENDBRANCH  14  15
ENDBRANCH  12  14
ENDBRANCH   4  12
TORSDOF 5
ENDMDL
MODEL 8
REMARK VINA RESULT:      -7.7      4.686      5.884
REMARK  Name = *****
REMARK                            x       y       z     vdW  Elec       q    Type
REMARK                         _______ _______ _______ _____ _____    ______ ____
ROOT
ATOM      1  C   LIG    1       30.882 -20.491   8.154  0.00  0.00    +0.028 A 
ATOM      2  C   LIG    1       30.935 -19.406   7.276  0.00  0.00    +0.069 A 
ATOM      3  C   LIG    1       29.893 -19.165   6.376  0.00  0.00    +0.133 A 
ATOM      4  C   LIG    1       28.751 -19.977   6.377  0.00  0.00    +0.101 A 
ATOM      5  C   LIG    1       28.673 -21.032   7.297  0.00  0.00    +0.020 A 
ATOM      6  C   LIG    1       29.725 -21.269   8.188  0.00  0.00    +0.024 A 
ENDROOT
BRANCH   1   7
ATOM      7  N   LIG    1       31.863 -20.656   9.137  0.00  0.00    -0.358 N 
ATOM      8  H   LIG    1       32.445 -21.477   9.003  0.00  0.00    +0.142 HD
ATOM      9  H   LIG    1       31.511 -20.587  10.086  0.00  0.00    +0.142 HD
ENDBRANCH   1   7
BRANCH   3  10
ATOM     10  O   LIG    1       30.067 -18.103   5.526  0.00  0.00    -0.506 OA
ATOM     11  H   LIG    1       29.902 -18.401   4.605  0.00  0.00    +0.292 HD
ENDBRANCH   3  10
BRANCH   4  12
ATOM     12  C   LIG    1       27.649 -19.695   5.424  0.00  0.00    +0.348 C 
ATOM     13  O   LIG    1       27.633 -18.687   4.729  0.00  0.00    -0.244 OA
BRANCH  12  14
ATOM     14  O   LIG    1       26.711 -20.712   5.469  0.00  0.00    -0.422 OA
BRANCH  14  15
ATOM     15  C   LIG    1       25.332 -20.434   5.436  0.00  0.00    +0.132 A 
ATOM     16  C   LIG    1       24.610 -20.768   6.582  0.00  0.00    +0.046 A 
ATOM     17  C   LIG    1       23.229 -20.575   6.604  0.00  0.00    +0.004 A 
ATOM     18  C   LIG    1       22.581 -20.057   5.482  0.00  0.00    +0.000 A 
ATOM     19  C   LIG    1       23.310 -19.745   4.334  0.00  0.00    +0.004 A 
ATOM     20  C   LIG    1       24.688 -19.944   4.302  0.00  0.00    +0.046 A 
ENDBRANCH  14  15
ENDBRANCH  12  14
ENDBRANCH   4  12
TORSDOF 5
ENDMDL
MODEL 9
REMARK VINA RESULT:      -7.7      4.121      6.014
REMARK  Name = *****
REMARK                            x       y       z     vdW  Elec       q    Type
REMARK                         _______ _______ _______ _____ _____    ______ ____
ROOT
ATOM      1  C   LIG    1       30.543 -19.423   7.258  0.00  0.00    +0.028 A 
ATOM      2  C   LIG    1       29.832 -20.374   7.995  0.00  0.00    +0.069 A 
ATOM      3  C   LIG    1       28.519 -20.707   7.650  0.00  0.00    +0.133 A 
ATOM      4  C   LIG    1       27.911 -20.132   6.526  0.00  0.00    +0.101 A 
ATOM      5  C   LIG    1       28.645 -19.221   5.754  0.00  0.00    +0.020 A 
ATOM      6  C   LIG    1       29.955 -18.888   6.111  0.00  0.00    +0.024 A 
ENDROOT
BRANCH   1   7
ATOM      7  N   LIG    1       31.895 -19.186   7.525  0.00  0.00    -0.358 N 
ATOM      8  H   LIG    1       32.459 -19.044   6.692  0.00  0.00    +0.142 HD
ATOM      9  H   LIG    1       32.314 -19.857   8.161  0.00  0.00    +0.142 HD
ENDBRANCH   1   7
BRANCH   3  10
ATOM     10  O   LIG    1       27.896 -21.615   8.467  0.00  0.00    -0.506 OA
ATOM     11  H   LIG    1       26.926 -21.561   8.324  0.00  0.00    +0.292 HD
ENDBRANCH   3  10
BRANCH   4  12
ATOM     12  C   LIG    1       26.522 -20.511   6.168  0.00  0.00    +0.348 C 
ATOM     13  O   LIG    1       26.057 -20.301   5.056  0.00  0.00    -0.244 OA
BRANCH  12  14
ATOM     14  O   LIG    1       25.897 -21.102   7.253  0.00  0.00    -0.422 OA
BRANCH  14  15
ATOM     15  C   LIG    1       25.020 -22.190   7.085  0.00  0.00    +0.132 A 
ATOM     16  C   LIG    1       25.613 -23.420   6.799  0.00  0.00    +0.046 A 
ATOM     17  C   LIG    1       24.806 -24.533   6.565  0.00  0.00    +0.004 A 
ATOM     18  C   LIG    1       23.417 -24.408   6.612  0.00  0.00    +0.000 A 
ATOM     19  C   LIG    1       22.834 -23.168   6.878  0.00  0.00    +0.004 A 
ATOM     20  C   LIG    1       23.633 -22.051   7.104  0.00  0.00    +0.046 A 
ENDBRANCH  14  15
ENDBRANCH  12  14
ENDBRANCH   4  12
TORSDOF 5
ENDMDL
