MODEL 1
REMARK VINA RESULT:      -4.0      0.000      0.000
REMARK  Name = *****
REMARK                            x       y       z     vdW  Elec       q    Type
REMARK                         _______ _______ _______ _____ _____    ______ ____
ROOT
ATOM      1  O   LIG    1       25.814 -12.814   3.674  0.00  0.00    -0.279 OA
ENDROOT
BRANCH   1   3
ATOM      2  O   LIG    1       23.742 -14.176   4.495  0.00  0.00    -0.228 OA
ATOM      3  P   LIG    1       24.226 -13.021   3.697  0.00  0.00    +0.473 P 
BRANCH   3   4
ATOM      4  O   LIG    1       23.623 -11.633   4.205  0.00  0.00    -0.303 OA
ATOM      5  H   LIG    1       23.015 -11.245   3.552  0.00  0.00    +0.222 HD
ENDBRANCH   3   4
BRANCH   3   6
ATOM      6  O   LIG    1       23.758 -13.063   2.173  0.00  0.00    -0.303 OA
ATOM      7  H   LIG    1       22.793 -13.183   2.100  0.00  0.00    +0.222 HD
ENDBRANCH   3   6
ENDBRANCH   1   3
BRANCH   1   8
ATOM      8  C   LIG    1       26.648 -13.848   4.214  0.00  0.00    +0.181 C 
BRANCH   8   9
ATOM      9  C   LIG    1       28.049 -13.308   4.530  0.00  0.00    +0.190 C 
BRANCH   9  10
ATOM     10  O   LIG    1       28.819 -13.035   3.368  0.00  0.00    -0.392 OA
ATOM     11  H   LIG    1       28.577 -13.664   2.659  0.00  0.00    +0.209 HD
ENDBRANCH   9  10
ENDBRANCH   8   9
BRANCH   8  12
ATOM     12  C   LIG    1       26.789 -14.933   3.140  0.00  0.00    +0.190 C 
BRANCH  12  13
ATOM     13  O   LIG    1       26.685 -14.383   1.831  0.00  0.00    -0.392 OA
ATOM     14  H   LIG    1       26.172 -15.023   1.304  0.00  0.00    +0.209 HD
ENDBRANCH  12  13
ENDBRANCH   8  12
ENDBRANCH   1   8
TORSDOF 8
ENDMDL
MODEL 2
REMARK VINA RESULT:      -4.0      2.075      3.992
REMARK  Name = *****
REMARK                            x       y       z     vdW  Elec       q    Type
REMARK                         _______ _______ _______ _____ _____    ______ ____
ROOT
ATOM      1  O   LIG    1       26.016 -13.331   4.069  0.00  0.00    -0.279 OA
ENDROOT
BRANCH   1   3
ATOM      2  O   LIG    1       26.896 -14.311   1.812  0.00  0.00    -0.228 OA
ATOM      3  P   LIG    1       27.219 -13.962   3.219  0.00  0.00    +0.473 P 
BRANCH   3   4
ATOM      4  O   LIG    1       28.415 -12.911   3.329  0.00  0.00    -0.303 OA
ATOM      5  H   LIG    1       28.104 -12.044   3.642  0.00  0.00    +0.222 HD
ENDBRANCH   3   4
BRANCH   3   6
ATOM      6  O   LIG    1       27.766 -15.196   4.069  0.00  0.00    -0.303 OA
ATOM      7  H   LIG    1       28.393 -15.735   3.551  0.00  0.00    +0.222 HD
ENDBRANCH   3   6
ENDBRANCH   1   3
BRANCH   1   8
ATOM      8  C   LIG    1       24.674 -13.525   3.603  0.00  0.00    +0.181 C 
BRANCH   8   9
ATOM      9  C   LIG    1       24.034 -12.185   3.215  0.00  0.00    +0.190 C 
BRANCH   9  10
ATOM     10  O   LIG    1       23.981 -11.975   1.812  0.00  0.00    -0.392 OA
ATOM     11  H   LIG    1       23.052 -11.845   1.534  0.00  0.00    +0.209 HD
ENDBRANCH   9  10
ENDBRANCH   8   9
BRANCH   8  12
ATOM     12  C   LIG    1       23.865 -14.117   4.763  0.00  0.00    +0.190 C 
BRANCH  12  13
ATOM     13  O   LIG    1       23.124 -15.259   4.347  0.00  0.00    -0.392 OA
ATOM     14  H   LIG    1       23.752 -16.006   4.341  0.00  0.00    +0.209 HD
ENDBRANCH  12  13
ENDBRANCH   8  12
ENDBRANCH   1   8
TORSDOF 8
ENDMDL
MODEL 3
REMARK VINA RESULT:      -4.0      1.938      3.942
REMARK  Name = *****
REMARK                            x       y       z     vdW  Elec       q    Type
REMARK                         _______ _______ _______ _____ _____    ______ ____
ROOT
ATOM      1  O   LIG    1       26.344 -13.283   4.408  0.00  0.00    -0.279 OA
ENDROOT
BRANCH   1   3
ATOM      2  O   LIG    1       26.491 -14.175   1.957  0.00  0.00    -0.228 OA
ATOM      3  P   LIG    1       27.190 -14.009   3.257  0.00  0.00    +0.473 P 
BRANCH   3   4
ATOM      4  O   LIG    1       28.539 -13.166   3.123  0.00  0.00    -0.303 OA
ATOM      5  H   LIG    1       29.295 -13.734   2.896  0.00  0.00    +0.222 HD
ENDBRANCH   3   4
BRANCH   3   6
ATOM      6  O   LIG    1       27.703 -15.384   3.881  0.00  0.00    -0.303 OA
ATOM      7  H   LIG    1       26.967 -15.904   4.254  0.00  0.00    +0.222 HD
ENDBRANCH   3   6
ENDBRANCH   1   3
BRANCH   1   8
ATOM      8  C   LIG    1       24.914 -13.378   4.370  0.00  0.00    +0.181 C 
BRANCH   8   9
ATOM      9  C   LIG    1       24.473 -14.795   3.980  0.00  0.00    +0.190 C 
BRANCH   9  10
ATOM     10  O   LIG    1       23.153 -15.106   4.399  0.00  0.00    -0.392 OA
ATOM     11  H   LIG    1       22.802 -15.844   3.862  0.00  0.00    +0.209 HD
ENDBRANCH   9  10
ENDBRANCH   8   9
BRANCH   8  12
ATOM     12  C   LIG    1       24.417 -12.412   3.289  0.00  0.00    +0.190 C 
BRANCH  12  13
ATOM     13  O   LIG    1       23.690 -13.099   2.276  0.00  0.00    -0.392 OA
ATOM     14  H   LIG    1       23.511 -12.445   1.575  0.00  0.00    +0.209 HD
ENDBRANCH  12  13
ENDBRANCH   8  12
ENDBRANCH   1   8
TORSDOF 8
ENDMDL
MODEL 4
REMARK VINA RESULT:      -4.0      0.213      1.357
REMARK  Name = *****
REMARK                            x       y       z     vdW  Elec       q    Type
REMARK                         _______ _______ _______ _____ _____    ______ ____
ROOT
ATOM      1  O   LIG    1       25.821 -12.831   3.572  0.00  0.00    -0.279 OA
ENDROOT
BRANCH   1   3
ATOM      2  O   LIG    1       23.687 -11.733   4.603  0.00  0.00    -0.228 OA
ATOM      3  P   LIG    1       24.243 -12.881   3.843  0.00  0.00    +0.473 P 
BRANCH   3   4
ATOM      4  O   LIG    1       23.569 -13.046   2.405  0.00  0.00    -0.303 OA
ATOM      5  H   LIG    1       23.949 -12.429   1.757  0.00  0.00    +0.222 HD
ENDBRANCH   3   4
BRANCH   3   6
ATOM      6  O   LIG    1       23.951 -14.294   4.523  0.00  0.00    -0.303 OA
ATOM      7  H   LIG    1       24.486 -14.419   5.329  0.00  0.00    +0.222 HD
ENDBRANCH   3   6
ENDBRANCH   1   3
BRANCH   1   8
ATOM      8  C   LIG    1       26.656 -13.811   4.203  0.00  0.00    +0.181 C 
BRANCH   8   9
ATOM      9  C   LIG    1       28.009 -13.203   4.594  0.00  0.00    +0.190 C 
BRANCH   9  10
ATOM     10  O   LIG    1       28.906 -13.083   3.500  0.00  0.00    -0.392 OA
ATOM     11  H   LIG    1       28.444 -12.679   2.738  0.00  0.00    +0.209 HD
ENDBRANCH   9  10
ENDBRANCH   8   9
BRANCH   8  12
ATOM     12  C   LIG    1       26.914 -14.923   3.179  0.00  0.00    +0.190 C 
BRANCH  12  13
ATOM     13  O   LIG    1       26.814 -14.434   1.847  0.00  0.00    -0.392 OA
ATOM     14  H   LIG    1       25.937 -14.708   1.519  0.00  0.00    +0.209 HD
ENDBRANCH  12  13
ENDBRANCH   8  12
ENDBRANCH   1   8
TORSDOF 8
ENDMDL
MODEL 5
REMARK VINA RESULT:      -3.9      0.908      2.414
REMARK  Name = *****
REMARK                            x       y       z     vdW  Elec       q    Type
REMARK                         _______ _______ _______ _____ _____    ______ ____
ROOT
ATOM      1  O   LIG    1       25.943 -13.277   4.429  0.00  0.00    -0.279 OA
ENDROOT
BRANCH   1   3
ATOM      2  O   LIG    1       23.756 -11.874   4.155  0.00  0.00    -0.228 OA
ATOM      3  P   LIG    1       24.496 -13.102   3.765  0.00  0.00    +0.473 P 
BRANCH   3   4
ATOM      4  O   LIG    1       24.735 -13.198   2.190  0.00  0.00    -0.303 OA
ATOM      5  H   LIG    1       24.668 -12.326   1.763  0.00  0.00    +0.222 HD
ENDBRANCH   3   4
BRANCH   3   6
ATOM      6  O   LIG    1       23.697 -14.448   4.074  0.00  0.00    -0.303 OA
ATOM      7  H   LIG    1       24.257 -15.097   4.539  0.00  0.00    +0.222 HD
ENDBRANCH   3   6
ENDBRANCH   1   3
BRANCH   1   8
ATOM      8  C   LIG    1       27.032 -13.695   3.596  0.00  0.00    +0.181 C 
BRANCH   8   9
ATOM      9  C   LIG    1       27.239 -15.213   3.691  0.00  0.00    +0.190 C 
BRANCH   9  10
ATOM     10  O   LIG    1       26.220 -15.958   3.041  0.00  0.00    -0.392 OA
ATOM     11  H   LIG    1       25.374 -15.471   3.090  0.00  0.00    +0.209 HD
ENDBRANCH   9  10
ENDBRANCH   8   9
BRANCH   8  12
ATOM     12  C   LIG    1       28.301 -13.011   4.119  0.00  0.00    +0.190 C 
BRANCH  12  13
ATOM     13  O   LIG    1       29.421 -13.293   3.288  0.00  0.00    -0.392 OA
ATOM     14  H   LIG    1       30.109 -12.644   3.525  0.00  0.00    +0.209 HD
ENDBRANCH  12  13
ENDBRANCH   8  12
ENDBRANCH   1   8
TORSDOF 8
ENDMDL
MODEL 6
REMARK VINA RESULT:      -3.9      2.152      4.141
REMARK  Name = *****
REMARK                            x       y       z     vdW  Elec       q    Type
REMARK                         _______ _______ _______ _____ _____    ______ ____
ROOT
ATOM      1  O   LIG    1       26.790 -13.451   2.798  0.00  0.00    -0.279 OA
ENDROOT
BRANCH   1   3
ATOM      2  O   LIG    1       27.666 -13.075   5.230  0.00  0.00    -0.228 OA
ATOM      3  P   LIG    1       27.905 -13.722   3.915  0.00  0.00    +0.473 P 
BRANCH   3   4
ATOM      4  O   LIG    1       28.017 -15.311   4.028  0.00  0.00    -0.303 OA
ATOM      5  H   LIG    1       28.782 -15.579   4.565  0.00  0.00    +0.222 HD
ENDBRANCH   3   4
BRANCH   3   6
ATOM      6  O   LIG    1       29.302 -13.325   3.258  0.00  0.00    -0.303 OA
ATOM      7  H   LIG    1       30.052 -13.636   3.798  0.00  0.00    +0.222 HD
ENDBRANCH   3   6
ENDBRANCH   1   3
BRANCH   1   8
ATOM      8  C   LIG    1       25.443 -13.202   3.221  0.00  0.00    +0.181 C 
BRANCH   8   9
ATOM      9  C   LIG    1       24.774 -14.498   3.699  0.00  0.00    +0.190 C 
BRANCH   9  10
ATOM     10  O   LIG    1       23.542 -14.279   4.369  0.00  0.00    -0.392 OA
ATOM     11  H   LIG    1       23.140 -15.138   4.608  0.00  0.00    +0.209 HD
ENDBRANCH   9  10
ENDBRANCH   8   9
BRANCH   8  12
ATOM     12  C   LIG    1       24.665 -12.689   2.004  0.00  0.00    +0.190 C 
BRANCH  12  13
ATOM     13  O   LIG    1       23.660 -11.756   2.386  0.00  0.00    -0.392 OA
ATOM     14  H   LIG    1       22.914 -12.282   2.729  0.00  0.00    +0.209 HD
ENDBRANCH  12  13
ENDBRANCH   8  12
ENDBRANCH   1   8
TORSDOF 8
ENDMDL
MODEL 7
REMARK VINA RESULT:      -3.9      2.123      3.880
REMARK  Name = *****
REMARK                            x       y       z     vdW  Elec       q    Type
REMARK                         _______ _______ _______ _____ _____    ______ ____
ROOT
ATOM      1  O   LIG    1       25.998 -13.316   4.071  0.00  0.00    -0.279 OA
ENDROOT
BRANCH   1   3
ATOM      2  O   LIG    1       28.573 -13.291   3.633  0.00  0.00    -0.228 OA
ATOM      3  P   LIG    1       27.279 -13.968   3.365  0.00  0.00    +0.473 P 
BRANCH   3   4
ATOM      4  O   LIG    1       27.285 -15.498   3.822  0.00  0.00    -0.303 OA
ATOM      5  H   LIG    1       26.757 -15.634   4.627  0.00  0.00    +0.222 HD
ENDBRANCH   3   4
BRANCH   3   6
ATOM      6  O   LIG    1       26.929 -14.075   1.813  0.00  0.00    -0.303 OA
ATOM      7  H   LIG    1       27.366 -14.842   1.400  0.00  0.00    +0.222 HD
ENDBRANCH   3   6
ENDBRANCH   1   3
BRANCH   1   8
ATOM      8  C   LIG    1       24.725 -13.432   3.421  0.00  0.00    +0.181 C 
BRANCH   8   9
ATOM      9  C   LIG    1       24.024 -12.069   3.349  0.00  0.00    +0.190 C 
BRANCH   9  10
ATOM     10  O   LIG    1       23.870 -11.587   2.023  0.00  0.00    -0.392 OA
ATOM     11  H   LIG    1       24.555 -11.984   1.447  0.00  0.00    +0.209 HD
ENDBRANCH   9  10
ENDBRANCH   8   9
BRANCH   8  12
ATOM     12  C   LIG    1       23.857 -14.367   4.272  0.00  0.00    +0.190 C 
BRANCH  12  13
ATOM     13  O   LIG    1       24.166 -15.733   4.019  0.00  0.00    -0.392 OA
ATOM     14  H   LIG    1       25.138 -15.790   3.967  0.00  0.00    +0.209 HD
ENDBRANCH  12  13
ENDBRANCH   8  12
ENDBRANCH   1   8
TORSDOF 8
ENDMDL
MODEL 8
REMARK VINA RESULT:      -3.7      6.241      7.211
REMARK  Name = *****
REMARK                            x       y       z     vdW  Elec       q    Type
REMARK                         _______ _______ _______ _____ _____    ______ ____
ROOT
ATOM      1  O   LIG    1       24.170 -20.814   4.619  0.00  0.00    -0.279 OA
ENDROOT
BRANCH   1   3
ATOM      2  O   LIG    1       23.111 -20.997   7.000  0.00  0.00    -0.228 OA
ATOM      3  P   LIG    1       22.886 -20.682   5.566  0.00  0.00    +0.473 P 
BRANCH   3   4
ATOM      4  O   LIG    1       22.344 -19.197   5.344  0.00  0.00    -0.303 OA
ATOM      5  H   LIG    1       22.995 -18.643   4.878  0.00  0.00    +0.222 HD
ENDBRANCH   3   4
BRANCH   3   6
ATOM      6  O   LIG    1       21.742 -21.568   4.894  0.00  0.00    -0.303 OA
ATOM      7  H   LIG    1       21.338 -22.177   5.540  0.00  0.00    +0.222 HD
ENDBRANCH   3   6
ENDBRANCH   1   3
BRANCH   1   8
ATOM      8  C   LIG    1       25.170 -19.788   4.673  0.00  0.00    +0.181 C 
BRANCH   8   9
ATOM      9  C   LIG    1       25.653 -19.424   3.262  0.00  0.00    +0.190 C 
BRANCH   9  10
ATOM     10  O   LIG    1       26.028 -18.060   3.134  0.00  0.00    -0.392 OA
ATOM     11  H   LIG    1       26.318 -17.716   4.002  0.00  0.00    +0.209 HD
ENDBRANCH   9  10
ENDBRANCH   8   9
BRANCH   8  12
ATOM     12  C   LIG    1       26.365 -20.349   5.452  0.00  0.00    +0.190 C 
BRANCH  12  13
ATOM     13  O   LIG    1       27.599 -19.924   4.885  0.00  0.00    -0.392 OA
ATOM     14  H   LIG    1       27.498 -20.003   3.918  0.00  0.00    +0.209 HD
ENDBRANCH  12  13
ENDBRANCH   8  12
ENDBRANCH   1   8
TORSDOF 8
ENDMDL
MODEL 9
REMARK VINA RESULT:      -3.4      6.304      7.354
REMARK  Name = *****
REMARK                            x       y       z     vdW  Elec       q    Type
REMARK                         _______ _______ _______ _____ _____    ______ ____
ROOT
ATOM      1  O   LIG    1       23.901 -21.070   4.000  0.00  0.00    -0.279 OA
ENDROOT
BRANCH   1   3
ATOM      2  O   LIG    1       22.543 -19.211   5.234  0.00  0.00    -0.228 OA
ATOM      3  P   LIG    1       22.850 -20.661   5.137  0.00  0.00    +0.473 P 
BRANCH   3   4
ATOM      4  O   LIG    1       21.550 -21.543   4.853  0.00  0.00    -0.303 OA
ATOM      5  H   LIG    1       21.771 -22.369   4.389  0.00  0.00    +0.222 HD
ENDBRANCH   3   4
BRANCH   3   6
ATOM      6  O   LIG    1       23.398 -21.285   6.498  0.00  0.00    -0.303 OA
ATOM      7  H   LIG    1       24.149 -21.886   6.338  0.00  0.00    +0.222 HD
ENDBRANCH   3   6
ENDBRANCH   1   3
BRANCH   1   8
ATOM      8  C   LIG    1       25.113 -20.312   3.883  0.00  0.00    +0.181 C 
BRANCH   8   9
ATOM      9  C   LIG    1       25.873 -20.291   5.216  0.00  0.00    +0.190 C 
BRANCH   9  10
ATOM     10  O   LIG    1       27.272 -20.107   5.060  0.00  0.00    -0.392 OA
ATOM     11  H   LIG    1       27.472 -19.884   4.129  0.00  0.00    +0.209 HD
ENDBRANCH   9  10
ENDBRANCH   8   9
BRANCH   8  12
ATOM     12  C   LIG    1       24.722 -18.871   3.538  0.00  0.00    +0.190 C 
BRANCH  12  13
ATOM     13  O   LIG    1       25.871 -18.069   3.288  0.00  0.00    -0.392 OA
ATOM     14  H   LIG    1       25.544 -17.165   3.123  0.00  0.00    +0.209 HD
ENDBRANCH  12  13
ENDBRANCH   8  12
ENDBRANCH   1   8
TORSDOF 8
ENDMDL
