MODEL 1
REMARK VINA RESULT:      -4.6      0.000      0.000
REMARK  Name = *****
REMARK                            x       y       z     vdW  Elec       q    Type
REMARK                         _______ _______ _______ _____ _____    ______ ____
ROOT
ATOM      1  C   LIG    1       31.176 -19.354   7.667  0.00  0.00    +0.026 C 
ENDROOT
BRANCH   1   2
ATOM      2  C   LIG    1       30.903 -20.620   8.481  0.00  0.00    +0.078 C 
BRANCH   2   3
ATOM      3  N   LIG    1       32.077 -20.985   9.270  0.00  0.00    -0.330 NA
ATOM      4  H   LIG    1       31.802 -21.081  10.250  0.00  0.00    +0.118 HD
ATOM      5  H   LIG    1       32.384 -21.917   8.985  0.00  0.00    +0.118 HD
ENDBRANCH   2   3
ENDBRANCH   1   2
BRANCH   1   6
ATOM      6  C   LIG    1       30.792 -18.074   8.406  0.00  0.00    +0.121 C 
BRANCH   6   7
ATOM      7  C   LIG    1       31.961 -17.518   9.178  0.00  0.00    +0.305 C 
ATOM      8  O   LIG    1       32.351 -17.978  10.244  0.00  0.00    -0.251 OA
BRANCH   7   9
ATOM      9  O   LIG    1       32.546 -16.450   8.598  0.00  0.00    -0.481 OA
ATOM     10  H   LIG    1       33.392 -16.195   9.016  0.00  0.00    +0.295 HD
ENDBRANCH   7   9
ENDBRANCH   6   7
ENDBRANCH   1   6
TORSDOF 5
ENDMDL
MODEL 2
REMARK VINA RESULT:      -4.4      1.771      2.209
REMARK  Name = *****
REMARK                            x       y       z     vdW  Elec       q    Type
REMARK                         _______ _______ _______ _____ _____    ______ ____
ROOT
ATOM      1  C   LIG    1       30.079 -18.597   8.626  0.00  0.00    +0.026 C 
ENDROOT
BRANCH   1   2
ATOM      2  C   LIG    1       31.148 -19.500   8.008  0.00  0.00    +0.078 C 
BRANCH   2   3
ATOM      3  N   LIG    1       31.959 -20.123   9.052  0.00  0.00    -0.330 NA
ATOM      4  H   LIG    1       31.724 -19.698   9.952  0.00  0.00    +0.118 HD
ATOM      5  H   LIG    1       31.681 -21.102   9.138  0.00  0.00    +0.118 HD
ENDBRANCH   2   3
ENDBRANCH   1   2
BRANCH   1   6
ATOM      6  C   LIG    1       30.650 -17.306   9.208  0.00  0.00    +0.121 C 
BRANCH   6   7
ATOM      7  C   LIG    1       30.516 -17.278  10.709  0.00  0.00    +0.305 C 
ATOM      8  O   LIG    1       30.326 -16.254  11.354  0.00  0.00    -0.251 OA
BRANCH   7   9
ATOM      9  O   LIG    1       30.634 -18.487  11.295  0.00  0.00    -0.481 OA
ATOM     10  H   LIG    1       31.471 -18.600  11.788  0.00  0.00    +0.295 HD
ENDBRANCH   7   9
ENDBRANCH   6   7
ENDBRANCH   1   6
TORSDOF 5
ENDMDL
MODEL 3
REMARK VINA RESULT:      -4.3      3.183      3.766
REMARK  Name = *****
REMARK                            x       y       z     vdW  Elec       q    Type
REMARK                         _______ _______ _______ _____ _____    ______ ____
ROOT
ATOM      1  C   LIG    1       31.214 -19.768   7.730  0.00  0.00    +0.026 C 
ENDROOT
BRANCH   1   2
ATOM      2  C   LIG    1       31.514 -18.726   8.808  0.00  0.00    +0.078 C 
BRANCH   2   3
ATOM      3  N   LIG    1       32.161 -17.553   8.222  0.00  0.00    -0.330 NA
ATOM      4  H   LIG    1       31.945 -17.520   7.223  0.00  0.00    +0.118 HD
ATOM      5  H   LIG    1       31.732 -16.714   8.616  0.00  0.00    +0.118 HD
ENDBRANCH   2   3
ENDBRANCH   1   2
BRANCH   1   6
ATOM      6  C   LIG    1       30.333 -20.910   8.231  0.00  0.00    +0.121 C 
BRANCH   6   7
ATOM      7  C   LIG    1       31.103 -21.834   9.140  0.00  0.00    +0.305 C 
ATOM      8  O   LIG    1       30.786 -22.063  10.302  0.00  0.00    -0.251 OA
BRANCH   7   9
ATOM      9  O   LIG    1       32.193 -22.387   8.568  0.00  0.00    -0.481 OA
ATOM     10  H   LIG    1       32.072 -23.328   8.331  0.00  0.00    +0.295 HD
ENDBRANCH   7   9
ENDBRANCH   6   7
ENDBRANCH   1   6
TORSDOF 5
ENDMDL
MODEL 4
REMARK VINA RESULT:      -4.3      2.366      2.441
REMARK  Name = *****
REMARK                            x       y       z     vdW  Elec       q    Type
REMARK                         _______ _______ _______ _____ _____    ______ ____
ROOT
ATOM      1  C   LIG    1       29.567 -19.191   7.736  0.00  0.00    +0.026 C 
ENDROOT
BRANCH   1   2
ATOM      2  C   LIG    1       30.243 -19.226   6.365  0.00  0.00    +0.078 C 
BRANCH   2   3
ATOM      3  N   LIG    1       29.755 -18.135   5.524  0.00  0.00    -0.330 NA
ATOM      4  H   LIG    1       29.136 -18.520   4.807  0.00  0.00    +0.118 HD
ATOM      5  H   LIG    1       29.161 -17.528   6.092  0.00  0.00    +0.118 HD
ENDBRANCH   2   3
ENDBRANCH   1   2
BRANCH   1   6
ATOM      6  C   LIG    1       30.154 -18.130   8.664  0.00  0.00    +0.121 C 
BRANCH   6   7
ATOM      7  C   LIG    1       31.642 -18.306   8.822  0.00  0.00    +0.305 C 
ATOM      8  O   LIG    1       32.159 -19.296   9.326  0.00  0.00    -0.251 OA
BRANCH   7   9
ATOM      9  O   LIG    1       32.371 -17.266   8.368  0.00  0.00    -0.481 OA
ATOM     10  H   LIG    1       32.452 -17.243   7.394  0.00  0.00    +0.295 HD
ENDBRANCH   7   9
ENDBRANCH   6   7
ENDBRANCH   1   6
TORSDOF 5
ENDMDL
MODEL 5
REMARK VINA RESULT:      -4.3      3.007      3.721
REMARK  Name = *****
REMARK                            x       y       z     vdW  Elec       q    Type
REMARK                         _______ _______ _______ _____ _____    ______ ____
ROOT
ATOM      1  C   LIG    1       30.806 -17.352  11.328  0.00  0.00    +0.026 C 
ENDROOT
BRANCH   1   2
ATOM      2  C   LIG    1       31.879 -16.343  11.738  0.00  0.00    +0.078 C 
BRANCH   2   3
ATOM      3  N   LIG    1       31.371 -15.448  12.776  0.00  0.00    -0.330 NA
ATOM      4  H   LIG    1       31.730 -14.506  12.606  0.00  0.00    +0.118 HD
ATOM      5  H   LIG    1       30.358 -15.371  12.671  0.00  0.00    +0.118 HD
ENDBRANCH   2   3
ENDBRANCH   1   2
BRANCH   1   6
ATOM      6  C   LIG    1       30.572 -17.396   9.819  0.00  0.00    +0.121 C 
BRANCH   6   7
ATOM      7  C   LIG    1       31.732 -18.043   9.106  0.00  0.00    +0.305 C 
ATOM      8  O   LIG    1       32.083 -19.202   9.293  0.00  0.00    -0.251 OA
BRANCH   7   9
ATOM      9  O   LIG    1       32.372 -17.228   8.241  0.00  0.00    -0.481 OA
ATOM     10  H   LIG    1       32.557 -16.341   8.608  0.00  0.00    +0.295 HD
ENDBRANCH   7   9
ENDBRANCH   6   7
ENDBRANCH   1   6
TORSDOF 5
ENDMDL
MODEL 6
REMARK VINA RESULT:      -4.2      2.301      3.182
REMARK  Name = *****
REMARK                            x       y       z     vdW  Elec       q    Type
REMARK                         _______ _______ _______ _____ _____    ______ ____
ROOT
ATOM      1  C   LIG    1       31.165 -16.978   9.333  0.00  0.00    +0.026 C 
ENDROOT
BRANCH   1   2
ATOM      2  C   LIG    1       30.731 -16.880  10.796  0.00  0.00    +0.078 C 
BRANCH   2   3
ATOM      3  N   LIG    1       30.728 -18.201  11.420  0.00  0.00    -0.330 NA
ATOM      4  H   LIG    1       31.107 -18.122  12.366  0.00  0.00    +0.118 HD
ATOM      5  H   LIG    1       29.759 -18.500  11.544  0.00  0.00    +0.118 HD
ENDBRANCH   2   3
ENDBRANCH   1   2
BRANCH   1   6
ATOM      6  C   LIG    1       30.480 -18.117   8.581  0.00  0.00    +0.121 C 
BRANCH   6   7
ATOM      7  C   LIG    1       31.470 -19.184   8.187  0.00  0.00    +0.305 C 
ATOM      8  O   LIG    1       31.690 -19.509   7.027  0.00  0.00    -0.251 OA
BRANCH   7   9
ATOM      9  O   LIG    1       32.094 -19.768   9.231  0.00  0.00    -0.481 OA
ATOM     10  H   LIG    1       32.951 -20.174   8.993  0.00  0.00    +0.295 HD
ENDBRANCH   7   9
ENDBRANCH   6   7
ENDBRANCH   1   6
TORSDOF 5
ENDMDL
MODEL 7
REMARK VINA RESULT:      -4.2      2.631      3.334
REMARK  Name = *****
REMARK                            x       y       z     vdW  Elec       q    Type
REMARK                         _______ _______ _______ _____ _____    ______ ____
ROOT
ATOM      1  C   LIG    1       31.052 -17.568  10.016  0.00  0.00    +0.026 C 
ENDROOT
BRANCH   1   2
ATOM      2  C   LIG    1       32.335 -16.747  10.152  0.00  0.00    +0.078 C 
BRANCH   2   3
ATOM      3  N   LIG    1       32.632 -16.049   8.904  0.00  0.00    -0.330 NA
ATOM      4  H   LIG    1       33.038 -16.713   8.240  0.00  0.00    +0.118 HD
ATOM      5  H   LIG    1       31.752 -15.751   8.480  0.00  0.00    +0.118 HD
ENDBRANCH   2   3
ENDBRANCH   1   2
BRANCH   1   6
ATOM      6  C   LIG    1       30.826 -18.093   8.600  0.00  0.00    +0.121 C 
BRANCH   6   7
ATOM      7  C   LIG    1       31.508 -19.423   8.397  0.00  0.00    +0.305 C 
ATOM      8  O   LIG    1       31.969 -20.096   9.311  0.00  0.00    -0.251 OA
BRANCH   7   9
ATOM      9  O   LIG    1       31.581 -19.813   7.107  0.00  0.00    -0.481 OA
ATOM     10  H   LIG    1       31.801 -19.084   6.493  0.00  0.00    +0.295 HD
ENDBRANCH   7   9
ENDBRANCH   6   7
ENDBRANCH   1   6
TORSDOF 5
ENDMDL
MODEL 8
REMARK VINA RESULT:      -4.2      1.514      1.514
REMARK  Name = *****
REMARK                            x       y       z     vdW  Elec       q    Type
REMARK                         _______ _______ _______ _____ _____    ______ ____
ROOT
ATOM      1  C   LIG    1       30.248 -19.543   6.851  0.00  0.00    +0.026 C 
ENDROOT
BRANCH   1   2
ATOM      2  C   LIG    1       29.344 -20.683   7.321  0.00  0.00    +0.078 C 
BRANCH   2   3
ATOM      3  N   LIG    1       30.002 -21.462   8.368  0.00  0.00    -0.330 NA
ATOM      4  H   LIG    1       30.879 -21.838   8.000  0.00  0.00    +0.118 HD
ATOM      5  H   LIG    1       30.278 -20.828   9.120  0.00  0.00    +0.118 HD
ENDBRANCH   2   3
ENDBRANCH   1   2
BRANCH   1   6
ATOM      6  C   LIG    1       30.330 -18.393   7.853  0.00  0.00    +0.121 C 
BRANCH   6   7
ATOM      7  C   LIG    1       31.669 -18.366   8.545  0.00  0.00    +0.305 C 
ATOM      8  O   LIG    1       32.109 -19.298   9.208  0.00  0.00    -0.251 OA
BRANCH   7   9
ATOM      9  O   LIG    1       32.349 -17.212   8.383  0.00  0.00    -0.481 OA
ATOM     10  H   LIG    1       32.264 -16.601   9.141  0.00  0.00    +0.295 HD
ENDBRANCH   7   9
ENDBRANCH   6   7
ENDBRANCH   1   6
TORSDOF 5
ENDMDL
MODEL 9
REMARK VINA RESULT:      -4.2      2.996      3.714
REMARK  Name = *****
REMARK                            x       y       z     vdW  Elec       q    Type
REMARK                         _______ _______ _______ _____ _____    ______ ____
ROOT
ATOM      1  C   LIG    1       29.810 -19.467   7.681  0.00  0.00    +0.026 C 
ENDROOT
BRANCH   1   2
ATOM      2  C   LIG    1       30.423 -19.170   6.312  0.00  0.00    +0.078 C 
BRANCH   2   3
ATOM      3  N   LIG    1       29.649 -18.145   5.615  0.00  0.00    -0.330 NA
ATOM      4  H   LIG    1       29.990 -17.223   5.896  0.00  0.00    +0.118 HD
ATOM      5  H   LIG    1       29.849 -18.210   4.615  0.00  0.00    +0.118 HD
ENDBRANCH   2   3
ENDBRANCH   1   2
BRANCH   1   6
ATOM      6  C   LIG    1       30.075 -20.893   8.158  0.00  0.00    +0.121 C 
BRANCH   6   7
ATOM      7  C   LIG    1       31.417 -21.001   8.836  0.00  0.00    +0.305 C 
ATOM      8  O   LIG    1       32.004 -20.048   9.335  0.00  0.00    -0.251 OA
BRANCH   7   9
ATOM      9  O   LIG    1       31.935 -22.247   8.838  0.00  0.00    -0.481 OA
ATOM     10  H   LIG    1       32.631 -22.377   9.511  0.00  0.00    +0.295 HD
ENDBRANCH   7   9
ENDBRANCH   6   7
ENDBRANCH   1   6
TORSDOF 5
ENDMDL
