MODEL 1
REMARK VINA RESULT:      -8.0      0.000      0.000
REMARK  Name = *****
REMARK                            x       y       z     vdW  Elec       q    Type
REMARK                         _______ _______ _______ _____ _____    ______ ____
ROOT
ATOM      1  O   LIG    1       28.172 -20.293   7.911  0.00  0.00    -0.461 OA
ENDROOT
BRANCH   1   6
ATOM      2  N   LIG    1       24.978 -22.202   6.474  0.00  0.00    +0.247 N 
ATOM      3  C   LIG    1       25.241 -22.831   5.104  0.00  0.00    +0.193 C 
ATOM      4  C   LIG    1       25.244 -20.667   6.527  0.00  0.00    +0.070 C 
ATOM      5  C   LIG    1       26.638 -20.326   5.965  0.00  0.00    +0.099 C 
ATOM      6  C   LIG    1       27.800 -21.014   6.703  0.00  0.00    +0.187 C 
ATOM      7  C   LIG    1       27.445 -22.451   7.113  0.00  0.00    +0.099 C 
ATOM      8  C   LIG    1       25.180 -20.364   8.032  0.00  0.00    +0.060 C 
ATOM      9  C   LIG    1       25.654 -21.650   8.724  0.00  0.00    +0.060 C 
ATOM     10  C   LIG    1       25.988 -22.627   7.586  0.00  0.00    +0.070 C 
BRANCH   2  12
ATOM     11  C   LIG    1       23.141 -24.026   6.796  0.00  0.00    +0.063 C 
ATOM     12  C   LIG    1       23.466 -22.534   6.908  0.00  0.00    +0.060 C 
ATOM     13  C   LIG    1       22.439 -21.699   6.138  0.00  0.00    +0.063 C 
ENDBRANCH   2  12
ENDBRANCH   1   6
BRANCH   1  14
ATOM     14  C   LIG    1       29.251 -19.452   7.800  0.00  0.00    +0.317 C 
ATOM     15  O   LIG    1       29.306 -18.577   6.954  0.00  0.00    -0.250 OA
BRANCH  14  16
ATOM     16  C   LIG    1       30.295 -19.721   8.893  0.00  0.00    +0.153 C 
BRANCH  16  17
ATOM     17  C   LIG    1       30.872 -18.423   9.453  0.00  0.00    -0.032 A 
ATOM     18  C   LIG    1       30.338 -17.834  10.611  0.00  0.00    +0.004 A 
ATOM     19  C   LIG    1       30.911 -16.688  11.160  0.00  0.00    +0.000 A 
ATOM     20  C   LIG    1       32.004 -16.091  10.538  0.00  0.00    +0.000 A 
ATOM     21  C   LIG    1       32.523 -16.639   9.367  0.00  0.00    +0.000 A 
ATOM     22  C   LIG    1       31.962 -17.798   8.825  0.00  0.00    +0.004 A 
ENDBRANCH  16  17
BRANCH  16  23
ATOM     23  C   LIG    1       31.400 -20.650   8.372  0.00  0.00    +0.175 C 
BRANCH  23  24
ATOM     24  O   LIG    1       32.215 -21.147   9.432  0.00  0.00    -0.394 OA
ATOM     25  H   LIG    1       33.009 -20.581   9.491  0.00  0.00    +0.209 HD
ENDBRANCH  23  24
ENDBRANCH  16  23
ENDBRANCH  14  16
ENDBRANCH   1  14
TORSDOF 7
ENDMDL
MODEL 2
REMARK VINA RESULT:      -7.6      1.407      2.880
REMARK  Name = *****
REMARK                            x       y       z     vdW  Elec       q    Type
REMARK                         _______ _______ _______ _____ _____    ______ ____
ROOT
ATOM      1  O   LIG    1       27.914 -21.399   6.867  0.00  0.00    -0.461 OA
ENDROOT
BRANCH   1   6
ATOM      2  N   LIG    1       23.962 -21.397   6.327  0.00  0.00    +0.247 N 
ATOM      3  C   LIG    1       23.209 -21.988   7.521  0.00  0.00    +0.193 C 
ATOM      4  C   LIG    1       25.022 -22.359   5.709  0.00  0.00    +0.070 C 
ATOM      5  C   LIG    1       25.960 -22.922   6.794  0.00  0.00    +0.099 C 
ATOM      6  C   LIG    1       26.728 -21.845   7.583  0.00  0.00    +0.187 C 
ATOM      7  C   LIG    1       25.860 -20.609   7.855  0.00  0.00    +0.099 C 
ATOM      8  C   LIG    1       25.795 -21.439   4.751  0.00  0.00    +0.060 C 
ATOM      9  C   LIG    1       25.723 -20.042   5.384  0.00  0.00    +0.060 C 
ATOM     10  C   LIG    1       24.929 -20.226   6.687  0.00  0.00    +0.070 C 
BRANCH   2  12
ATOM     11  C   LIG    1       22.473 -19.478   5.375  0.00  0.00    +0.063 C 
ATOM     12  C   LIG    1       22.889 -20.944   5.219  0.00  0.00    +0.060 C 
ATOM     13  C   LIG    1       21.658 -21.853   5.189  0.00  0.00    +0.063 C 
ENDBRANCH   2  12
ENDBRANCH   1   6
BRANCH   1  14
ATOM     14  C   LIG    1       28.976 -21.016   7.647  0.00  0.00    +0.317 C 
ATOM     15  O   LIG    1       29.220 -21.546   8.715  0.00  0.00    -0.250 OA
BRANCH  14  16
ATOM     16  C   LIG    1       29.812 -19.919   6.969  0.00  0.00    +0.153 C 
BRANCH  16  17
ATOM     17  C   LIG    1       30.393 -18.942   7.988  0.00  0.00    -0.032 A 
ATOM     18  C   LIG    1       31.765 -18.643   8.003  0.00  0.00    +0.004 A 
ATOM     19  C   LIG    1       32.281 -17.698   8.888  0.00  0.00    +0.000 A 
ATOM     20  C   LIG    1       31.440 -17.064   9.797  0.00  0.00    +0.000 A 
ATOM     21  C   LIG    1       30.082 -17.376   9.823  0.00  0.00    +0.000 A 
ATOM     22  C   LIG    1       29.559 -18.310   8.925  0.00  0.00    +0.004 A 
ENDBRANCH  16  17
BRANCH  16  23
ATOM     23  C   LIG    1       28.986 -19.193   5.898  0.00  0.00    +0.175 C 
BRANCH  23  24
ATOM     24  O   LIG    1       29.702 -18.094   5.337  0.00  0.00    -0.394 OA
ATOM     25  H   LIG    1       29.861 -18.289   4.393  0.00  0.00    +0.209 HD
ENDBRANCH  23  24
ENDBRANCH  16  23
ENDBRANCH  14  16
ENDBRANCH   1  14
TORSDOF 7
ENDMDL
MODEL 3
REMARK VINA RESULT:      -7.4      0.812      1.506
REMARK  Name = *****
REMARK                            x       y       z     vdW  Elec       q    Type
REMARK                         _______ _______ _______ _____ _____    ______ ____
ROOT
ATOM      1  O   LIG    1       28.157 -20.627   7.877  0.00  0.00    -0.461 OA
ENDROOT
BRANCH   1   6
ATOM      2  N   LIG    1       24.519 -22.023   7.022  0.00  0.00    +0.247 N 
ATOM      3  C   LIG    1       23.526 -20.903   6.700  0.00  0.00    +0.193 C 
ATOM      4  C   LIG    1       25.198 -21.882   8.419  0.00  0.00    +0.070 C 
ATOM      5  C   LIG    1       25.794 -20.474   8.607  0.00  0.00    +0.099 C 
ATOM      6  C   LIG    1       26.846 -20.089   7.550  0.00  0.00    +0.187 C 
ATOM      7  C   LIG    1       26.467 -20.605   6.155  0.00  0.00    +0.099 C 
ATOM      8  C   LIG    1       26.313 -22.938   8.360  0.00  0.00    +0.060 C 
ATOM      9  C   LIG    1       26.709 -23.026   6.879  0.00  0.00    +0.060 C 
ATOM     10  C   LIG    1       25.818 -22.003   6.157  0.00  0.00    +0.070 C 
BRANCH   2  12
ATOM     11  C   LIG    1       24.322 -24.301   5.767  0.00  0.00    +0.063 C 
ATOM     12  C   LIG    1       23.759 -23.433   6.897  0.00  0.00    +0.060 C 
ATOM     13  C   LIG    1       22.244 -23.272   6.749  0.00  0.00    +0.063 C 
ENDBRANCH   2  12
ENDBRANCH   1   6
BRANCH   1  14
ATOM     14  C   LIG    1       29.213 -19.761   7.740  0.00  0.00    +0.317 C 
ATOM     15  O   LIG    1       29.257 -18.930   6.852  0.00  0.00    -0.250 OA
BRANCH  14  16
ATOM     16  C   LIG    1       30.245 -19.942   8.863  0.00  0.00    +0.153 C 
BRANCH  16  17
ATOM     17  C   LIG    1       30.788 -18.601   9.350  0.00  0.00    -0.032 A 
ATOM     18  C   LIG    1       30.220 -17.949  10.457  0.00  0.00    +0.004 A 
ATOM     19  C   LIG    1       30.762 -16.760  10.942  0.00  0.00    +0.000 A 
ATOM     20  C   LIG    1       31.858 -16.185  10.307  0.00  0.00    +0.000 A 
ATOM     21  C   LIG    1       32.412 -16.797   9.184  0.00  0.00    +0.000 A 
ATOM     22  C   LIG    1       31.882 -17.999   8.706  0.00  0.00    +0.004 A 
ENDBRANCH  16  17
BRANCH  16  23
ATOM     23  C   LIG    1       31.375 -20.879   8.417  0.00  0.00    +0.175 C 
BRANCH  23  24
ATOM     24  O   LIG    1       32.095 -21.405   9.530  0.00  0.00    -0.394 OA
ATOM     25  H   LIG    1       32.897 -20.862   9.654  0.00  0.00    +0.209 HD
ENDBRANCH  23  24
ENDBRANCH  16  23
ENDBRANCH  14  16
ENDBRANCH   1  14
TORSDOF 7
ENDMDL
MODEL 4
REMARK VINA RESULT:      -6.9      5.748      7.591
REMARK  Name = *****
REMARK                            x       y       z     vdW  Elec       q    Type
REMARK                         _______ _______ _______ _____ _____    ______ ____
ROOT
ATOM      1  O   LIG    1       25.712 -24.151   5.746  0.00  0.00    -0.461 OA
ENDROOT
BRANCH   1   6
ATOM      2  N   LIG    1       24.983 -28.072   5.678  0.00  0.00    +0.247 N 
ATOM      3  C   LIG    1       23.711 -28.416   4.899  0.00  0.00    +0.193 C 
ATOM      4  C   LIG    1       24.755 -27.066   6.847  0.00  0.00    +0.070 C 
ATOM      5  C   LIG    1       23.988 -25.820   6.365  0.00  0.00    +0.099 C 
ATOM      6  C   LIG    1       24.688 -25.048   5.232  0.00  0.00    +0.187 C 
ATOM      7  C   LIG    1       25.364 -25.995   4.230  0.00  0.00    +0.099 C 
ATOM      8  C   LIG    1       26.188 -26.694   7.256  0.00  0.00    +0.060 C 
ATOM      9  C   LIG    1       27.020 -26.812   5.971  0.00  0.00    +0.060 C 
ATOM     10  C   LIG    1       26.024 -27.228   4.878  0.00  0.00    +0.070 C 
BRANCH   2  12
ATOM     11  C   LIG    1       25.623 -30.549   5.166  0.00  0.00    +0.063 C 
ATOM     12  C   LIG    1       25.636 -29.437   6.220  0.00  0.00    +0.060 C 
ATOM     13  C   LIG    1       24.990 -29.921   7.521  0.00  0.00    +0.063 C 
ENDBRANCH   2  12
ENDBRANCH   1   6
BRANCH   1  14
ATOM     14  C   LIG    1       25.258 -23.062   6.447  0.00  0.00    +0.317 C 
ATOM     15  O   LIG    1       25.934 -22.511   7.296  0.00  0.00    -0.250 OA
BRANCH  14  16
ATOM     16  C   LIG    1       23.865 -22.622   5.973  0.00  0.00    +0.153 C 
BRANCH  16  17
ATOM     17  C   LIG    1       23.920 -21.302   5.208  0.00  0.00    -0.032 A 
ATOM     18  C   LIG    1       25.091 -20.900   4.544  0.00  0.00    +0.004 A 
ATOM     19  C   LIG    1       25.117 -19.729   3.788  0.00  0.00    +0.000 A 
ATOM     20  C   LIG    1       23.985 -18.923   3.714  0.00  0.00    +0.000 A 
ATOM     21  C   LIG    1       22.827 -19.287   4.397  0.00  0.00    +0.000 A 
ATOM     22  C   LIG    1       22.792 -20.469   5.141  0.00  0.00    +0.004 A 
ENDBRANCH  16  17
BRANCH  16  23
ATOM     23  C   LIG    1       22.888 -22.548   7.154  0.00  0.00    +0.175 C 
BRANCH  23  24
ATOM     24  O   LIG    1       23.281 -21.556   8.102  0.00  0.00    -0.394 OA
ATOM     25  H   LIG    1       24.189 -21.763   8.395  0.00  0.00    +0.209 HD
ENDBRANCH  23  24
ENDBRANCH  16  23
ENDBRANCH  14  16
ENDBRANCH   1  14
TORSDOF 7
ENDMDL
MODEL 5
REMARK VINA RESULT:      -6.8      7.016     10.117
REMARK  Name = *****
REMARK                            x       y       z     vdW  Elec       q    Type
REMARK                         _______ _______ _______ _____ _____    ______ ____
ROOT
ATOM      1  O   LIG    1       24.956 -28.648   7.754  0.00  0.00    -0.461 OA
ENDROOT
BRANCH   1   6
ATOM      2  N   LIG    1       25.000 -31.972   9.959  0.00  0.00    +0.247 N 
ATOM      3  C   LIG    1       26.064 -32.969   9.491  0.00  0.00    +0.193 C 
ATOM      4  C   LIG    1       23.986 -31.562   8.848  0.00  0.00    +0.070 C 
ATOM      5  C   LIG    1       24.718 -31.108   7.570  0.00  0.00    +0.099 C 
ATOM      6  C   LIG    1       25.669 -29.916   7.779  0.00  0.00    +0.187 C 
ATOM      7  C   LIG    1       26.409 -30.005   9.121  0.00  0.00    +0.099 C 
ATOM      8  C   LIG    1       23.239 -30.384   9.490  0.00  0.00    +0.060 C 
ATOM      9  C   LIG    1       24.255 -29.727  10.435  0.00  0.00    +0.060 C 
ATOM     10  C   LIG    1       25.546 -30.546  10.279  0.00  0.00    +0.070 C 
BRANCH   2  12
ATOM     11  C   LIG    1       25.186 -32.924  12.381  0.00  0.00    +0.063 C 
ATOM     12  C   LIG    1       24.234 -32.598  11.226  0.00  0.00    +0.060 C 
ATOM     13  C   LIG    1       23.394 -33.824  10.857  0.00  0.00    +0.063 C 
ENDBRANCH   2  12
ENDBRANCH   1   6
BRANCH   1  14
ATOM     14  C   LIG    1       24.811 -28.065   6.521  0.00  0.00    +0.317 C 
ATOM     15  O   LIG    1       23.925 -28.388   5.751  0.00  0.00    -0.250 OA
BRANCH  14  16
ATOM     16  C   LIG    1       25.842 -26.948   6.297  0.00  0.00    +0.153 C 
BRANCH  16  17
ATOM     17  C   LIG    1       25.232 -25.566   6.518  0.00  0.00    -0.032 A 
ATOM     18  C   LIG    1       23.856 -25.345   6.340  0.00  0.00    +0.004 A 
ATOM     19  C   LIG    1       23.291 -24.100   6.610  0.00  0.00    +0.000 A 
ATOM     20  C   LIG    1       24.097 -23.046   7.029  0.00  0.00    +0.000 A 
ATOM     21  C   LIG    1       25.470 -23.236   7.174  0.00  0.00    +0.000 A 
ATOM     22  C   LIG    1       26.037 -24.488   6.922  0.00  0.00    +0.004 A 
ENDBRANCH  16  17
BRANCH  16  23
ATOM     23  C   LIG    1       26.478 -27.067   4.905  0.00  0.00    +0.175 C 
BRANCH  23  24
ATOM     24  O   LIG    1       27.902 -27.090   4.977  0.00  0.00    -0.394 OA
ATOM     25  H   LIG    1       28.252 -26.764   4.126  0.00  0.00    +0.209 HD
ENDBRANCH  23  24
ENDBRANCH  16  23
ENDBRANCH  14  16
ENDBRANCH   1  14
TORSDOF 7
ENDMDL
MODEL 6
REMARK VINA RESULT:      -6.7      5.545      8.753
REMARK  Name = *****
REMARK                            x       y       z     vdW  Elec       q    Type
REMARK                         _______ _______ _______ _____ _____    ______ ____
ROOT
ATOM      1  O   LIG    1       25.026 -25.583   6.887  0.00  0.00    -0.461 OA
ENDROOT
BRANCH   1   6
ATOM      2  N   LIG    1       23.783 -21.994   5.666  0.00  0.00    +0.247 N 
ATOM      3  C   LIG    1       22.621 -22.085   4.674  0.00  0.00    +0.193 C 
ATOM      4  C   LIG    1       25.055 -22.779   5.224  0.00  0.00    +0.070 C 
ATOM      5  C   LIG    1       24.705 -24.229   4.836  0.00  0.00    +0.099 C 
ATOM      6  C   LIG    1       24.041 -25.040   5.964  0.00  0.00    +0.187 C 
ATOM      7  C   LIG    1       23.062 -24.184   6.781  0.00  0.00    +0.099 C 
ATOM      8  C   LIG    1       25.925 -22.753   6.489  0.00  0.00    +0.060 C 
ATOM      9  C   LIG    1       24.934 -22.713   7.661  0.00  0.00    +0.060 C 
ATOM     10  C   LIG    1       23.540 -22.737   7.017  0.00  0.00    +0.070 C 
BRANCH   2  12
ATOM     11  C   LIG    1       22.879 -19.555   5.865  0.00  0.00    +0.063 C 
ATOM     12  C   LIG    1       24.126 -20.443   5.911  0.00  0.00    +0.060 C 
ATOM     13  C   LIG    1       25.197 -19.921   4.949  0.00  0.00    +0.063 C 
ENDBRANCH   2  12
ENDBRANCH   1   6
BRANCH   1  14
ATOM     14  C   LIG    1       25.683 -26.711   6.467  0.00  0.00    +0.317 C 
ATOM     15  O   LIG    1       26.803 -26.669   5.990  0.00  0.00    -0.250 OA
BRANCH  14  16
ATOM     16  C   LIG    1       24.863 -27.981   6.741  0.00  0.00    +0.153 C 
BRANCH  16  17
ATOM     17  C   LIG    1       25.533 -28.870   7.786  0.00  0.00    -0.032 A 
ATOM     18  C   LIG    1       25.471 -30.270   7.692  0.00  0.00    +0.004 A 
ATOM     19  C   LIG    1       26.142 -31.078   8.608  0.00  0.00    +0.000 A 
ATOM     20  C   LIG    1       26.856 -30.501   9.654  0.00  0.00    +0.000 A 
ATOM     21  C   LIG    1       26.897 -29.114   9.785  0.00  0.00    +0.000 A 
ATOM     22  C   LIG    1       26.240 -28.301   8.858  0.00  0.00    +0.004 A 
ENDBRANCH  16  17
BRANCH  16  23
ATOM     23  C   LIG    1       24.597 -28.747   5.438  0.00  0.00    +0.175 C 
BRANCH  23  24
ATOM     24  O   LIG    1       23.243 -29.188   5.353  0.00  0.00    -0.394 OA
ATOM     25  H   LIG    1       23.103 -29.864   6.045  0.00  0.00    +0.209 HD
ENDBRANCH  23  24
ENDBRANCH  16  23
ENDBRANCH  14  16
ENDBRANCH   1  14
TORSDOF 7
ENDMDL
MODEL 7
REMARK VINA RESULT:      -6.5      5.791      7.764
REMARK  Name = *****
REMARK                            x       y       z     vdW  Elec       q    Type
REMARK                         _______ _______ _______ _____ _____    ______ ____
ROOT
ATOM      1  O   LIG    1       25.717 -24.151   5.651  0.00  0.00    -0.461 OA
ENDROOT
BRANCH   1   6
ATOM      2  N   LIG    1       25.303 -28.074   6.247  0.00  0.00    +0.247 N 
ATOM      3  C   LIG    1       25.772 -28.505   7.640  0.00  0.00    +0.193 C 
ATOM      4  C   LIG    1       26.393 -27.332   5.416  0.00  0.00    +0.070 C 
ATOM      5  C   LIG    1       27.020 -26.180   6.225  0.00  0.00    +0.099 C 
ATOM      6  C   LIG    1       26.009 -25.119   6.698  0.00  0.00    +0.187 C 
ATOM      7  C   LIG    1       24.678 -25.752   7.127  0.00  0.00    +0.099 C 
ATOM      8  C   LIG    1       25.594 -26.783   4.225  0.00  0.00    +0.060 C 
ATOM      9  C   LIG    1       24.178 -26.537   4.766  0.00  0.00    +0.060 C 
ATOM     10  C   LIG    1       24.233 -26.938   6.248  0.00  0.00    +0.070 C 
BRANCH   2  12
ATOM     11  C   LIG    1       23.608 -30.055   6.184  0.00  0.00    +0.063 C 
ATOM     12  C   LIG    1       24.772 -29.371   5.461  0.00  0.00    +0.060 C 
ATOM     13  C   LIG    1       25.888 -30.377   5.166  0.00  0.00    +0.063 C 
ENDBRANCH   2  12
ENDBRANCH   1   6
BRANCH   1  14
ATOM     14  C   LIG    1       25.343 -22.902   6.077  0.00  0.00    +0.317 C 
ATOM     15  O   LIG    1       26.120 -22.148   6.634  0.00  0.00    -0.250 OA
BRANCH  14  16
ATOM     16  C   LIG    1       23.887 -22.586   5.701  0.00  0.00    +0.153 C 
BRANCH  16  17
ATOM     17  C   LIG    1       23.752 -21.192   5.092  0.00  0.00    -0.032 A 
ATOM     18  C   LIG    1       24.708 -20.703   4.186  0.00  0.00    +0.004 A 
ATOM     19  C   LIG    1       24.546 -19.459   3.579  0.00  0.00    +0.000 A 
ATOM     20  C   LIG    1       23.444 -18.669   3.895  0.00  0.00    +0.000 A 
ATOM     21  C   LIG    1       22.506 -19.122   4.820  0.00  0.00    +0.000 A 
ATOM     22  C   LIG    1       22.657 -20.376   5.417  0.00  0.00    +0.004 A 
ENDBRANCH  16  17
BRANCH  16  23
ATOM     23  C   LIG    1       22.963 -22.764   6.912  0.00  0.00    +0.175 C 
BRANCH  23  24
ATOM     24  O   LIG    1       21.965 -23.755   6.673  0.00  0.00    -0.394 OA
ATOM     25  H   LIG    1       22.410 -24.555   6.333  0.00  0.00    +0.209 HD
ENDBRANCH  23  24
ENDBRANCH  16  23
ENDBRANCH  14  16
ENDBRANCH   1  14
TORSDOF 7
ENDMDL
MODEL 8
REMARK VINA RESULT:      -6.4      3.680      6.061
REMARK  Name = *****
REMARK                            x       y       z     vdW  Elec       q    Type
REMARK                         _______ _______ _______ _____ _____    ______ ____
ROOT
ATOM      1  O   LIG    1       25.531 -23.916   5.730  0.00  0.00    -0.461 OA
ENDROOT
BRANCH   1   6
ATOM      2  N   LIG    1       24.953 -27.864   5.713  0.00  0.00    +0.247 N 
ATOM      3  C   LIG    1       23.732 -28.271   4.885  0.00  0.00    +0.193 C 
ATOM      4  C   LIG    1       24.635 -26.844   6.849  0.00  0.00    +0.070 C 
ATOM      5  C   LIG    1       23.845 -25.638   6.307  0.00  0.00    +0.099 C 
ATOM      6  C   LIG    1       24.566 -24.862   5.190  0.00  0.00    +0.187 C 
ATOM      7  C   LIG    1       25.321 -25.802   4.239  0.00  0.00    +0.099 C 
ATOM      8  C   LIG    1       26.034 -26.409   7.313  0.00  0.00    +0.060 C 
ATOM      9  C   LIG    1       26.926 -26.521   6.069  0.00  0.00    +0.060 C 
ATOM     10  C   LIG    1       25.997 -26.996   4.942  0.00  0.00    +0.070 C 
BRANCH   2  12
ATOM     11  C   LIG    1       25.644 -30.346   5.304  0.00  0.00    +0.063 C 
ATOM     12  C   LIG    1       25.632 -29.192   6.311  0.00  0.00    +0.060 C 
ATOM     13  C   LIG    1       24.992 -29.634   7.630  0.00  0.00    +0.063 C 
ENDBRANCH   2  12
ENDBRANCH   1   6
BRANCH   1  14
ATOM     14  C   LIG    1       25.207 -22.589   5.602  0.00  0.00    +0.317 C 
ATOM     15  O   LIG    1       24.624 -22.156   4.625  0.00  0.00    -0.250 OA
BRANCH  14  16
ATOM     16  C   LIG    1       25.607 -21.785   6.848  0.00  0.00    +0.153 C 
BRANCH  16  17
ATOM     17  C   LIG    1       26.968 -21.114   6.673  0.00  0.00    -0.032 A 
ATOM     18  C   LIG    1       27.146 -20.069   5.752  0.00  0.00    +0.004 A 
ATOM     19  C   LIG    1       28.370 -19.412   5.644  0.00  0.00    +0.000 A 
ATOM     20  C   LIG    1       29.447 -19.814   6.429  0.00  0.00    +0.000 A 
ATOM     21  C   LIG    1       29.300 -20.875   7.320  0.00  0.00    +0.000 A 
ATOM     22  C   LIG    1       28.068 -21.523   7.444  0.00  0.00    +0.004 A 
ENDBRANCH  16  17
BRANCH  16  23
ATOM     23  C   LIG    1       25.573 -22.671   8.100  0.00  0.00    +0.175 C 
BRANCH  23  24
ATOM     24  O   LIG    1       25.452 -21.895   9.292  0.00  0.00    -0.394 OA
ATOM     25  H   LIG    1       26.299 -21.431   9.436  0.00  0.00    +0.209 HD
ENDBRANCH  23  24
ENDBRANCH  16  23
ENDBRANCH  14  16
ENDBRANCH   1  14
TORSDOF 7
ENDMDL
MODEL 9
REMARK VINA RESULT:      -6.2      7.907     11.074
REMARK  Name = *****
REMARK                            x       y       z     vdW  Elec       q    Type
REMARK                         _______ _______ _______ _____ _____    ______ ____
ROOT
ATOM      1  O   LIG    1       24.881 -29.285   9.446  0.00  0.00    -0.461 OA
ENDROOT
BRANCH   1   6
ATOM      2  N   LIG    1       26.760 -29.555  12.954  0.00  0.00    +0.247 N 
ATOM      3  C   LIG    1       26.201 -30.679  13.831  0.00  0.00    +0.193 C 
ATOM      4  C   LIG    1       25.691 -28.512  12.507  0.00  0.00    +0.070 C 
ATOM      5  C   LIG    1       24.463 -29.206  11.887  0.00  0.00    +0.099 C 
ATOM      6  C   LIG    1       24.786 -30.080  10.661  0.00  0.00    +0.187 C 
ATOM      7  C   LIG    1       26.115 -30.830  10.829  0.00  0.00    +0.099 C 
ATOM      8  C   LIG    1       26.442 -27.693  11.446  0.00  0.00    +0.060 C 
ATOM      9  C   LIG    1       27.446 -28.669  10.817  0.00  0.00    +0.060 C 
ATOM     10  C   LIG    1       27.215 -30.009  11.532  0.00  0.00    +0.070 C 
BRANCH   2  12
ATOM     11  C   LIG    1       29.149 -29.776  13.979  0.00  0.00    +0.063 C 
ATOM     12  C   LIG    1       27.961 -28.838  13.746  0.00  0.00    +0.060 C 
ATOM     13  C   LIG    1       27.502 -28.210  15.065  0.00  0.00    +0.063 C 
ENDBRANCH   2  12
ENDBRANCH   1   6
BRANCH   1  14
ATOM     14  C   LIG    1       24.339 -29.848   8.318  0.00  0.00    +0.317 C 
ATOM     15  O   LIG    1       23.288 -30.461   8.340  0.00  0.00    -0.250 OA
BRANCH  14  16
ATOM     16  C   LIG    1       25.183 -29.543   7.070  0.00  0.00    +0.153 C 
BRANCH  16  17
ATOM     17  C   LIG    1       25.142 -28.060   6.712  0.00  0.00    -0.032 A 
ATOM     18  C   LIG    1       26.062 -27.156   7.267  0.00  0.00    +0.004 A 
ATOM     19  C   LIG    1       26.068 -25.816   6.884  0.00  0.00    +0.000 A 
ATOM     20  C   LIG    1       25.129 -25.350   5.968  0.00  0.00    +0.000 A 
ATOM     21  C   LIG    1       24.183 -26.224   5.436  0.00  0.00    +0.000 A 
ATOM     22  C   LIG    1       24.187 -27.572   5.804  0.00  0.00    +0.004 A 
ENDBRANCH  16  17
BRANCH  16  23
ATOM     23  C   LIG    1       24.743 -30.420   5.890  0.00  0.00    +0.175 C 
BRANCH  23  24
ATOM     24  O   LIG    1       23.332 -30.363   5.688  0.00  0.00    -0.394 OA
ATOM     25  H   LIG    1       22.943 -29.853   6.424  0.00  0.00    +0.209 HD
ENDBRANCH  23  24
ENDBRANCH  16  23
ENDBRANCH  14  16
ENDBRANCH   1  14
TORSDOF 7
ENDMDL
