MODEL 1
REMARK VINA RESULT:       7.9      0.000      0.000
REMARK  Name = *****
REMARK                            x       y       z     vdW  Elec       q    Type
REMARK                         _______ _______ _______ _____ _____    ______ ____
ROOT
ATOM      1  C   LIG    1       22.611 -19.454   4.149  0.00  0.00    -0.002 C 
ATOM      2  C   LIG    1       23.410 -18.196   4.691  0.00  0.00    -0.026 C 
ATOM      3  C   LIG    1       23.466 -18.128   6.236  0.00  0.00    +0.012 C 
ATOM      4  C   LIG    1       22.546 -16.958   4.210  0.00  0.00    +0.001 C 
ATOM      5  C   LIG    1       23.224 -15.655   3.686  0.00  0.00    +0.025 C 
ATOM      6  C   LIG    1       24.934 -16.010   2.985  0.00  0.00    +0.001 C 
ATOM      7  C   LIG    1       25.122 -17.528   2.868  0.00  0.00    +0.005 C 
ATOM      8  C   LIG    1       26.300 -15.053   3.836  0.00  0.00    -0.026 C 
ATOM      9  C   LIG    1       27.405 -15.918   4.425  0.00  0.00    +0.012 C 
ATOM     10  C   LIG    1       26.178 -13.480   4.838  0.00  0.00    +0.000 C 
ATOM     11  C   LIG    1       26.540 -12.312   3.971  0.00  0.00    +0.035 C 
ATOM     12  C   LIG    1       25.313 -12.235   3.136  0.00  0.00    +0.115 C 
ATOM     13  C   LIG    1       24.662 -13.658   3.176  0.00  0.00    +0.032 C 
ATOM     14  C   LIG    1       24.416 -13.172   5.531  0.00  0.00    +0.035 C 
ATOM     15  C   LIG    1       25.138 -14.954   4.579  0.00  0.00    +0.009 C 
ATOM     16  C   LIG    1       23.040 -14.260   4.940  0.00  0.00    +0.118 C 
ATOM     17  C   LIG    1       21.535 -17.537   3.219  0.00  0.00    +0.005 C 
ATOM     18  C   LIG    1       24.868 -18.276   4.161  0.00  0.00    +0.007 C 
ATOM     19  C   LIG    1       21.218 -18.894   3.824  0.00  0.00    +0.004 C 
ENDROOT
BRANCH   1  21
ATOM     20  C   LIG    1       21.175 -21.412   5.053  0.00  0.00    +0.008 C 
ATOM     21  C   LIG    1       22.561 -20.752   5.009  0.00  0.00    -0.010 C 
BRANCH  21  22
ATOM     22  C   LIG    1       23.037 -20.524   6.470  0.00  0.00    +0.012 C 
BRANCH  22  23
ATOM     23  C   LIG    1       24.029 -21.572   6.989  0.00  0.00    +0.096 C 
BRANCH  23  24
ATOM     24  C   LIG    1       25.339 -21.523   6.235  0.00  0.00    +0.213 C 
ATOM     25  N   LIG    1       26.447 -21.569   7.054  0.00  0.00    -0.314 N 
ATOM     26  H   LIG    1       26.324 -21.690   8.053  0.00  0.00    +0.149 HD
ATOM     27  O   LIG    1       25.411 -21.472   5.012  0.00  0.00    -0.276 OA
BRANCH  25  28
ATOM     28  C   LIG    1       27.797 -21.559   6.513  0.00  0.00    +0.129 C 
BRANCH  28  29
ATOM     29  C   LIG    1       28.600 -20.362   6.992  0.00  0.00    +0.216 C 
BRANCH  29  30
ATOM     30  S   LIG    1       28.626 -19.071   5.770  0.00  0.00    +0.081 S 
ATOM     31  O   LIG    1       29.410 -17.967   6.241  0.00  0.00    -0.147 OA
ATOM     32  O   LIG    1       27.293 -18.898   5.229  0.00  0.00    -0.147 OA
BRANCH  30  33
ATOM     33  O   LIG    1       29.468 -19.831   4.621  0.00  0.00    -0.254 OA
ATOM     34  H   LIG    1       30.122 -19.198   4.253  0.00  0.00    +0.244 HD
ENDBRANCH  30  33
ENDBRANCH  29  30
ENDBRANCH  28  29
ENDBRANCH  25  28
ENDBRANCH  23  24
ENDBRANCH  22  23
ENDBRANCH  21  22
ENDBRANCH   1  21
BRANCH  12  35
ATOM     35  O   LIG    1       25.644 -11.835   1.813  0.00  0.00    -0.392 OA
ATOM     36  H   LIG    1       25.798 -10.876   1.830  0.00  0.00    +0.210 HD
ENDBRANCH  12  35
BRANCH  16  37
ATOM     37  O   LIG    1       22.350 -14.708   6.105  0.00  0.00    -0.392 OA
ATOM     38  H   LIG    1       21.436 -14.905   5.846  0.00  0.00    +0.210 HD
ENDBRANCH  16  37
TORSDOF 10
ENDMDL
