MODEL 1
REMARK VINA RESULT:      -6.3      0.000      0.000
REMARK  Name = *****
REMARK                            x       y       z     vdW  Elec       q    Type
REMARK                         _______ _______ _______ _____ _____    ______ ____
ROOT
ATOM      1  C   LIG    1       23.452 -20.879   5.697  0.00  0.00    +0.078 A 
ATOM      2  C   LIG    1       24.607 -20.931   4.900  0.00  0.00    +0.129 A 
ATOM      3  C   LIG    1       24.811 -19.990   3.883  0.00  0.00    +0.046 A 
ATOM      4  C   LIG    1       23.865 -18.990   3.656  0.00  0.00    +0.004 A 
ATOM      5  C   LIG    1       22.716 -18.926   4.439  0.00  0.00    +0.001 A 
ATOM      6  C   LIG    1       22.511 -19.865   5.453  0.00  0.00    +0.017 A 
ENDROOT
BRANCH   1  10
ATOM      7  N   LIG    1       22.815 -23.113   6.470  0.00  0.00    -0.325 N 
ATOM      8  H   LIG    1       22.782 -23.404   5.499  0.00  0.00    +0.145 HD
ATOM      9  H   LIG    1       22.599 -23.771   7.205  0.00  0.00    +0.145 HD
ATOM     10  C   LIG    1       23.141 -21.833   6.805  0.00  0.00    +0.245 C 
ATOM     11  O   LIG    1       23.174 -21.490   7.983  0.00  0.00    -0.270 OA
ENDBRANCH   1  10
BRANCH   2  12
ATOM     12  O   LIG    1       25.560 -21.900   5.093  0.00  0.00    -0.506 OA
ATOM     13  H   LIG    1       25.321 -22.683   4.567  0.00  0.00    +0.292 HD
ENDBRANCH   2  12
TORSDOF 2
ENDMDL
MODEL 2
REMARK VINA RESULT:      -6.2      3.573      4.546
REMARK  Name = *****
REMARK                            x       y       z     vdW  Elec       q    Type
REMARK                         _______ _______ _______ _____ _____    ______ ____
ROOT
ATOM      1  C   LIG    1       25.336 -22.096   7.692  0.00  0.00    +0.078 A 
ATOM      2  C   LIG    1       23.954 -22.038   7.452  0.00  0.00    +0.129 A 
ATOM      3  C   LIG    1       23.287 -23.123   6.870  0.00  0.00    +0.046 A 
ATOM      4  C   LIG    1       23.995 -24.274   6.524  0.00  0.00    +0.004 A 
ATOM      5  C   LIG    1       25.366 -24.346   6.756  0.00  0.00    +0.001 A 
ATOM      6  C   LIG    1       26.031 -23.264   7.336  0.00  0.00    +0.017 A 
ENDROOT
BRANCH   1  10
ATOM      7  N   LIG    1       27.190 -20.500   7.594  0.00  0.00    -0.325 N 
ATOM      8  H   LIG    1       27.418 -20.871   6.678  0.00  0.00    +0.145 HD
ATOM      9  H   LIG    1       27.745 -19.757   7.994  0.00  0.00    +0.145 HD
ATOM     10  C   LIG    1       26.139 -20.996   8.307  0.00  0.00    +0.245 C 
ATOM     11  O   LIG    1       25.874 -20.543   9.415  0.00  0.00    -0.270 OA
ENDBRANCH   1  10
BRANCH   2  12
ATOM     12  O   LIG    1       23.223 -20.923   7.778  0.00  0.00    -0.506 OA
ATOM     13  H   LIG    1       23.836 -20.194   7.977  0.00  0.00    +0.292 HD
ENDBRANCH   2  12
TORSDOF 2
ENDMDL
MODEL 3
REMARK VINA RESULT:      -6.2      2.553      2.792
REMARK  Name = *****
REMARK                            x       y       z     vdW  Elec       q    Type
REMARK                         _______ _______ _______ _____ _____    ______ ____
ROOT
ATOM      1  C   LIG    1       25.361 -20.728   7.052  0.00  0.00    +0.078 A 
ATOM      2  C   LIG    1       25.836 -20.482   5.754  0.00  0.00    +0.129 A 
ATOM      3  C   LIG    1       24.940 -20.288   4.695  0.00  0.00    +0.046 A 
ATOM      4  C   LIG    1       23.565 -20.337   4.925  0.00  0.00    +0.004 A 
ATOM      5  C   LIG    1       23.081 -20.581   6.208  0.00  0.00    +0.001 A 
ATOM      6  C   LIG    1       23.973 -20.774   7.263  0.00  0.00    +0.017 A 
ENDROOT
BRANCH   1  10
ATOM      7  N   LIG    1       27.400 -21.626   8.068  0.00  0.00    -0.325 N 
ATOM      8  H   LIG    1       27.665 -21.972   7.153  0.00  0.00    +0.145 HD
ATOM      9  H   LIG    1       28.000 -21.785   8.865  0.00  0.00    +0.145 HD
ATOM     10  C   LIG    1       26.232 -20.948   8.248  0.00  0.00    +0.245 C 
ATOM     11  O   LIG    1       25.919 -20.536   9.360  0.00  0.00    -0.270 OA
ENDBRANCH   1  10
BRANCH   2  12
ATOM     12  O   LIG    1       27.181 -20.426   5.487  0.00  0.00    -0.506 OA
ATOM     13  H   LIG    1       27.547 -21.326   5.536  0.00  0.00    +0.292 HD
ENDBRANCH   2  12
TORSDOF 2
ENDMDL
MODEL 4
REMARK VINA RESULT:      -6.1      3.457      4.352
REMARK  Name = *****
REMARK                            x       y       z     vdW  Elec       q    Type
REMARK                         _______ _______ _______ _____ _____    ______ ____
ROOT
ATOM      1  C   LIG    1       26.645 -20.520   7.019  0.00  0.00    +0.078 A 
ATOM      2  C   LIG    1       25.635 -20.697   7.978  0.00  0.00    +0.129 A 
ATOM      3  C   LIG    1       24.292 -20.777   7.588  0.00  0.00    +0.046 A 
ATOM      4  C   LIG    1       23.948 -20.681   6.240  0.00  0.00    +0.004 A 
ATOM      5  C   LIG    1       24.940 -20.505   5.279  0.00  0.00    +0.001 A 
ATOM      6  C   LIG    1       26.279 -20.425   5.666  0.00  0.00    +0.017 A 
ENDROOT
BRANCH   1  10
ATOM      7  N   LIG    1       28.979 -21.013   6.467  0.00  0.00    -0.325 N 
ATOM      8  H   LIG    1       28.646 -21.504   5.645  0.00  0.00    +0.145 HD
ATOM      9  H   LIG    1       29.968 -20.959   6.662  0.00  0.00    +0.145 HD
ATOM     10  C   LIG    1       28.104 -20.423   7.330  0.00  0.00    +0.245 C 
ATOM     11  O   LIG    1       28.516 -19.834   8.324  0.00  0.00    -0.270 OA
ENDBRANCH   1  10
BRANCH   2  12
ATOM     12  O   LIG    1       25.932 -20.795   9.314  0.00  0.00    -0.506 OA
ATOM     13  H   LIG    1       26.873 -21.024   9.409  0.00  0.00    +0.292 HD
ENDBRANCH   2  12
TORSDOF 2
ENDMDL
MODEL 5
REMARK VINA RESULT:      -6.1      6.397      7.111
REMARK  Name = *****
REMARK                            x       y       z     vdW  Elec       q    Type
REMARK                         _______ _______ _______ _____ _____    ______ ____
ROOT
ATOM      1  C   LIG    1       30.161 -20.485   7.782  0.00  0.00    +0.078 A 
ATOM      2  C   LIG    1       30.110 -19.363   6.940  0.00  0.00    +0.129 A 
ATOM      3  C   LIG    1       28.997 -19.142   6.119  0.00  0.00    +0.046 A 
ATOM      4  C   LIG    1       27.928 -20.037   6.135  0.00  0.00    +0.004 A 
ATOM      5  C   LIG    1       27.965 -21.153   6.965  0.00  0.00    +0.001 A 
ATOM      6  C   LIG    1       29.075 -21.376   7.783  0.00  0.00    +0.017 A 
ENDROOT
BRANCH   1  10
ATOM      7  N   LIG    1       31.679 -22.118   8.796  0.00  0.00    -0.325 N 
ATOM      8  H   LIG    1       31.200 -22.840   8.271  0.00  0.00    +0.145 HD
ATOM      9  H   LIG    1       32.445 -22.358   9.408  0.00  0.00    +0.145 HD
ATOM     10  C   LIG    1       31.300 -20.812   8.694  0.00  0.00    +0.245 C 
ATOM     11  O   LIG    1       31.884 -19.945   9.335  0.00  0.00    -0.270 OA
ENDBRANCH   1  10
BRANCH   2  12
ATOM     12  O   LIG    1       31.142 -18.460   6.896  0.00  0.00    -0.506 OA
ATOM     13  H   LIG    1       30.799 -17.581   7.132  0.00  0.00    +0.292 HD
ENDBRANCH   2  12
TORSDOF 2
ENDMDL
MODEL 6
REMARK VINA RESULT:      -6.1      6.655      7.387
REMARK  Name = *****
REMARK                            x       y       z     vdW  Elec       q    Type
REMARK                         _______ _______ _______ _____ _____    ______ ____
ROOT
ATOM      1  C   LIG    1       30.358 -19.505   7.671  0.00  0.00    +0.078 A 
ATOM      2  C   LIG    1       29.536 -20.638   7.784  0.00  0.00    +0.129 A 
ATOM      3  C   LIG    1       28.496 -20.853   6.872  0.00  0.00    +0.046 A 
ATOM      4  C   LIG    1       28.269 -19.941   5.841  0.00  0.00    +0.004 A 
ATOM      5  C   LIG    1       29.077 -18.813   5.718  0.00  0.00    +0.001 A 
ATOM      6  C   LIG    1       30.114 -18.598   6.627  0.00  0.00    +0.017 A 
ENDROOT
BRANCH   1  10
ATOM      7  N   LIG    1       31.874 -17.879   8.700  0.00  0.00    -0.325 N 
ATOM      8  H   LIG    1       31.403 -17.155   8.170  0.00  0.00    +0.145 HD
ATOM      9  H   LIG    1       32.639 -17.644   9.314  0.00  0.00    +0.145 HD
ATOM     10  C   LIG    1       31.493 -19.184   8.591  0.00  0.00    +0.245 C 
ATOM     11  O   LIG    1       32.071 -20.054   9.233  0.00  0.00    -0.270 OA
ENDBRANCH   1  10
BRANCH   2  12
ATOM     12  O   LIG    1       29.727 -21.558   8.784  0.00  0.00    -0.506 OA
ATOM     13  H   LIG    1       30.569 -22.019   8.628  0.00  0.00    +0.292 HD
ENDBRANCH   2  12
TORSDOF 2
ENDMDL
MODEL 7
REMARK VINA RESULT:      -6.0      2.594      3.372
REMARK  Name = *****
REMARK                            x       y       z     vdW  Elec       q    Type
REMARK                         _______ _______ _______ _____ _____    ______ ____
ROOT
ATOM      1  C   LIG    1       24.937 -20.624   6.239  0.00  0.00    +0.078 A 
ATOM      2  C   LIG    1       26.211 -20.409   5.691  0.00  0.00    +0.129 A 
ATOM      3  C   LIG    1       27.339 -20.343   6.519  0.00  0.00    +0.046 A 
ATOM      4  C   LIG    1       27.202 -20.490   7.899  0.00  0.00    +0.004 A 
ATOM      5  C   LIG    1       25.945 -20.704   8.456  0.00  0.00    +0.001 A 
ATOM      6  C   LIG    1       24.820 -20.770   7.632  0.00  0.00    +0.017 A 
ENDROOT
BRANCH   1  10
ATOM      7  N   LIG    1       23.654 -21.549   4.370  0.00  0.00    -0.325 N 
ATOM      8  H   LIG    1       24.474 -22.090   4.118  0.00  0.00    +0.145 HD
ATOM      9  H   LIG    1       22.810 -21.620   3.820  0.00  0.00    +0.145 HD
ATOM     10  C   LIG    1       23.674 -20.712   5.445  0.00  0.00    +0.245 C 
ATOM     11  O   LIG    1       22.678 -20.058   5.739  0.00  0.00    -0.270 OA
ENDBRANCH   1  10
BRANCH   2  12
ATOM     12  O   LIG    1       26.387 -20.259   4.338  0.00  0.00    -0.506 OA
ATOM     13  H   LIG    1       25.592 -19.839   3.964  0.00  0.00    +0.292 HD
ENDBRANCH   2  12
TORSDOF 2
ENDMDL
MODEL 8
REMARK VINA RESULT:      -6.0      2.863      4.446
REMARK  Name = *****
REMARK                            x       y       z     vdW  Elec       q    Type
REMARK                         _______ _______ _______ _____ _____    ______ ____
ROOT
ATOM      1  C   LIG    1       24.221 -22.798   6.917  0.00  0.00    +0.078 A 
ATOM      2  C   LIG    1       23.350 -23.862   6.637  0.00  0.00    +0.129 A 
ATOM      3  C   LIG    1       23.851 -25.152   6.422  0.00  0.00    +0.046 A 
ATOM      4  C   LIG    1       25.224 -25.388   6.486  0.00  0.00    +0.004 A 
ATOM      5  C   LIG    1       26.099 -24.342   6.764  0.00  0.00    +0.001 A 
ATOM      6  C   LIG    1       25.601 -23.055   6.978  0.00  0.00    +0.017 A 
ENDROOT
BRANCH   1  10
ATOM      7  N   LIG    1       22.944 -20.815   6.258  0.00  0.00    -0.325 N 
ATOM      8  H   LIG    1       22.625 -21.330   5.446  0.00  0.00    +0.145 HD
ATOM      9  H   LIG    1       22.643 -19.862   6.406  0.00  0.00    +0.145 HD
ATOM     10  C   LIG    1       23.789 -21.388   7.162  0.00  0.00    +0.245 C 
ATOM     11  O   LIG    1       24.172 -20.754   8.140  0.00  0.00    -0.270 OA
ENDBRANCH   1  10
BRANCH   2  12
ATOM     12  O   LIG    1       21.993 -23.670   6.564  0.00  0.00    -0.506 OA
ATOM     13  H   LIG    1       21.805 -23.025   5.861  0.00  0.00    +0.292 HD
ENDBRANCH   2  12
TORSDOF 2
ENDMDL
MODEL 9
REMARK VINA RESULT:      -6.0      3.211      4.166
REMARK  Name = *****
REMARK                            x       y       z     vdW  Elec       q    Type
REMARK                         _______ _______ _______ _____ _____    ______ ____
ROOT
ATOM      1  C   LIG    1       24.659 -23.747   6.747  0.00  0.00    +0.078 A 
ATOM      2  C   LIG    1       23.408 -23.123   6.875  0.00  0.00    +0.129 A 
ATOM      3  C   LIG    1       23.320 -21.781   7.266  0.00  0.00    +0.046 A 
ATOM      4  C   LIG    1       24.480 -21.053   7.530  0.00  0.00    +0.004 A 
ATOM      5  C   LIG    1       25.727 -21.659   7.407  0.00  0.00    +0.001 A 
ATOM      6  C   LIG    1       25.815 -22.997   7.018  0.00  0.00    +0.017 A 
ENDROOT
BRANCH   1  10
ATOM      7  N   LIG    1       24.048 -25.675   5.365  0.00  0.00    -0.325 N 
ATOM      8  H   LIG    1       23.329 -25.100   4.940  0.00  0.00    +0.145 HD
ATOM      9  H   LIG    1       24.169 -26.635   5.077  0.00  0.00    +0.145 HD
ATOM     10  C   LIG    1       24.861 -25.171   6.337  0.00  0.00    +0.245 C 
ATOM     11  O   LIG    1       25.726 -25.874   6.848  0.00  0.00    -0.270 OA
ENDBRANCH   1  10
BRANCH   2  12
ATOM     12  O   LIG    1       22.244 -23.806   6.624  0.00  0.00    -0.506 OA
ATOM     13  H   LIG    1       21.752 -23.340   5.926  0.00  0.00    +0.292 HD
ENDBRANCH   2  12
TORSDOF 2
ENDMDL
