MODEL 1
REMARK VINA RESULT:      -7.9      0.000      0.000
REMARK  Name = *****
REMARK                            x       y       z     vdW  Elec       q    Type
REMARK                         _______ _______ _______ _____ _____    ______ ____
ROOT
ATOM      1  C   LIG    1       22.686 -19.266   5.300  0.00  0.00    +0.011 C 
ATOM      2  C   LIG    1       22.860 -20.592   5.467  0.00  0.00    -0.036 C 
ATOM      3  C   LIG    1       23.740 -21.444   4.537  0.00  0.00    +0.213 C 
ATOM      4  O   LIG    1       24.796 -20.604   3.938  0.00  0.00    -0.480 OA
ATOM      5  C   LIG    1       25.823 -20.682   4.853  0.00  0.00    +0.167 A 
ATOM      6  C   LIG    1       25.683 -21.767   5.690  0.00  0.00    +0.014 A 
ATOM      7  C   LIG    1       26.450 -21.930   6.873  0.00  0.00    -0.038 A 
ATOM      8  C   LIG    1       27.464 -21.005   7.103  0.00  0.00    +0.008 A 
ATOM      9  C   LIG    1       27.670 -19.947   6.187  0.00  0.00    +0.049 A 
ATOM     10  C   LIG    1       26.108 -23.106   7.825  0.00  0.00    +0.057 C 
ATOM     11  C   LIG    1       25.153 -23.995   6.991  0.00  0.00    +0.093 C 
ATOM     12  N   LIG    1       24.975 -25.372   6.481  0.00  0.00    -0.296 NA
ATOM     13  C   LIG    1       25.068 -25.259   4.955  0.00  0.00    +0.086 C 
ATOM     14  C   LIG    1       24.814 -23.812   4.278  0.00  0.00    +0.034 C 
ATOM     15  C   LIG    1       23.884 -23.185   6.498  0.00  0.00    +0.096 C 
ATOM     16  C   LIG    1       23.237 -22.144   7.419  0.00  0.00    +0.042 C 
ATOM     17  C   LIG    1       26.838 -19.778   5.067  0.00  0.00    +0.159 A 
ATOM     18  C   LIG    1       24.481 -22.596   5.240  0.00  0.00    +0.071 C 
ATOM     19  C   LIG    1       22.214 -21.313   6.628  0.00  0.00    +0.037 C 
ENDROOT
BRANCH  15  20
ATOM     20  O   LIG    1       22.799 -24.086   6.166  0.00  0.00    -0.386 OA
ATOM     21  H   LIG    1       22.223 -24.081   6.962  0.00  0.00    +0.210 HD
ENDBRANCH  15  20
BRANCH  17  22
ATOM     22  O   LIG    1       26.995 -18.720   4.224  0.00  0.00    -0.503 OA
ATOM     23  H   LIG    1       27.015 -19.046   3.311  0.00  0.00    +0.292 HD
ENDBRANCH  17  22
BRANCH  12  24
ATOM     24  C   LIG    1       25.971 -26.291   7.041  0.00  0.00    +0.088 C 
BRANCH  24  25
ATOM     25  C   LIG    1       25.735 -27.689   6.551  0.00  0.00    +0.003 C 
ATOM     26  C   LIG    1       25.333 -28.787   7.506  0.00  0.00    +0.005 C 
ATOM     27  C   LIG    1       24.332 -28.242   6.529  0.00  0.00    +0.005 C 
ENDBRANCH  24  25
ENDBRANCH  12  24
TORSDOF 4
ENDMDL
MODEL 2
REMARK VINA RESULT:      -6.7      2.472      5.972
REMARK  Name = *****
REMARK                            x       y       z     vdW  Elec       q    Type
REMARK                         _______ _______ _______ _____ _____    ______ ____
ROOT
ATOM      1  C   LIG    1       26.169 -24.615   7.168  0.00  0.00    +0.011 C 
ATOM      2  C   LIG    1       25.223 -23.781   6.691  0.00  0.00    -0.036 C 
ATOM      3  C   LIG    1       24.790 -22.502   7.424  0.00  0.00    +0.213 C 
ATOM      4  O   LIG    1       25.901 -22.001   8.258  0.00  0.00    -0.480 OA
ATOM      5  C   LIG    1       26.598 -21.179   7.399  0.00  0.00    +0.167 A 
ATOM      6  C   LIG    1       25.834 -20.800   6.317  0.00  0.00    +0.014 A 
ATOM      7  C   LIG    1       26.385 -20.179   5.166  0.00  0.00    -0.038 A 
ATOM      8  C   LIG    1       27.733 -19.835   5.216  0.00  0.00    +0.008 A 
ATOM      9  C   LIG    1       28.492 -20.137   6.370  0.00  0.00    +0.049 A 
ATOM     10  C   LIG    1       25.465 -19.933   3.942  0.00  0.00    +0.057 C 
ATOM     11  C   LIG    1       24.039 -20.188   4.489  0.00  0.00    +0.093 C 
ATOM     12  N   LIG    1       22.709 -19.561   4.639  0.00  0.00    -0.296 NA
ATOM     13  C   LIG    1       22.500 -19.399   6.150  0.00  0.00    +0.086 C 
ATOM     14  C   LIG    1       23.383 -20.316   7.146  0.00  0.00    +0.034 C 
ATOM     15  C   LIG    1       23.903 -21.641   5.107  0.00  0.00    +0.096 C 
ATOM     16  C   LIG    1       24.614 -22.824   4.438  0.00  0.00    +0.042 C 
ATOM     17  C   LIG    1       27.926 -20.823   7.459  0.00  0.00    +0.159 A 
ATOM     18  C   LIG    1       24.413 -21.332   6.496  0.00  0.00    +0.071 C 
ATOM     19  C   LIG    1       24.558 -24.053   5.361  0.00  0.00    +0.037 C 
ENDROOT
BRANCH  15  20
ATOM     20  O   LIG    1       22.514 -22.047   5.159  0.00  0.00    -0.386 OA
ATOM     21  H   LIG    1       22.291 -22.283   4.232  0.00  0.00    +0.210 HD
ENDBRANCH  15  20
BRANCH  17  22
ATOM     22  O   LIG    1       28.675 -21.172   8.541  0.00  0.00    -0.503 OA
ATOM     23  H   LIG    1       28.539 -20.517   9.242  0.00  0.00    +0.292 HD
ENDBRANCH  17  22
BRANCH  12  24
ATOM     24  C   LIG    1       22.625 -18.287   3.918  0.00  0.00    +0.088 C 
BRANCH  24  25
ATOM     25  C   LIG    1       22.954 -17.141   4.829  0.00  0.00    +0.003 C 
ATOM     26  C   LIG    1       23.224 -15.763   4.275  0.00  0.00    +0.005 C 
ATOM     27  C   LIG    1       21.949 -16.032   5.022  0.00  0.00    +0.005 C 
ENDBRANCH  24  25
ENDBRANCH  12  24
TORSDOF 4
ENDMDL
MODEL 3
REMARK VINA RESULT:      -6.2      5.021      9.682
REMARK  Name = *****
REMARK                            x       y       z     vdW  Elec       q    Type
REMARK                         _______ _______ _______ _____ _____    ______ ____
ROOT
ATOM      1  C   LIG    1       25.396 -33.825  11.048  0.00  0.00    +0.011 C 
ATOM      2  C   LIG    1       25.479 -32.942  10.032  0.00  0.00    -0.036 C 
ATOM      3  C   LIG    1       24.301 -32.059   9.594  0.00  0.00    +0.213 C 
ATOM      4  O   LIG    1       23.397 -31.825  10.738  0.00  0.00    -0.480 OA
ATOM      5  C   LIG    1       23.921 -30.697  11.332  0.00  0.00    +0.167 A 
ATOM      6  C   LIG    1       24.744 -29.999  10.476  0.00  0.00    +0.014 A 
ATOM      7  C   LIG    1       25.605 -28.960  10.912  0.00  0.00    -0.038 A 
ATOM      8  C   LIG    1       25.498 -28.565  12.243  0.00  0.00    +0.008 A 
ATOM      9  C   LIG    1       24.580 -29.218  13.096  0.00  0.00    +0.049 A 
ATOM     10  C   LIG    1       26.601 -28.344   9.895  0.00  0.00    +0.057 C 
ATOM     11  C   LIG    1       26.118 -28.883   8.526  0.00  0.00    +0.093 C 
ATOM     12  N   LIG    1       25.679 -28.450   7.182  0.00  0.00    -0.296 NA
ATOM     13  C   LIG    1       24.209 -28.873   7.076  0.00  0.00    +0.086 C 
ATOM     14  C   LIG    1       23.672 -30.029   8.071  0.00  0.00    +0.034 C 
ATOM     15  C   LIG    1       26.082 -30.466   8.503  0.00  0.00    +0.096 C 
ATOM     16  C   LIG    1       27.179 -31.266   9.218  0.00  0.00    +0.042 C 
ATOM     17  C   LIG    1       23.799 -30.296  12.643  0.00  0.00    +0.159 A 
ATOM     18  C   LIG    1       24.705 -30.658   9.097  0.00  0.00    +0.071 C 
ATOM     19  C   LIG    1       26.780 -32.749   9.286  0.00  0.00    +0.037 C 
ENDROOT
BRANCH  15  20
ATOM     20  O   LIG    1       26.116 -30.959   7.141  0.00  0.00    -0.386 OA
ATOM     21  H   LIG    1       25.715 -31.855   7.194  0.00  0.00    +0.210 HD
ENDBRANCH  15  20
BRANCH  17  22
ATOM     22  O   LIG    1       22.965 -30.967  13.484  0.00  0.00    -0.503 OA
ATOM     23  H   LIG    1       22.048 -30.805  13.213  0.00  0.00    +0.292 HD
ENDBRANCH  17  22
BRANCH  12  24
ATOM     24  C   LIG    1       25.867 -27.009   6.987  0.00  0.00    +0.088 C 
BRANCH  24  25
ATOM     25  C   LIG    1       24.884 -26.478   5.986  0.00  0.00    +0.003 C 
ATOM     26  C   LIG    1       24.086 -25.229   6.270  0.00  0.00    +0.005 C 
ATOM     27  C   LIG    1       25.189 -25.196   5.252  0.00  0.00    +0.005 C 
ENDBRANCH  24  25
ENDBRANCH  12  24
TORSDOF 4
ENDMDL
MODEL 4
REMARK VINA RESULT:      -5.7      8.260     10.454
REMARK  Name = *****
REMARK                            x       y       z     vdW  Elec       q    Type
REMARK                         _______ _______ _______ _____ _____    ______ ____
ROOT
ATOM      1  C   LIG    1       28.012 -29.994  13.778  0.00  0.00    +0.011 C 
ATOM      2  C   LIG    1       26.833 -29.432  14.108  0.00  0.00    -0.036 C 
ATOM      3  C   LIG    1       26.325 -28.124  13.479  0.00  0.00    +0.213 C 
ATOM      4  O   LIG    1       26.898 -27.962  12.128  0.00  0.00    -0.480 OA
ATOM      5  C   LIG    1       25.993 -28.612  11.318  0.00  0.00    +0.167 A 
ATOM      6  C   LIG    1       24.772 -28.772  11.936  0.00  0.00    +0.014 A 
ATOM      7  C   LIG    1       23.760 -29.628  11.430  0.00  0.00    -0.038 A 
ATOM      8  C   LIG    1       23.990 -30.218  10.191  0.00  0.00    +0.008 A 
ATOM      9  C   LIG    1       25.205 -29.972   9.512  0.00  0.00    +0.049 A 
ATOM     10  C   LIG    1       22.484 -29.854  12.283  0.00  0.00    +0.057 C 
ATOM     11  C   LIG    1       22.569 -28.764  13.379  0.00  0.00    +0.093 C 
ATOM     12  N   LIG    1       21.825 -27.630  13.968  0.00  0.00    -0.296 NA
ATOM     13  C   LIG    1       22.660 -26.383  13.652  0.00  0.00    +0.086 C 
ATOM     14  C   LIG    1       24.223 -26.582  13.290  0.00  0.00    +0.034 C 
ATOM     15  C   LIG    1       23.915 -28.873  14.206  0.00  0.00    +0.096 C 
ATOM     16  C   LIG    1       24.489 -30.253  14.551  0.00  0.00    +0.042 C 
ATOM     17  C   LIG    1       26.215 -29.178  10.083  0.00  0.00    +0.159 A 
ATOM     18  C   LIG    1       24.798 -28.060  13.288  0.00  0.00    +0.071 C 
ATOM     19  C   LIG    1       25.915 -30.099  15.107  0.00  0.00    +0.037 C 
ENDROOT
BRANCH  15  20
ATOM     20  O   LIG    1       23.783 -28.215  15.490  0.00  0.00    -0.386 OA
ATOM     21  H   LIG    1       23.880 -28.938  16.148  0.00  0.00    +0.210 HD
ENDBRANCH  15  20
BRANCH  17  22
ATOM     22  O   LIG    1       27.411 -28.998   9.458  0.00  0.00    -0.503 OA
ATOM     23  H   LIG    1       28.102 -28.882  10.129  0.00  0.00    +0.292 HD
ENDBRANCH  17  22
BRANCH  12  24
ATOM     24  C   LIG    1       20.459 -27.543  13.440  0.00  0.00    +0.088 C 
BRANCH  24  25
ATOM     25  C   LIG    1       19.577 -26.776  14.380  0.00  0.00    +0.003 C 
ATOM     26  C   LIG    1       18.345 -26.062  13.877  0.00  0.00    +0.005 C 
ATOM     27  C   LIG    1       18.203 -27.304  14.710  0.00  0.00    +0.005 C 
ENDBRANCH  24  25
ENDBRANCH  12  24
TORSDOF 4
ENDMDL
MODEL 5
REMARK VINA RESULT:      -5.5      8.203     10.556
REMARK  Name = *****
REMARK                            x       y       z     vdW  Elec       q    Type
REMARK                         _______ _______ _______ _____ _____    ______ ____
ROOT
ATOM      1  C   LIG    1       22.708 -33.825   9.306  0.00  0.00    +0.011 C 
ATOM      2  C   LIG    1       23.776 -33.052   9.583  0.00  0.00    -0.036 C 
ATOM      3  C   LIG    1       23.872 -31.576   9.164  0.00  0.00    +0.213 C 
ATOM      4  O   LIG    1       22.518 -30.998   9.055  0.00  0.00    -0.480 OA
ATOM      5  C   LIG    1       22.263 -30.539  10.329  0.00  0.00    +0.167 A 
ATOM      6  C   LIG    1       23.420 -30.390  11.062  0.00  0.00    +0.014 A 
ATOM      7  C   LIG    1       23.421 -30.186  12.466  0.00  0.00    -0.038 A 
ATOM      8  C   LIG    1       22.185 -30.006  13.080  0.00  0.00    +0.008 A 
ATOM      9  C   LIG    1       21.003 -30.060  12.307  0.00  0.00    +0.049 A 
ATOM     10  C   LIG    1       24.779 -30.186  13.216  0.00  0.00    +0.057 C 
ATOM     11  C   LIG    1       25.831 -30.105  12.084  0.00  0.00    +0.093 C 
ATOM     12  N   LIG    1       26.978 -29.307  11.600  0.00  0.00    -0.296 NA
ATOM     13  C   LIG    1       26.525 -28.705  10.265  0.00  0.00    +0.086 C 
ATOM     14  C   LIG    1       25.289 -29.405   9.491  0.00  0.00    +0.034 C 
ATOM     15  C   LIG    1       25.673 -31.299  11.055  0.00  0.00    +0.096 C 
ATOM     16  C   LIG    1       25.301 -32.699  11.561  0.00  0.00    +0.042 C 
ATOM     17  C   LIG    1       21.042 -30.341  10.930  0.00  0.00    +0.159 A 
ATOM     18  C   LIG    1       24.623 -30.677  10.163  0.00  0.00    +0.071 C 
ATOM     19  C   LIG    1       24.942 -33.604  10.371  0.00  0.00    +0.037 C 
ENDROOT
BRANCH  15  20
ATOM     20  O   LIG    1       26.902 -31.506  10.317  0.00  0.00    -0.386 OA
ATOM     21  H   LIG    1       27.611 -31.435  10.994  0.00  0.00    +0.210 HD
ENDBRANCH  15  20
BRANCH  17  22
ATOM     22  O   LIG    1       19.898 -30.460  10.201  0.00  0.00    -0.503 OA
ATOM     23  H   LIG    1       20.123 -30.440   9.258  0.00  0.00    +0.292 HD
ENDBRANCH  17  22
BRANCH  12  24
ATOM     24  C   LIG    1       27.377 -28.285  12.574  0.00  0.00    +0.088 C 
BRANCH  24  25
ATOM     25  C   LIG    1       26.643 -27.002  12.324  0.00  0.00    +0.003 C 
ATOM     26  C   LIG    1       25.588 -26.513  13.287  0.00  0.00    +0.005 C 
ATOM     27  C   LIG    1       26.911 -25.807  13.205  0.00  0.00    +0.005 C 
ENDBRANCH  24  25
ENDBRANCH  12  24
TORSDOF 4
ENDMDL
MODEL 6
REMARK VINA RESULT:      -5.5      8.385     10.212
REMARK  Name = *****
REMARK                            x       y       z     vdW  Elec       q    Type
REMARK                         _______ _______ _______ _____ _____    ______ ____
ROOT
ATOM      1  C   LIG    1       21.947 -27.255  12.943  0.00  0.00    +0.011 C 
ATOM      2  C   LIG    1       23.176 -27.553  13.407  0.00  0.00    -0.036 C 
ATOM      3  C   LIG    1       23.664 -28.995  13.617  0.00  0.00    +0.213 C 
ATOM      4  O   LIG    1       22.954 -29.904  12.696  0.00  0.00    -0.480 OA
ATOM      5  C   LIG    1       23.738 -29.887  11.563  0.00  0.00    +0.167 A 
ATOM      6  C   LIG    1       25.012 -29.434  11.827  0.00  0.00    +0.014 A 
ATOM      7  C   LIG    1       25.928 -29.074  10.805  0.00  0.00    -0.038 A 
ATOM      8  C   LIG    1       25.541 -29.321   9.491  0.00  0.00    +0.008 A 
ATOM      9  C   LIG    1       24.269 -29.880   9.229  0.00  0.00    +0.049 A 
ATOM     10  C   LIG    1       27.280 -28.430  11.211  0.00  0.00    +0.057 C 
ATOM     11  C   LIG    1       27.358 -28.661  12.740  0.00  0.00    +0.093 C 
ATOM     12  N   LIG    1       28.207 -29.253  13.797  0.00  0.00    -0.296 NA
ATOM     13  C   LIG    1       27.393 -30.418  14.372  0.00  0.00    +0.086 C 
ATOM     14  C   LIG    1       25.792 -30.420  14.140  0.00  0.00    +0.034 C 
ATOM     15  C   LIG    1       26.107 -28.041  13.488  0.00  0.00    +0.096 C 
ATOM     16  C   LIG    1       25.520 -26.705  13.016  0.00  0.00    +0.042 C 
ATOM     17  C   LIG    1       23.360 -30.151  10.266  0.00  0.00    +0.159 A 
ATOM     18  C   LIG    1       25.162 -29.210  13.331  0.00  0.00    +0.071 C 
ATOM     19  C   LIG    1       24.171 -26.455  13.710  0.00  0.00    +0.037 C 
ENDROOT
BRANCH  15  20
ATOM     20  O   LIG    1       26.406 -27.819  14.889  0.00  0.00    -0.386 OA
ATOM     21  H   LIG    1       25.917 -28.530  15.360  0.00  0.00    +0.210 HD
ENDBRANCH  15  20
BRANCH  17  22
ATOM     22  O   LIG    1       22.111 -30.626  10.006  0.00  0.00    -0.503 OA
ATOM     23  H   LIG    1       22.143 -31.595   9.978  0.00  0.00    +0.292 HD
ENDBRANCH  17  22
BRANCH  12  24
ATOM     24  C   LIG    1       29.509 -29.678  13.273  0.00  0.00    +0.088 C 
BRANCH  24  25
ATOM     25  C   LIG    1       30.538 -29.694  14.364  0.00  0.00    +0.003 C 
ATOM     26  C   LIG    1       31.838 -28.940  14.214  0.00  0.00    +0.005 C 
ATOM     27  C   LIG    1       30.790 -28.442  15.168  0.00  0.00    +0.005 C 
ENDBRANCH  24  25
ENDBRANCH  12  24
TORSDOF 4
ENDMDL
MODEL 7
REMARK VINA RESULT:      -5.5      7.535     10.579
REMARK  Name = *****
REMARK                            x       y       z     vdW  Elec       q    Type
REMARK                         _______ _______ _______ _____ _____    ______ ____
ROOT
ATOM      1  C   LIG    1       20.564 -31.428  15.463  0.00  0.00    +0.011 C 
ATOM      2  C   LIG    1       21.347 -31.587  14.377  0.00  0.00    -0.036 C 
ATOM      3  C   LIG    1       20.892 -31.213  12.958  0.00  0.00    +0.213 C 
ATOM      4  O   LIG    1       19.883 -30.138  13.021  0.00  0.00    -0.480 OA
ATOM      5  C   LIG    1       20.640 -28.987  12.998  0.00  0.00    +0.167 A 
ATOM      6  C   LIG    1       21.910 -29.217  12.515  0.00  0.00    +0.014 A 
ATOM      7  C   LIG    1       22.960 -28.270  12.631  0.00  0.00    -0.038 A 
ATOM      8  C   LIG    1       22.632 -27.019  13.142  0.00  0.00    +0.008 A 
ATOM      9  C   LIG    1       21.303 -26.753  13.545  0.00  0.00    +0.049 A 
ATOM     10  C   LIG    1       24.389 -28.689  12.193  0.00  0.00    +0.057 C 
ATOM     11  C   LIG    1       24.171 -30.015  11.425  0.00  0.00    +0.093 C 
ATOM     12  N   LIG    1       24.417 -30.673  10.124  0.00  0.00    -0.296 NA
ATOM     13  C   LIG    1       23.029 -30.911   9.517  0.00  0.00    +0.086 C 
ATOM     14  C   LIG    1       21.751 -30.912  10.507  0.00  0.00    +0.034 C 
ATOM     15  C   LIG    1       23.439 -31.095  12.324  0.00  0.00    +0.096 C 
ATOM     16  C   LIG    1       23.776 -31.202  13.816  0.00  0.00    +0.042 C 
ATOM     17  C   LIG    1       20.308 -27.744  13.486  0.00  0.00    +0.159 A 
ATOM     18  C   LIG    1       22.014 -30.670  12.052  0.00  0.00    +0.071 C 
ATOM     19  C   LIG    1       22.756 -32.116  14.515  0.00  0.00    +0.037 C 
ENDROOT
BRANCH  15  20
ATOM     20  O   LIG    1       23.671 -32.430  11.812  0.00  0.00    -0.386 OA
ATOM     21  H   LIG    1       24.382 -32.793  12.386  0.00  0.00    +0.210 HD
ENDBRANCH  15  20
BRANCH  17  22
ATOM     22  O   LIG    1       19.045 -27.506  13.937  0.00  0.00    -0.503 OA
ATOM     23  H   LIG    1       18.735 -28.283  14.428  0.00  0.00    +0.292 HD
ENDBRANCH  17  22
BRANCH  12  24
ATOM     24  C   LIG    1       25.280 -29.863   9.260  0.00  0.00    +0.088 C 
BRANCH  24  25
ATOM     25  C   LIG    1       24.562 -29.487   7.998  0.00  0.00    +0.003 C 
ATOM     26  C   LIG    1       25.146 -28.469   7.048  0.00  0.00    +0.005 C 
ATOM     27  C   LIG    1       25.122 -29.921   6.666  0.00  0.00    +0.005 C 
ENDBRANCH  24  25
ENDBRANCH  12  24
TORSDOF 4
ENDMDL
MODEL 8
REMARK VINA RESULT:      -5.3      6.871      9.660
REMARK  Name = *****
REMARK                            x       y       z     vdW  Elec       q    Type
REMARK                         _______ _______ _______ _____ _____    ______ ____
ROOT
ATOM      1  C   LIG    1       24.344 -30.624  15.499  0.00  0.00    +0.011 C 
ATOM      2  C   LIG    1       24.279 -30.950  14.193  0.00  0.00    -0.036 C 
ATOM      3  C   LIG    1       23.406 -30.189  13.183  0.00  0.00    +0.213 C 
ATOM      4  O   LIG    1       23.218 -28.795  13.633  0.00  0.00    -0.480 OA
ATOM      5  C   LIG    1       24.294 -28.135  13.082  0.00  0.00    +0.167 A 
ATOM      6  C   LIG    1       24.854 -28.843  12.041  0.00  0.00    +0.014 A 
ATOM      7  C   LIG    1       26.116 -28.518  11.479  0.00  0.00    -0.038 A 
ATOM      8  C   LIG    1       26.730 -27.354  11.933  0.00  0.00    +0.008 A 
ATOM      9  C   LIG    1       26.104 -26.574  12.932  0.00  0.00    +0.049 A 
ATOM     10  C   LIG    1       26.725 -29.471  10.417  0.00  0.00    +0.057 C 
ATOM     11  C   LIG    1       25.551 -30.408  10.040  0.00  0.00    +0.093 C 
ATOM     12  N   LIG    1       24.755 -30.889   8.890  0.00  0.00    -0.296 NA
ATOM     13  C   LIG    1       23.335 -30.361   9.126  0.00  0.00    +0.086 C 
ATOM     14  C   LIG    1       22.918 -29.932  10.628  0.00  0.00    +0.034 C 
ATOM     15  C   LIG    1       24.972 -31.157  11.310  0.00  0.00    +0.096 C 
ATOM     16  C   LIG    1       25.924 -31.642  12.410  0.00  0.00    +0.042 C 
ATOM     17  C   LIG    1       24.890 -26.973  13.518  0.00  0.00    +0.159 A 
ATOM     18  C   LIG    1       24.008 -30.086  11.769  0.00  0.00    +0.071 C 
ATOM     19  C   LIG    1       25.115 -32.083  13.641  0.00  0.00    +0.037 C 
ENDROOT
BRANCH  15  20
ATOM     20  O   LIG    1       24.250 -32.349  10.916  0.00  0.00    -0.386 OA
ATOM     21  H   LIG    1       24.688 -32.640  10.086  0.00  0.00    +0.210 HD
ENDBRANCH  15  20
BRANCH  17  22
ATOM     22  O   LIG    1       24.323 -26.256  14.527  0.00  0.00    -0.503 OA
ATOM     23  H   LIG    1       24.618 -25.335  14.463  0.00  0.00    +0.292 HD
ENDBRANCH  17  22
BRANCH  12  24
ATOM     24  C   LIG    1       25.320 -30.441   7.613  0.00  0.00    +0.088 C 
BRANCH  24  25
ATOM     25  C   LIG    1       24.601 -29.222   7.117  0.00  0.00    +0.003 C 
ATOM     26  C   LIG    1       25.338 -27.921   6.904  0.00  0.00    +0.005 C 
ATOM     27  C   LIG    1       24.869 -28.718   5.720  0.00  0.00    +0.005 C 
ENDBRANCH  24  25
ENDBRANCH  12  24
TORSDOF 4
ENDMDL
MODEL 9
REMARK VINA RESULT:      -5.3      8.928     11.115
REMARK  Name = *****
REMARK                            x       y       z     vdW  Elec       q    Type
REMARK                         _______ _______ _______ _____ _____    ______ ____
ROOT
ATOM      1  C   LIG    1       24.656 -30.473  10.841  0.00  0.00    +0.011 C 
ATOM      2  C   LIG    1       23.486 -30.505  11.508  0.00  0.00    -0.036 C 
ATOM      3  C   LIG    1       23.399 -30.541  13.042  0.00  0.00    +0.213 C 
ATOM      4  O   LIG    1       24.595 -29.903  13.627  0.00  0.00    -0.480 OA
ATOM      5  C   LIG    1       24.238 -28.575  13.715  0.00  0.00    +0.167 A 
ATOM      6  C   LIG    1       22.872 -28.406  13.657  0.00  0.00    +0.014 A 
ATOM      7  C   LIG    1       22.261 -27.140  13.464  0.00  0.00    -0.038 A 
ATOM      8  C   LIG    1       23.096 -26.026  13.466  0.00  0.00    +0.008 A 
ATOM      9  C   LIG    1       24.490 -26.196  13.626  0.00  0.00    +0.049 A 
ATOM     10  C   LIG    1       20.724 -27.080  13.259  0.00  0.00    +0.057 C 
ATOM     11  C   LIG    1       20.240 -28.497  13.650  0.00  0.00    +0.093 C 
ATOM     12  N   LIG    1       19.313 -29.214  14.553  0.00  0.00    -0.296 NA
ATOM     13  C   LIG    1       20.207 -30.023  15.500  0.00  0.00    +0.086 C 
ATOM     14  C   LIG    1       21.726 -30.331  15.040  0.00  0.00    +0.034 C 
ATOM     15  C   LIG    1       20.954 -29.616  12.787  0.00  0.00    +0.096 C 
ATOM     16  C   LIG    1       21.245 -29.366  11.302  0.00  0.00    +0.042 C 
ATOM     17  C   LIG    1       25.064 -27.475  13.737  0.00  0.00    +0.159 A 
ATOM     18  C   LIG    1       22.198 -29.777  13.631  0.00  0.00    +0.071 C 
ATOM     19  C   LIG    1       22.172 -30.467  10.761  0.00  0.00    +0.037 C 
ENDROOT
BRANCH  15  20
ATOM     20  O   LIG    1       20.180 -30.841  12.794  0.00  0.00    -0.386 OA
ATOM     21  H   LIG    1       19.369 -30.623  12.283  0.00  0.00    +0.210 HD
ENDBRANCH  15  20
BRANCH  17  22
ATOM     22  O   LIG    1       26.413 -27.639  13.824  0.00  0.00    -0.503 OA
ATOM     23  H   LIG    1       26.805 -26.833  14.194  0.00  0.00    +0.292 HD
ENDBRANCH  17  22
BRANCH  12  24
ATOM     24  C   LIG    1       18.425 -28.290  15.265  0.00  0.00    +0.088 C 
BRANCH  24  25
ATOM     25  C   LIG    1       17.298 -27.850  14.379  0.00  0.00    +0.003 C 
ATOM     26  C   LIG    1       15.974 -27.422  14.964  0.00  0.00    +0.005 C 
ATOM     27  C   LIG    1       16.890 -26.398  14.359  0.00  0.00    +0.005 C 
ENDBRANCH  24  25
ENDBRANCH  12  24
TORSDOF 4
ENDMDL
