MODEL 1
REMARK VINA RESULT:      -7.4      0.000      0.000
REMARK  Name = *****
REMARK                            x       y       z     vdW  Elec       q    Type
REMARK                         _______ _______ _______ _____ _____    ______ ____
ROOT
ATOM      1  C   LIG    1       25.410 -20.126   4.392  0.00  0.00    +0.195 C 
ATOM      2  N   LIG    1       24.171 -20.663   4.682  0.00  0.00    -0.293 N 
ATOM      3  H   LIG    1       23.455 -20.701   3.974  0.00  0.00    +0.172 HD
ATOM      4  C   LIG    1       23.789 -21.115   5.934  0.00  0.00    +0.280 C 
ATOM      5  O   LIG    1       22.664 -21.601   6.133  0.00  0.00    -0.265 OA
ATOM      6  C   LIG    1       24.824 -20.953   6.926  0.00  0.00    +0.172 A 
ATOM      7  N   LIG    1       24.822 -21.181   8.279  0.00  0.00    -0.229 NA
ATOM      8  C   LIG    1       26.028 -20.828   8.675  0.00  0.00    +0.203 A 
ATOM      9  N   LIG    1       26.819 -20.438   7.626  0.00  0.00    -0.291 N 
ATOM     10  C   LIG    1       26.036 -20.449   6.501  0.00  0.00    +0.171 A 
ATOM     11  N   LIG    1       26.379 -20.028   5.262  0.00  0.00    -0.196 NA
ENDROOT
BRANCH   1  12
ATOM     12  N   LIG    1       25.588 -19.683   3.123  0.00  0.00    -0.329 N 
ATOM     13  H   LIG    1       26.090 -20.281   2.480  0.00  0.00    +0.145 HD
ATOM     14  H   LIG    1       25.882 -18.712   3.084  0.00  0.00    +0.145 HD
ENDBRANCH   1  12
BRANCH   9  15
ATOM     15  C   LIG    1       28.233 -20.099   7.661  0.00  0.00    +0.287 C 
BRANCH  15  16
ATOM     16  O   LIG    1       28.965 -21.091   8.392  0.00  0.00    -0.351 OA
BRANCH  16  17
ATOM     17  C   LIG    1       30.401 -20.987   8.223  0.00  0.00    +0.171 C 
BRANCH  17  18
ATOM     18  C   LIG    1       31.045 -21.978   9.214  0.00  0.00    +0.189 C 
BRANCH  18  19
ATOM     19  O   LIG    1       32.211 -22.581   8.652  0.00  0.00    -0.392 OA
ATOM     20  H   LIG    1       32.885 -22.566   9.359  0.00  0.00    +0.209 HD
ENDBRANCH  18  19
ENDBRANCH  17  18
BRANCH  17  21
ATOM     21  C   LIG    1       30.954 -19.574   8.504  0.00  0.00    +0.189 C 
BRANCH  21  22
ATOM     22  O   LIG    1       32.136 -19.617   9.303  0.00  0.00    -0.392 OA
ATOM     23  H   LIG    1       31.866 -19.413  10.217  0.00  0.00    +0.209 HD
ENDBRANCH  21  22
ENDBRANCH  17  21
ENDBRANCH  16  17
ENDBRANCH  15  16
ENDBRANCH   9  15
TORSDOF 8
ENDMDL
MODEL 2
REMARK VINA RESULT:      -7.0      2.925      6.368
REMARK  Name = *****
REMARK                            x       y       z     vdW  Elec       q    Type
REMARK                         _______ _______ _______ _____ _____    ______ ____
ROOT
ATOM      1  C   LIG    1       30.457 -20.922   8.271  0.00  0.00    +0.195 C 
ATOM      2  N   LIG    1       30.825 -19.917   7.398  0.00  0.00    -0.293 N 
ATOM      3  H   LIG    1       31.734 -19.488   7.471  0.00  0.00    +0.172 HD
ATOM      4  C   LIG    1       29.994 -19.381   6.429  0.00  0.00    +0.280 C 
ATOM      5  O   LIG    1       30.384 -18.486   5.662  0.00  0.00    -0.265 OA
ATOM      6  C   LIG    1       28.678 -19.974   6.431  0.00  0.00    +0.172 A 
ATOM      7  N   LIG    1       27.551 -19.671   5.710  0.00  0.00    -0.229 NA
ATOM      8  C   LIG    1       26.642 -20.518   6.150  0.00  0.00    +0.203 A 
ATOM      9  N   LIG    1       27.155 -21.386   7.079  0.00  0.00    -0.291 N 
ATOM     10  C   LIG    1       28.449 -21.003   7.320  0.00  0.00    +0.171 A 
ATOM     11  N   LIG    1       29.292 -21.512   8.247  0.00  0.00    -0.196 NA
ENDROOT
BRANCH   1  12
ATOM     12  N   LIG    1       31.384 -21.284   9.192  0.00  0.00    -0.329 N 
ATOM     13  H   LIG    1       31.095 -21.324  10.161  0.00  0.00    +0.145 HD
ATOM     14  H   LIG    1       32.276 -20.818   9.056  0.00  0.00    +0.145 HD
ENDBRANCH   1  12
BRANCH   9  15
ATOM     15  C   LIG    1       26.488 -22.524   7.691  0.00  0.00    +0.287 C 
BRANCH  15  16
ATOM     16  O   LIG    1       26.413 -23.615   6.764  0.00  0.00    -0.351 OA
BRANCH  16  17
ATOM     17  C   LIG    1       25.155 -24.333   6.820  0.00  0.00    +0.171 C 
BRANCH  17  18
ATOM     18  C   LIG    1       25.098 -25.243   5.577  0.00  0.00    +0.189 C 
BRANCH  18  19
ATOM     19  O   LIG    1       24.759 -24.494   4.409  0.00  0.00    -0.392 OA
ATOM     20  H   LIG    1       24.171 -23.776   4.715  0.00  0.00    +0.209 HD
ENDBRANCH  18  19
ENDBRANCH  17  18
BRANCH  17  21
ATOM     21  C   LIG    1       23.918 -23.409   6.817  0.00  0.00    +0.189 C 
BRANCH  21  22
ATOM     22  O   LIG    1       22.721 -24.131   6.530  0.00  0.00    -0.392 OA
ATOM     23  H   LIG    1       21.998 -23.478   6.503  0.00  0.00    +0.209 HD
ENDBRANCH  21  22
ENDBRANCH  17  21
ENDBRANCH  16  17
ENDBRANCH  15  16
ENDBRANCH   9  15
TORSDOF 8
ENDMDL
MODEL 3
REMARK VINA RESULT:      -7.0      1.530      2.412
REMARK  Name = *****
REMARK                            x       y       z     vdW  Elec       q    Type
REMARK                         _______ _______ _______ _____ _____    ______ ____
ROOT
ATOM      1  C   LIG    1       24.153 -22.811   6.249  0.00  0.00    +0.195 C 
ATOM      2  N   LIG    1       23.638 -21.984   5.270  0.00  0.00    -0.293 N 
ATOM      3  H   LIG    1       22.749 -22.193   4.846  0.00  0.00    +0.172 HD
ATOM      4  C   LIG    1       24.296 -20.881   4.754  0.00  0.00    +0.280 C 
ATOM      5  O   LIG    1       23.778 -20.165   3.883  0.00  0.00    -0.265 OA
ATOM      6  C   LIG    1       25.601 -20.685   5.338  0.00  0.00    +0.172 A 
ATOM      7  N   LIG    1       26.594 -19.784   5.047  0.00  0.00    -0.229 NA
ATOM      8  C   LIG    1       27.571 -20.092   5.876  0.00  0.00    +0.203 A 
ATOM      9  N   LIG    1       27.224 -21.113   6.722  0.00  0.00    -0.291 N 
ATOM     10  C   LIG    1       25.982 -21.551   6.342  0.00  0.00    +0.171 A 
ATOM     11  N   LIG    1       25.305 -22.614   6.832  0.00  0.00    -0.196 NA
ENDROOT
BRANCH   1  12
ATOM     12  N   LIG    1       23.391 -23.879   6.593  0.00  0.00    -0.329 N 
ATOM     13  H   LIG    1       23.259 -24.067   7.578  0.00  0.00    +0.145 HD
ATOM     14  H   LIG    1       23.609 -24.708   6.049  0.00  0.00    +0.145 HD
ENDBRANCH   1  12
BRANCH   9  15
ATOM     15  C   LIG    1       27.993 -21.637   7.840  0.00  0.00    +0.287 C 
BRANCH  15  16
ATOM     16  O   LIG    1       28.848 -20.620   8.377  0.00  0.00    -0.351 OA
BRANCH  16  17
ATOM     17  C   LIG    1       30.253 -20.837   8.093  0.00  0.00    +0.171 C 
BRANCH  17  18
ATOM     18  C   LIG    1       30.775 -21.842   9.138  0.00  0.00    +0.189 C 
BRANCH  18  19
ATOM     19  O   LIG    1       32.032 -22.390   8.739  0.00  0.00    -0.392 OA
ATOM     20  H   LIG    1       32.688 -22.039   9.373  0.00  0.00    +0.209 HD
ENDBRANCH  18  19
ENDBRANCH  17  18
BRANCH  17  21
ATOM     21  C   LIG    1       31.102 -19.551   8.171  0.00  0.00    +0.189 C 
BRANCH  21  22
ATOM     22  O   LIG    1       32.069 -19.619   9.219  0.00  0.00    -0.392 OA
ATOM     23  H   LIG    1       31.578 -19.785  10.045  0.00  0.00    +0.209 HD
ENDBRANCH  21  22
ENDBRANCH  17  21
ENDBRANCH  16  17
ENDBRANCH  15  16
ENDBRANCH   9  15
TORSDOF 8
ENDMDL
MODEL 4
REMARK VINA RESULT:      -6.9      2.695      3.335
REMARK  Name = *****
REMARK                            x       y       z     vdW  Elec       q    Type
REMARK                         _______ _______ _______ _____ _____    ______ ____
ROOT
ATOM      1  C   LIG    1       25.442 -24.844   6.110  0.00  0.00    +0.195 C 
ATOM      2  N   LIG    1       24.068 -24.751   6.222  0.00  0.00    -0.293 N 
ATOM      3  H   LIG    1       23.480 -25.494   5.880  0.00  0.00    +0.172 HD
ATOM      4  C   LIG    1       23.399 -23.649   6.725  0.00  0.00    +0.280 C 
ATOM      5  O   LIG    1       22.161 -23.627   6.813  0.00  0.00    -0.265 OA
ATOM      6  C   LIG    1       24.290 -22.583   7.115  0.00  0.00    +0.172 A 
ATOM      7  N   LIG    1       24.035 -21.312   7.564  0.00  0.00    -0.229 NA
ATOM      8  C   LIG    1       25.228 -20.777   7.732  0.00  0.00    +0.203 A 
ATOM      9  N   LIG    1       26.233 -21.670   7.465  0.00  0.00    -0.291 N 
ATOM     10  C   LIG    1       25.645 -22.817   7.001  0.00  0.00    +0.171 A 
ATOM     11  N   LIG    1       26.267 -23.915   6.514  0.00  0.00    -0.196 NA
ENDROOT
BRANCH   1  12
ATOM     12  N   LIG    1       25.921 -25.978   5.540  0.00  0.00    -0.329 N 
ATOM     13  H   LIG    1       26.679 -25.888   4.877  0.00  0.00    +0.145 HD
ATOM     14  H   LIG    1       25.184 -26.602   5.228  0.00  0.00    +0.145 HD
ENDBRANCH   1  12
BRANCH   9  15
ATOM     15  C   LIG    1       27.662 -21.477   7.654  0.00  0.00    +0.287 C 
BRANCH  15  16
ATOM     16  O   LIG    1       27.922 -20.171   8.185  0.00  0.00    -0.351 OA
BRANCH  16  17
ATOM     17  C   LIG    1       29.154 -19.584   7.695  0.00  0.00    +0.171 C 
BRANCH  17  18
ATOM     18  C   LIG    1       28.990 -19.394   6.174  0.00  0.00    +0.189 C 
BRANCH  18  19
ATOM     19  O   LIG    1       29.704 -18.244   5.721  0.00  0.00    -0.392 OA
ATOM     20  H   LIG    1       29.055 -17.514   5.713  0.00  0.00    +0.209 HD
ENDBRANCH  18  19
ENDBRANCH  17  18
BRANCH  17  21
ATOM     21  C   LIG    1       30.398 -20.460   7.955  0.00  0.00    +0.189 C 
BRANCH  21  22
ATOM     22  O   LIG    1       31.530 -20.001   7.216  0.00  0.00    -0.392 OA
ATOM     23  H   LIG    1       32.131 -19.576   7.856  0.00  0.00    +0.209 HD
ENDBRANCH  21  22
ENDBRANCH  17  21
ENDBRANCH  16  17
ENDBRANCH  15  16
ENDBRANCH   9  15
TORSDOF 8
ENDMDL
MODEL 5
REMARK VINA RESULT:      -6.8      1.856      2.355
REMARK  Name = *****
REMARK                            x       y       z     vdW  Elec       q    Type
REMARK                         _______ _______ _______ _____ _____    ______ ____
ROOT
ATOM      1  C   LIG    1       23.187 -20.817   5.558  0.00  0.00    +0.195 C 
ATOM      2  N   LIG    1       22.646 -22.042   5.896  0.00  0.00    -0.293 N 
ATOM      3  H   LIG    1       21.667 -22.225   5.742  0.00  0.00    +0.172 HD
ATOM      4  C   LIG    1       23.349 -23.062   6.513  0.00  0.00    +0.280 C 
ATOM      5  O   LIG    1       22.813 -24.149   6.782  0.00  0.00    -0.265 OA
ATOM      6  C   LIG    1       24.721 -22.709   6.788  0.00  0.00    +0.172 A 
ATOM      7  N   LIG    1       25.710 -23.385   7.457  0.00  0.00    -0.229 NA
ATOM      8  C   LIG    1       26.745 -22.569   7.426  0.00  0.00    +0.203 A 
ATOM      9  N   LIG    1       26.477 -21.427   6.717  0.00  0.00    -0.291 N 
ATOM     10  C   LIG    1       25.155 -21.473   6.357  0.00  0.00    +0.171 A 
ATOM     11  N   LIG    1       24.441 -20.502   5.743  0.00  0.00    -0.196 NA
ENDROOT
BRANCH   1  12
ATOM     12  N   LIG    1       22.333 -19.916   5.010  0.00  0.00    -0.329 N 
ATOM     13  H   LIG    1       21.404 -19.847   5.403  0.00  0.00    +0.145 HD
ATOM     14  H   LIG    1       22.342 -19.934   3.996  0.00  0.00    +0.145 HD
ENDBRANCH   1  12
BRANCH   9  15
ATOM     15  C   LIG    1       27.405 -20.362   6.370  0.00  0.00    +0.287 C 
BRANCH  15  16
ATOM     16  O   LIG    1       28.757 -20.829   6.465  0.00  0.00    -0.351 OA
BRANCH  16  17
ATOM     17  C   LIG    1       29.532 -20.144   7.480  0.00  0.00    +0.171 C 
BRANCH  17  18
ATOM     18  C   LIG    1       30.511 -19.207   6.746  0.00  0.00    +0.189 C 
BRANCH  18  19
ATOM     19  O   LIG    1       31.865 -19.515   7.080  0.00  0.00    -0.392 OA
ATOM     20  H   LIG    1       32.311 -18.653   7.204  0.00  0.00    +0.209 HD
ENDBRANCH  18  19
ENDBRANCH  17  18
BRANCH  17  21
ATOM     21  C   LIG    1       30.342 -21.099   8.384  0.00  0.00    +0.189 C 
BRANCH  21  22
ATOM     22  O   LIG    1       30.867 -20.426   9.528  0.00  0.00    -0.392 OA
ATOM     23  H   LIG    1       31.240 -21.111  10.111  0.00  0.00    +0.209 HD
ENDBRANCH  21  22
ENDBRANCH  17  21
ENDBRANCH  16  17
ENDBRANCH  15  16
ENDBRANCH   9  15
TORSDOF 8
ENDMDL
MODEL 6
REMARK VINA RESULT:      -6.7      2.552      4.334
REMARK  Name = *****
REMARK                            x       y       z     vdW  Elec       q    Type
REMARK                         _______ _______ _______ _____ _____    ______ ____
ROOT
ATOM      1  C   LIG    1       26.965 -21.328   7.936  0.00  0.00    +0.195 C 
ATOM      2  N   LIG    1       26.420 -20.884   6.747  0.00  0.00    -0.293 N 
ATOM      3  H   LIG    1       25.499 -21.181   6.469  0.00  0.00    +0.172 HD
ATOM      4  C   LIG    1       27.085 -20.083   5.835  0.00  0.00    +0.280 C 
ATOM      5  O   LIG    1       26.540 -19.703   4.787  0.00  0.00    -0.265 OA
ATOM      6  C   LIG    1       28.431 -19.765   6.247  0.00  0.00    +0.172 A 
ATOM      7  N   LIG    1       29.437 -19.090   5.603  0.00  0.00    -0.229 NA
ATOM      8  C   LIG    1       30.452 -19.132   6.442  0.00  0.00    +0.203 A 
ATOM      9  N   LIG    1       30.121 -19.755   7.617  0.00  0.00    -0.291 N 
ATOM     10  C   LIG    1       28.842 -20.228   7.480  0.00  0.00    +0.171 A 
ATOM     11  N   LIG    1       28.158 -21.001   8.355  0.00  0.00    -0.196 NA
ENDROOT
BRANCH   1  12
ATOM     12  N   LIG    1       26.186 -22.153   8.680  0.00  0.00    -0.329 N 
ATOM     13  H   LIG    1       26.623 -22.964   9.098  0.00  0.00    +0.145 HD
ATOM     14  H   LIG    1       25.296 -22.358   8.237  0.00  0.00    +0.145 HD
ENDBRANCH   1  12
BRANCH   9  15
ATOM     15  C   LIG    1       30.939 -19.883   8.813  0.00  0.00    +0.287 C 
BRANCH  15  16
ATOM     16  O   LIG    1       31.933 -18.850   8.849  0.00  0.00    -0.351 OA
BRANCH  16  17
ATOM     17  C   LIG    1       31.809 -17.970   9.994  0.00  0.00    +0.171 C 
BRANCH  17  18
ATOM     18  C   LIG    1       30.363 -17.437  10.000  0.00  0.00    +0.189 C 
BRANCH  18  19
ATOM     19  O   LIG    1       30.211 -16.375  10.942  0.00  0.00    -0.392 OA
ATOM     20  H   LIG    1       31.019 -16.389  11.491  0.00  0.00    +0.209 HD
ENDBRANCH  18  19
ENDBRANCH  17  18
BRANCH  17  21
ATOM     21  C   LIG    1       32.780 -16.772   9.957  0.00  0.00    +0.189 C 
BRANCH  21  22
ATOM     22  O   LIG    1       32.583 -15.968   8.794  0.00  0.00    -0.392 OA
ATOM     23  H   LIG    1       31.664 -15.645   8.827  0.00  0.00    +0.209 HD
ENDBRANCH  21  22
ENDBRANCH  17  21
ENDBRANCH  16  17
ENDBRANCH  15  16
ENDBRANCH   9  15
TORSDOF 8
ENDMDL
MODEL 7
REMARK VINA RESULT:      -6.6      2.739      6.567
REMARK  Name = *****
REMARK                            x       y       z     vdW  Elec       q    Type
REMARK                         _______ _______ _______ _____ _____    ______ ____
ROOT
ATOM      1  C   LIG    1       30.849 -20.976   8.955  0.00  0.00    +0.195 C 
ATOM      2  N   LIG    1       31.708 -19.895   8.927  0.00  0.00    -0.293 N 
ATOM      3  H   LIG    1       32.454 -19.822   9.601  0.00  0.00    +0.172 HD
ATOM      4  C   LIG    1       31.589 -18.824   8.058  0.00  0.00    +0.280 C 
ATOM      5  O   LIG    1       32.400 -17.885   8.071  0.00  0.00    -0.265 OA
ATOM      6  C   LIG    1       30.451 -18.942   7.179  0.00  0.00    +0.172 A 
ATOM      7  N   LIG    1       29.932 -18.073   6.252  0.00  0.00    -0.229 NA
ATOM      8  C   LIG    1       28.873 -18.696   5.775  0.00  0.00    +0.203 A 
ATOM      9  N   LIG    1       28.726 -19.947   6.314  0.00  0.00    -0.291 N 
ATOM     10  C   LIG    1       29.696 -20.094   7.271  0.00  0.00    +0.171 A 
ATOM     11  N   LIG    1       29.850 -21.129   8.127  0.00  0.00    -0.196 NA
ENDROOT
BRANCH   1  12
ATOM     12  N   LIG    1       31.086 -21.905   9.913  0.00  0.00    -0.329 N 
ATOM     13  H   LIG    1       31.024 -21.613  10.879  0.00  0.00    +0.145 HD
ATOM     14  H   LIG    1       31.904 -22.473   9.715  0.00  0.00    +0.145 HD
ENDBRANCH   1  12
BRANCH   9  15
ATOM     15  C   LIG    1       27.752 -20.962   5.944  0.00  0.00    +0.287 C 
BRANCH  15  16
ATOM     16  O   LIG    1       26.422 -20.437   6.045  0.00  0.00    -0.351 OA
BRANCH  16  17
ATOM     17  C   LIG    1       25.640 -21.047   7.101  0.00  0.00    +0.171 C 
BRANCH  17  18
ATOM     18  C   LIG    1       24.160 -20.733   6.807  0.00  0.00    +0.189 C 
BRANCH  18  19
ATOM     19  O   LIG    1       23.306 -21.310   7.795  0.00  0.00    -0.392 OA
ATOM     20  H   LIG    1       22.614 -21.792   7.300  0.00  0.00    +0.209 HD
ENDBRANCH  18  19
ENDBRANCH  17  18
BRANCH  17  21
ATOM     21  C   LIG    1       25.989 -20.519   8.509  0.00  0.00    +0.189 C 
BRANCH  21  22
ATOM     22  O   LIG    1       25.668 -21.469   9.524  0.00  0.00    -0.392 OA
ATOM     23  H   LIG    1       25.220 -22.214   9.082  0.00  0.00    +0.209 HD
ENDBRANCH  21  22
ENDBRANCH  17  21
ENDBRANCH  16  17
ENDBRANCH  15  16
ENDBRANCH   9  15
TORSDOF 8
ENDMDL
MODEL 8
REMARK VINA RESULT:      -6.4      2.546      6.859
REMARK  Name = *****
REMARK                            x       y       z     vdW  Elec       q    Type
REMARK                         _______ _______ _______ _____ _____    ______ ____
ROOT
ATOM      1  C   LIG    1       30.623 -21.456   8.878  0.00  0.00    +0.195 C 
ATOM      2  N   LIG    1       31.483 -20.553   8.285  0.00  0.00    -0.293 N 
ATOM      3  H   LIG    1       32.412 -20.419   8.653  0.00  0.00    +0.172 HD
ATOM      4  C   LIG    1       31.144 -19.733   7.223  0.00  0.00    +0.280 C 
ATOM      5  O   LIG    1       31.964 -18.948   6.721  0.00  0.00    -0.265 OA
ATOM      6  C   LIG    1       29.775 -19.906   6.798  0.00  0.00    +0.172 A 
ATOM      7  N   LIG    1       29.029 -19.236   5.862  0.00  0.00    -0.229 NA
ATOM      8  C   LIG    1       27.840 -19.800   5.924  0.00  0.00    +0.203 A 
ATOM      9  N   LIG    1       27.810 -20.838   6.818  0.00  0.00    -0.291 N 
ATOM     10  C   LIG    1       29.031 -20.875   7.439  0.00  0.00    +0.171 A 
ATOM     11  N   LIG    1       29.401 -21.670   8.469  0.00  0.00    -0.196 NA
ENDROOT
BRANCH   1  12
ATOM     12  N   LIG    1       31.111 -22.135   9.946  0.00  0.00    -0.329 N 
ATOM     13  H   LIG    1       31.550 -23.030   9.775  0.00  0.00    +0.145 HD
ATOM     14  H   LIG    1       30.468 -22.144  10.732  0.00  0.00    +0.145 HD
ENDBRANCH   1  12
BRANCH   9  15
ATOM     15  C   LIG    1       26.715 -21.763   7.065  0.00  0.00    +0.287 C 
BRANCH  15  16
ATOM     16  O   LIG    1       25.456 -21.120   6.827  0.00  0.00    -0.351 OA
BRANCH  16  17
ATOM     17  C   LIG    1       24.663 -21.766   5.801  0.00  0.00    +0.171 C 
BRANCH  17  18
ATOM     18  C   LIG    1       23.183 -21.499   6.138  0.00  0.00    +0.189 C 
BRANCH  18  19
ATOM     19  O   LIG    1       22.359 -21.639   4.980  0.00  0.00    -0.392 OA
ATOM     20  H   LIG    1       21.809 -20.832   4.946  0.00  0.00    +0.209 HD
ENDBRANCH  18  19
ENDBRANCH  17  18
BRANCH  17  21
ATOM     21  C   LIG    1       24.887 -23.291   5.719  0.00  0.00    +0.189 C 
BRANCH  21  22
ATOM     22  O   LIG    1       24.675 -23.786   4.398  0.00  0.00    -0.392 OA
ATOM     23  H   LIG    1       24.354 -23.037   3.864  0.00  0.00    +0.209 HD
ENDBRANCH  21  22
ENDBRANCH  17  21
ENDBRANCH  16  17
ENDBRANCH  15  16
ENDBRANCH   9  15
TORSDOF 8
ENDMDL
MODEL 9
REMARK VINA RESULT:      -6.3      2.063      6.119
REMARK  Name = *****
REMARK                            x       y       z     vdW  Elec       q    Type
REMARK                         _______ _______ _______ _____ _____    ______ ____
ROOT
ATOM      1  C   LIG    1       28.856 -19.129   5.831  0.00  0.00    +0.195 C 
ATOM      2  N   LIG    1       29.808 -19.480   6.768  0.00  0.00    -0.293 N 
ATOM      3  H   LIG    1       30.753 -19.143   6.683  0.00  0.00    +0.172 HD
ATOM      4  C   LIG    1       29.582 -20.345   7.825  0.00  0.00    +0.280 C 
ATOM      5  O   LIG    1       30.473 -20.615   8.645  0.00  0.00    -0.265 OA
ATOM      6  C   LIG    1       28.235 -20.865   7.843  0.00  0.00    +0.172 A 
ATOM      7  N   LIG    1       27.640 -21.802   8.650  0.00  0.00    -0.229 NA
ATOM      8  C   LIG    1       26.410 -21.900   8.188  0.00  0.00    +0.203 A 
ATOM      9  N   LIG    1       26.177 -21.025   7.159  0.00  0.00    -0.291 N 
ATOM     10  C   LIG    1       27.364 -20.399   6.881  0.00  0.00    +0.171 A 
ATOM     11  N   LIG    1       27.617 -19.540   5.867  0.00  0.00    -0.196 NA
ENDROOT
BRANCH   1  12
ATOM     12  N   LIG    1       29.273 -18.313   4.831  0.00  0.00    -0.329 N 
ATOM     13  H   LIG    1       29.582 -18.743   3.970  0.00  0.00    +0.145 HD
ATOM     14  H   LIG    1       29.889 -17.575   5.158  0.00  0.00    +0.145 HD
ENDBRANCH   1  12
BRANCH   9  15
ATOM     15  C   LIG    1       24.913 -20.766   6.486  0.00  0.00    +0.287 C 
BRANCH  15  16
ATOM     16  O   LIG    1       24.824 -21.534   5.279  0.00  0.00    -0.351 OA
BRANCH  16  17
ATOM     17  C   LIG    1       23.868 -21.003   4.328  0.00  0.00    +0.171 C 
BRANCH  17  18
ATOM     18  C   LIG    1       24.523 -19.774   3.668  0.00  0.00    +0.189 C 
BRANCH  18  19
ATOM     19  O   LIG    1       25.927 -19.968   3.500  0.00  0.00    -0.392 OA
ATOM     20  H   LIG    1       26.357 -19.246   3.999  0.00  0.00    +0.209 HD
ENDBRANCH  18  19
ENDBRANCH  17  18
BRANCH  17  21
ATOM     21  C   LIG    1       22.534 -20.571   4.972  0.00  0.00    +0.189 C 
BRANCH  21  22
ATOM     22  O   LIG    1       21.527 -21.571   4.824  0.00  0.00    -0.392 OA
ATOM     23  H   LIG    1       21.771 -22.307   5.415  0.00  0.00    +0.209 HD
ENDBRANCH  21  22
ENDBRANCH  17  21
ENDBRANCH  16  17
ENDBRANCH  15  16
ENDBRANCH   9  15
TORSDOF 8
ENDMDL
