MODEL 1
REMARK VINA RESULT:      33.1      0.000      0.000
REMARK  Name = *****
REMARK                            x       y       z     vdW  Elec       q    Type
REMARK                         _______ _______ _______ _____ _____    ______ ____
ROOT
ATOM      1  C   LIG    1       24.733 -19.786   4.145  0.00  0.00    +0.165 C 
ATOM      2  C   LIG    1       24.832 -18.420   3.335  0.00  0.00    +0.012 C 
ATOM      3  C   LIG    1       24.421 -17.315   4.362  0.00  0.00    +0.004 C 
ATOM      4  C   LIG    1       25.636 -16.574   4.940  0.00  0.00    -0.000 C 
ATOM      5  C   LIG    1       26.435 -15.860   3.800  0.00  0.00    +0.035 C 
ATOM      6  C   LIG    1       26.702 -16.793   2.586  0.00  0.00    +0.120 C 
ATOM      7  C   LIG    1       25.906 -14.427   3.336  0.00  0.00    +0.013 C 
ATOM      8  C   LIG    1       25.433 -13.580   4.540  0.00  0.00    -0.056 C 
ATOM      9  C   LIG    1       25.030 -12.311   4.290  0.00  0.00    +0.051 C 
ATOM     10  C   LIG    1       23.825 -12.342   3.376  0.00  0.00    +0.179 C 
ATOM     11  C   LIG    1       23.762 -13.463   2.389  0.00  0.00    +0.047 C 
ATOM     12  O   LIG    1       22.983 -11.455   3.391  0.00  0.00    -0.288 OA
ATOM     13  C   LIG    1       24.609 -14.332   5.571  0.00  0.00    +0.032 C 
ATOM     14  C   LIG    1       27.085 -13.732   2.590  0.00  0.00    +0.020 C 
ATOM     15  C   LIG    1       24.722 -14.408   2.355  0.00  0.00    -0.012 C 
ATOM     16  C   LIG    1       25.328 -15.572   6.065  0.00  0.00    +0.008 C 
ATOM     17  C   LIG    1       23.458 -18.027   5.322  0.00  0.00    +0.039 C 
ATOM     18  C   LIG    1       23.811 -18.275   2.170  0.00  0.00    +0.015 C 
ATOM     19  C   LIG    1       26.264 -18.239   2.771  0.00  0.00    +0.042 C 
ATOM     20  C   LIG    1       23.845 -19.495   5.360  0.00  0.00    +0.162 C 
ATOM     21  O   LIG    1       24.624 -19.737   6.534  0.00  0.00    -0.344 OA
ATOM     22  C   LIG    1       25.722 -20.536   6.116  0.00  0.00    +0.255 C 
ATOM     23  O   LIG    1       25.986 -20.172   4.752  0.00  0.00    -0.334 OA
ENDROOT
BRANCH  22  24
ATOM     24  C   LIG    1       26.935 -20.306   7.061  0.00  0.00    +0.045 C 
ATOM     25  C   LIG    1       28.041 -21.381   6.948  0.00  0.00    +0.008 C 
ATOM     26  C   LIG    1       28.821 -21.309   5.634  0.00  0.00    +0.000 C 
ATOM     27  C   LIG    1       29.461 -19.940   5.436  0.00  0.00    +0.000 C 
ATOM     28  C   LIG    1       28.462 -18.808   5.643  0.00  0.00    +0.000 C 
ATOM     29  C   LIG    1       27.612 -18.931   6.910  0.00  0.00    +0.008 C 
ENDBRANCH  22  24
BRANCH   1  30
ATOM     30  C   LIG    1       24.124 -20.929   3.293  0.00  0.00    +0.205 C 
ATOM     31  O   LIG    1       24.706 -21.364   2.291  0.00  0.00    -0.291 OA
BRANCH  30  32
ATOM     32  C   LIG    1       22.807 -21.557   3.734  0.00  0.00    +0.309 C 
BRANCH  32  33
ATOM     33  O   LIG    1       22.113 -20.626   4.575  0.00  0.00    -0.457 OA
BRANCH  33  34
ATOM     34  C   LIG    1       20.845 -20.305   4.170  0.00  0.00    +0.310 C 
ATOM     35  O   LIG    1       19.864 -20.936   4.475  0.00  0.00    -0.251 OA
BRANCH  34  37
ATOM     36  C   LIG    1       19.560 -18.786   2.617  0.00  0.00    +0.019 C 
ATOM     37  C   LIG    1       20.839 -18.966   3.425  0.00  0.00    +0.092 C 
ATOM     38  C   LIG    1       21.041 -17.786   4.375  0.00  0.00    +0.019 C 
ENDBRANCH  34  37
ENDBRANCH  33  34
ENDBRANCH  32  33
ENDBRANCH  30  32
ENDBRANCH   1  30
BRANCH   6  39
ATOM     39  O   LIG    1       28.101 -16.786   2.280  0.00  0.00    -0.391 OA
ATOM     40  H   LIG    1       28.211 -16.993   1.335  0.00  0.00    +0.210 HD
ENDBRANCH   6  39
TORSDOF 7
ENDMDL
