MODEL 1
REMARK VINA RESULT:       3.9      0.000      0.000
REMARK  Name = *****
REMARK                            x       y       z     vdW  Elec       q    Type
REMARK                         _______ _______ _______ _____ _____    ______ ____
ROOT
ATOM      1  C   LIG    1       24.949 -15.411   3.910  0.00  0.00    +0.159 A 
ATOM      2  C   LIG    1       23.676 -15.003   3.501  0.00  0.00    +0.164 A 
ATOM      3  F   LIG    1       23.428 -13.741   3.118  0.00  0.00    -0.202 F 
ATOM      4  C   LIG    1       22.623 -15.900   3.499  0.00  0.00    +0.057 A 
ATOM      5  C   LIG    1       22.854 -17.207   3.920  0.00  0.00    +0.068 A 
ATOM      6  C   LIG    1       21.729 -18.152   3.931  0.00  0.00    +0.205 A 
ATOM      7  C   LIG    1       21.981 -19.531   4.364  0.00  0.00    +0.122 A 
ATOM      8  C   LIG    1       23.238 -19.829   4.726  0.00  0.00    +0.112 A 
ATOM      9  N   LIG    1       24.354 -18.983   4.732  0.00  0.00    -0.297 N 
ATOM     10  O   LIG    1       20.597 -17.804   3.604  0.00  0.00    -0.286 OA
ATOM     11  C   LIG    1       24.134 -17.607   4.324  0.00  0.00    +0.151 A 
ATOM     12  N   LIG    1       25.148 -16.700   4.307  0.00  0.00    -0.211 NA
ENDROOT
BRANCH   9  13
ATOM     13  C   LIG    1       25.645 -19.501   5.140  0.00  0.00    +0.083 A 
ATOM     14  C   LIG    1       25.782 -20.592   6.035  0.00  0.00    +0.150 A 
ATOM     15  F   LIG    1       24.702 -21.237   6.505  0.00  0.00    -0.203 F 
ATOM     16  C   LIG    1       27.023 -21.074   6.451  0.00  0.00    +0.078 A 
ATOM     17  C   LIG    1       28.175 -20.487   5.960  0.00  0.00    +0.126 A 
ATOM     18  F   LIG    1       29.371 -20.948   6.342  0.00  0.00    -0.205 F 
ATOM     19  C   LIG    1       28.100 -19.423   5.073  0.00  0.00    +0.040 A 
ATOM     20  C   LIG    1       26.848 -18.930   4.680  0.00  0.00    +0.032 A 
ENDBRANCH   9  13
BRANCH   1  24
ATOM     21  C   LIG    1       28.269 -12.549   3.964  0.00  0.00    +0.061 C 
ATOM     22  C   LIG    1       28.283 -14.013   4.312  0.00  0.00    +0.029 C 
ATOM     23  C   LIG    1       27.377 -14.998   3.639  0.00  0.00    +0.112 C 
ATOM     24  N   LIG    1       26.023 -14.538   3.966  0.00  0.00    -0.312 N 
ATOM     25  C   LIG    1       26.013 -13.467   4.963  0.00  0.00    +0.112 C 
ATOM     26  C   LIG    1       27.451 -13.074   5.114  0.00  0.00    +0.029 C 
BRANCH  21  27
ATOM     27  N   LIG    1       29.462 -11.757   4.266  0.00  0.00    -0.327 NA
ATOM     28  H   LIG    1       29.884 -11.393   3.411  0.00  0.00    +0.118 HD
ATOM     29  H   LIG    1       29.227 -10.943   4.834  0.00  0.00    +0.118 HD
ENDBRANCH  21  27
ENDBRANCH   1  24
BRANCH   7  30
ATOM     30  C   LIG    1       20.928 -20.565   4.433  0.00  0.00    +0.342 C 
ATOM     31  O   LIG    1       21.021 -21.572   5.123  0.00  0.00    -0.245 OA
BRANCH  30  32
ATOM     32  O   LIG    1       19.834 -20.318   3.672  0.00  0.00    -0.477 OA
ATOM     33  H   LIG    1       19.963 -20.507   2.709  0.00  0.00    +0.295 HD
ENDBRANCH  30  32
ENDBRANCH   7  30
TORSDOF 5
ENDMDL
