MODEL 1
REMARK VINA RESULT:      -9.5      0.000      0.000
REMARK  Name = *****
REMARK                            x       y       z     vdW  Elec       q    Type
REMARK                         _______ _______ _______ _____ _____    ______ ____
ROOT
ATOM      1  N   LIG    1       27.040 -20.054   7.566  0.00  0.00    -0.313 N 
ATOM      2  H   LIG    1       26.248 -19.428   7.536  0.00  0.00    +0.146 HD
ATOM      3  H   LIG    1       27.743 -19.840   8.260  0.00  0.00    +0.146 HD
ATOM      4  C   LIG    1       26.772 -21.392   7.465  0.00  0.00    +0.308 C 
ATOM      5  N   LIG    1       25.648 -21.733   6.702  0.00  0.00    -0.224 N 
ATOM      6  C   LIG    1       25.238 -23.108   6.590  0.00  0.00    +0.050 A 
ATOM      7  C   LIG    1       23.881 -23.494   6.603  0.00  0.00    -0.003 A 
ATOM      8  C   LIG    1       23.543 -24.856   6.489  0.00  0.00    +0.010 A 
ATOM      9  C   LIG    1       24.526 -25.833   6.349  0.00  0.00    +0.001 A 
ATOM     10  C   LIG    1       25.864 -25.463   6.338  0.00  0.00    +0.002 A 
ATOM     11  C   LIG    1       22.777 -22.563   6.858  0.00  0.00    +0.010 C 
ATOM     12  C   LIG    1       22.700 -21.318   6.378  0.00  0.00    +0.010 C 
ATOM     13  C   LIG    1       23.708 -20.696   5.516  0.00  0.00    -0.003 A 
ATOM     14  C   LIG    1       23.237 -19.816   4.523  0.00  0.00    +0.010 A 
ATOM     15  C   LIG    1       24.123 -19.123   3.699  0.00  0.00    +0.001 A 
ATOM     16  C   LIG    1       25.491 -19.293   3.862  0.00  0.00    +0.002 A 
ATOM     17  C   LIG    1       25.969 -20.151   4.851  0.00  0.00    +0.024 A 
ATOM     18  C   LIG    1       26.214 -24.116   6.462  0.00  0.00    +0.024 A 
ATOM     19  C   LIG    1       25.094 -20.861   5.698  0.00  0.00    +0.050 A 
ATOM     20  O   LIG    1       27.486 -22.154   8.114  0.00  0.00    -0.252 OA
ENDROOT
TORSDOF 0
ENDMDL
MODEL 2
REMARK VINA RESULT:      -8.6      2.068      5.021
REMARK  Name = *****
REMARK                            x       y       z     vdW  Elec       q    Type
REMARK                         _______ _______ _______ _____ _____    ______ ____
ROOT
ATOM      1  N   LIG    1       22.940 -21.469   4.982  0.00  0.00    -0.313 N 
ATOM      2  H   LIG    1       22.711 -22.114   5.724  0.00  0.00    +0.146 HD
ATOM      3  H   LIG    1       22.172 -20.915   4.629  0.00  0.00    +0.146 HD
ATOM      4  C   LIG    1       24.101 -20.758   5.120  0.00  0.00    +0.308 C 
ATOM      5  N   LIG    1       25.128 -21.399   5.823  0.00  0.00    -0.224 N 
ATOM      6  C   LIG    1       26.365 -20.711   6.086  0.00  0.00    +0.050 A 
ATOM      7  C   LIG    1       27.052 -20.835   7.312  0.00  0.00    -0.003 A 
ATOM      8  C   LIG    1       28.259 -20.137   7.508  0.00  0.00    +0.010 A 
ATOM      9  C   LIG    1       28.798 -19.334   6.505  0.00  0.00    +0.001 A 
ATOM     10  C   LIG    1       28.128 -19.205   5.296  0.00  0.00    +0.002 A 
ATOM     11  C   LIG    1       26.517 -21.560   8.470  0.00  0.00    +0.010 C 
ATOM     12  C   LIG    1       25.862 -22.723   8.408  0.00  0.00    +0.010 C 
ATOM     13  C   LIG    1       25.584 -23.454   7.170  0.00  0.00    -0.003 A 
ATOM     14  C   LIG    1       25.617 -24.860   7.244  0.00  0.00    +0.010 A 
ATOM     15  C   LIG    1       25.299 -25.645   6.137  0.00  0.00    +0.001 A 
ATOM     16  C   LIG    1       24.934 -25.037   4.943  0.00  0.00    +0.002 A 
ATOM     17  C   LIG    1       24.884 -23.645   4.862  0.00  0.00    +0.024 A 
ATOM     18  C   LIG    1       26.924 -19.882   5.093  0.00  0.00    +0.024 A 
ATOM     19  C   LIG    1       25.199 -22.830   5.969  0.00  0.00    +0.050 A 
ATOM     20  O   LIG    1       24.102 -19.606   4.691  0.00  0.00    -0.252 OA
ENDROOT
TORSDOF 0
ENDMDL
MODEL 3
REMARK VINA RESULT:      -7.8      1.702      2.688
REMARK  Name = *****
REMARK                            x       y       z     vdW  Elec       q    Type
REMARK                         _______ _______ _______ _____ _____    ______ ____
ROOT
ATOM      1  N   LIG    1       26.017 -20.188   9.301  0.00  0.00    -0.313 N 
ATOM      2  H   LIG    1       25.889 -19.374   8.717  0.00  0.00    +0.146 HD
ATOM      3  H   LIG    1       25.684 -20.103  10.252  0.00  0.00    +0.146 HD
ATOM      4  C   LIG    1       25.734 -21.402   8.736  0.00  0.00    +0.308 C 
ATOM      5  N   LIG    1       25.952 -21.498   7.357  0.00  0.00    -0.224 N 
ATOM      6  C   LIG    1       25.620 -22.709   6.653  0.00  0.00    +0.050 A 
ATOM      7  C   LIG    1       25.040 -22.700   5.367  0.00  0.00    -0.003 A 
ATOM      8  C   LIG    1       24.739 -23.919   4.730  0.00  0.00    +0.010 A 
ATOM      9  C   LIG    1       25.017 -25.139   5.342  0.00  0.00    +0.001 A 
ATOM     10  C   LIG    1       25.585 -25.158   6.608  0.00  0.00    +0.002 A 
ATOM     11  C   LIG    1       24.604 -21.477   4.684  0.00  0.00    +0.010 C 
ATOM     12  C   LIG    1       25.272 -20.319   4.689  0.00  0.00    +0.010 C 
ATOM     13  C   LIG    1       26.548 -20.099   5.373  0.00  0.00    -0.003 A 
ATOM     14  C   LIG    1       27.464 -19.236   4.743  0.00  0.00    +0.010 A 
ATOM     15  C   LIG    1       28.677 -18.909   5.348  0.00  0.00    +0.001 A 
ATOM     16  C   LIG    1       28.987 -19.433   6.596  0.00  0.00    +0.002 A 
ATOM     17  C   LIG    1       28.080 -20.278   7.237  0.00  0.00    +0.024 A 
ATOM     18  C   LIG    1       25.878 -23.956   7.256  0.00  0.00    +0.024 A 
ATOM     19  C   LIG    1       26.847 -20.621   6.645  0.00  0.00    +0.050 A 
ATOM     20  O   LIG    1       25.243 -22.256   9.471  0.00  0.00    -0.252 OA
ENDROOT
TORSDOF 0
ENDMDL
MODEL 4
REMARK VINA RESULT:      -7.7      2.049      5.265
REMARK  Name = *****
REMARK                            x       y       z     vdW  Elec       q    Type
REMARK                         _______ _______ _______ _____ _____    ______ ____
ROOT
ATOM      1  N   LIG    1       21.788 -23.311   6.491  0.00  0.00    -0.313 N 
ATOM      2  H   LIG    1       22.167 -23.836   7.266  0.00  0.00    +0.146 HD
ATOM      3  H   LIG    1       20.816 -23.044   6.575  0.00  0.00    +0.146 HD
ATOM      4  C   LIG    1       22.578 -22.320   5.974  0.00  0.00    +0.308 C 
ATOM      5  N   LIG    1       23.958 -22.537   6.055  0.00  0.00    -0.224 N 
ATOM      6  C   LIG    1       24.879 -21.526   5.604  0.00  0.00    +0.050 A 
ATOM      7  C   LIG    1       26.076 -21.235   6.290  0.00  0.00    -0.003 A 
ATOM      8  C   LIG    1       26.936 -20.235   5.798  0.00  0.00    +0.010 A 
ATOM      9  C   LIG    1       26.633 -19.533   4.633  0.00  0.00    +0.001 A 
ATOM     10  C   LIG    1       25.455 -19.811   3.953  0.00  0.00    +0.002 A 
ATOM     11  C   LIG    1       26.435 -21.832   7.582  0.00  0.00    +0.010 C 
ATOM     12  C   LIG    1       26.235 -23.110   7.915  0.00  0.00    +0.010 C 
ATOM     13  C   LIG    1       25.632 -24.113   7.035  0.00  0.00    -0.003 A 
ATOM     14  C   LIG    1       26.135 -25.425   7.131  0.00  0.00    +0.010 A 
ATOM     15  C   LIG    1       25.580 -26.464   6.385  0.00  0.00    +0.001 A 
ATOM     16  C   LIG    1       24.509 -26.209   5.540  0.00  0.00    +0.002 A 
ATOM     17  C   LIG    1       23.992 -24.916   5.447  0.00  0.00    +0.024 A 
ATOM     18  C   LIG    1       24.588 -20.793   4.436  0.00  0.00    +0.024 A 
ATOM     19  C   LIG    1       24.536 -23.850   6.193  0.00  0.00    +0.050 A 
ATOM     20  O   LIG    1       22.008 -21.310   5.566  0.00  0.00    -0.252 OA
ENDROOT
TORSDOF 0
ENDMDL
MODEL 5
REMARK VINA RESULT:      -7.6      1.667      4.128
REMARK  Name = *****
REMARK                            x       y       z     vdW  Elec       q    Type
REMARK                         _______ _______ _______ _____ _____    ______ ____
ROOT
ATOM      1  N   LIG    1       24.125 -23.590   5.439  0.00  0.00    -0.313 N 
ATOM      2  H   LIG    1       23.918 -23.186   4.536  0.00  0.00    +0.146 HD
ATOM      3  H   LIG    1       24.087 -24.599   5.487  0.00  0.00    +0.146 HD
ATOM      4  C   LIG    1       25.181 -23.055   6.125  0.00  0.00    +0.308 C 
ATOM      5  N   LIG    1       25.428 -21.696   5.901  0.00  0.00    -0.224 N 
ATOM      6  C   LIG    1       26.559 -21.053   6.519  0.00  0.00    +0.050 A 
ATOM      7  C   LIG    1       27.345 -20.096   5.844  0.00  0.00    -0.003 A 
ATOM      8  C   LIG    1       28.439 -19.502   6.503  0.00  0.00    +0.010 A 
ATOM      9  C   LIG    1       28.751 -19.832   7.820  0.00  0.00    +0.001 A 
ATOM     10  C   LIG    1       27.985 -20.774   8.491  0.00  0.00    +0.002 A 
ATOM     11  C   LIG    1       27.174 -19.762   4.426  0.00  0.00    +0.010 C 
ATOM     12  C   LIG    1       25.996 -19.629   3.809  0.00  0.00    +0.010 C 
ATOM     13  C   LIG    1       24.694 -19.790   4.460  0.00  0.00    -0.003 A 
ATOM     14  C   LIG    1       23.656 -18.949   4.019  0.00  0.00    +0.010 A 
ATOM     15  C   LIG    1       22.364 -19.073   4.529  0.00  0.00    +0.001 A 
ATOM     16  C   LIG    1       22.090 -20.045   5.480  0.00  0.00    +0.002 A 
ATOM     17  C   LIG    1       23.108 -20.894   5.916  0.00  0.00    +0.024 A 
ATOM     18  C   LIG    1       26.904 -21.380   7.845  0.00  0.00    +0.024 A 
ATOM     19  C   LIG    1       24.421 -20.789   5.413  0.00  0.00    +0.050 A 
ATOM     20  O   LIG    1       25.855 -23.831   6.800  0.00  0.00    -0.252 OA
ENDROOT
TORSDOF 0
ENDMDL
MODEL 6
REMARK VINA RESULT:      -6.7      4.363      7.092
REMARK  Name = *****
REMARK                            x       y       z     vdW  Elec       q    Type
REMARK                         _______ _______ _______ _____ _____    ______ ____
ROOT
ATOM      1  N   LIG    1       30.982 -22.716   8.295  0.00  0.00    -0.313 N 
ATOM      2  H   LIG    1       30.668 -22.689   7.335  0.00  0.00    +0.146 HD
ATOM      3  H   LIG    1       31.712 -23.385   8.500  0.00  0.00    +0.146 HD
ATOM      4  C   LIG    1       31.162 -21.511   8.918  0.00  0.00    +0.308 C 
ATOM      5  N   LIG    1       30.325 -20.473   8.491  0.00  0.00    -0.224 N 
ATOM      6  C   LIG    1       30.480 -19.148   9.032  0.00  0.00    +0.050 A 
ATOM      7  C   LIG    1       30.355 -17.989   8.238  0.00  0.00    -0.003 A 
ATOM      8  C   LIG    1       30.518 -16.720   8.826  0.00  0.00    +0.010 A 
ATOM      9  C   LIG    1       30.785 -16.586  10.186  0.00  0.00    +0.001 A 
ATOM     10  C   LIG    1       30.913 -17.721  10.975  0.00  0.00    +0.002 A 
ATOM     11  C   LIG    1       30.188 -18.021   6.780  0.00  0.00    +0.010 C 
ATOM     12  C   LIG    1       29.417 -18.888   6.118  0.00  0.00    +0.010 C 
ATOM     13  C   LIG    1       28.614 -19.937   6.750  0.00  0.00    -0.003 A 
ATOM     14  C   LIG    1       27.373 -20.232   6.154  0.00  0.00    +0.010 A 
ATOM     15  C   LIG    1       26.568 -21.261   6.641  0.00  0.00    +0.001 A 
ATOM     16  C   LIG    1       26.996 -22.015   7.725  0.00  0.00    +0.002 A 
ATOM     17  C   LIG    1       28.229 -21.741   8.316  0.00  0.00    +0.024 A 
ATOM     18  C   LIG    1       30.766 -18.986  10.402  0.00  0.00    +0.024 A 
ATOM     19  C   LIG    1       29.062 -20.707   7.840  0.00  0.00    +0.050 A 
ATOM     20  O   LIG    1       32.086 -21.435   9.725  0.00  0.00    -0.252 OA
ENDROOT
TORSDOF 0
ENDMDL
MODEL 7
REMARK VINA RESULT:      -6.5      2.120      4.356
REMARK  Name = *****
REMARK                            x       y       z     vdW  Elec       q    Type
REMARK                         _______ _______ _______ _____ _____    ______ ____
ROOT
ATOM      1  N   LIG    1       25.960 -24.516   6.367  0.00  0.00    -0.313 N 
ATOM      2  H   LIG    1       25.921 -24.312   7.355  0.00  0.00    +0.146 HD
ATOM      3  H   LIG    1       25.891 -25.493   6.117  0.00  0.00    +0.146 HD
ATOM      4  C   LIG    1       25.244 -23.694   5.539  0.00  0.00    +0.308 C 
ATOM      5  N   LIG    1       25.105 -22.369   5.968  0.00  0.00    -0.224 N 
ATOM      6  C   LIG    1       24.311 -21.440   5.207  0.00  0.00    +0.050 A 
ATOM      7  C   LIG    1       23.473 -20.485   5.818  0.00  0.00    -0.003 A 
ATOM      8  C   LIG    1       22.721 -19.603   5.018  0.00  0.00    +0.010 A 
ATOM      9  C   LIG    1       22.800 -19.647   3.628  0.00  0.00    +0.001 A 
ATOM     10  C   LIG    1       23.620 -20.586   3.017  0.00  0.00    +0.002 A 
ATOM     11  C   LIG    1       23.230 -20.428   7.264  0.00  0.00    +0.010 C 
ATOM     12  C   LIG    1       24.162 -20.612   8.204  0.00  0.00    +0.010 C 
ATOM     13  C   LIG    1       25.573 -20.893   7.930  0.00  0.00    -0.003 A 
ATOM     14  C   LIG    1       26.514 -20.337   8.817  0.00  0.00    +0.010 A 
ATOM     15  C   LIG    1       27.876 -20.603   8.681  0.00  0.00    +0.001 A 
ATOM     16  C   LIG    1       28.316 -21.437   7.662  0.00  0.00    +0.002 A 
ATOM     17  C   LIG    1       27.392 -22.005   6.785  0.00  0.00    +0.024 A 
ATOM     18  C   LIG    1       24.362 -21.474   3.799  0.00  0.00    +0.024 A 
ATOM     19  C   LIG    1       26.010 -21.752   6.904  0.00  0.00    +0.050 A 
ATOM     20  O   LIG    1       24.728 -24.213   4.551  0.00  0.00    -0.252 OA
ENDROOT
TORSDOF 0
ENDMDL
