MODEL 1
REMARK VINA RESULT:      -7.0      0.000      0.000
REMARK  Name = *****
REMARK                            x       y       z     vdW  Elec       q    Type
REMARK                         _______ _______ _______ _____ _____    ______ ____
ROOT
ATOM      1  C   LIG    1       25.476 -21.242   5.679  0.00  0.00    +0.049 C 
ATOM      2  C   LIG    1       25.274 -22.727   5.514  0.00  0.00    +0.264 C 
ATOM      3  O   LIG    1       24.342 -23.088   4.795  0.00  0.00    -0.267 OA
ATOM      4  N   LIG    1       26.192 -23.568   6.196  0.00  0.00    -0.283 N 
ATOM      5  C   LIG    1       27.321 -22.997   6.799  0.00  0.00    +0.104 C 
ATOM      6  C   LIG    1       27.577 -21.676   6.837  0.00  0.00    +0.018 C 
ATOM      7  C   LIG    1       26.573 -20.781   6.297  0.00  0.00    +0.025 C 
ENDROOT
BRANCH   1   9
ATOM      8  C   LIG    1       23.222 -20.088   5.832  0.00  0.00    +0.060 A 
ATOM      9  C   LIG    1       24.459 -20.285   5.191  0.00  0.00    +0.005 A 
ATOM     10  C   LIG    1       24.740 -19.554   4.022  0.00  0.00    +0.010 A 
ATOM     11  C   LIG    1       23.808 -18.654   3.499  0.00  0.00    +0.001 A 
ATOM     12  C   LIG    1       22.579 -18.477   4.128  0.00  0.00    +0.001 A 
ATOM     13  C   LIG    1       22.286 -19.191   5.289  0.00  0.00    +0.019 A 
BRANCH   8  15
ATOM     14  N   LIG    1       22.624 -21.377   8.002  0.00  0.00    -0.191 NA
ATOM     15  C   LIG    1       22.870 -20.788   7.035  0.00  0.00    +0.100 C 
ENDBRANCH   8  15
ENDBRANCH   1   9
BRANCH   4  16
ATOM     16  C   LIG    1       25.974 -25.012   6.234  0.00  0.00    +0.050 A 
ATOM     17  C   LIG    1       26.102 -25.751   7.428  0.00  0.00    +0.026 A 
ATOM     18  C   LIG    1       25.861 -27.133   7.477  0.00  0.00    +0.002 A 
ATOM     19  C   LIG    1       25.488 -27.818   6.329  0.00  0.00    +0.000 A 
ATOM     20  C   LIG    1       25.350 -27.120   5.137  0.00  0.00    +0.002 A 
ATOM     21  C   LIG    1       25.583 -25.738   5.095  0.00  0.00    +0.026 A 
ENDBRANCH   4  16
BRANCH   6  22
ATOM     22  C   LIG    1       28.842 -21.213   7.480  0.00  0.00    +0.072 A 
ATOM     23  N   LIG    1       29.290 -21.928   8.543  0.00  0.00    -0.255 NA
ATOM     24  C   LIG    1       30.448 -21.540   9.124  0.00  0.00    +0.111 A 
ATOM     25  C   LIG    1       31.201 -20.461   8.696  0.00  0.00    +0.020 A 
ATOM     26  C   LIG    1       30.738 -19.737   7.606  0.00  0.00    +0.004 A 
ATOM     27  C   LIG    1       29.547 -20.115   6.987  0.00  0.00    +0.028 A 
ENDBRANCH   6  22
TORSDOF 4
ENDMDL
MODEL 2
REMARK VINA RESULT:      -6.8      1.319      2.129
REMARK  Name = *****
REMARK                            x       y       z     vdW  Elec       q    Type
REMARK                         _______ _______ _______ _____ _____    ______ ____
ROOT
ATOM      1  C   LIG    1       24.980 -21.055   5.521  0.00  0.00    +0.049 C 
ATOM      2  C   LIG    1       24.873 -22.549   5.353  0.00  0.00    +0.264 C 
ATOM      3  O   LIG    1       23.988 -22.965   4.605  0.00  0.00    -0.267 OA
ATOM      4  N   LIG    1       25.816 -23.333   6.067  0.00  0.00    -0.283 N 
ATOM      5  C   LIG    1       26.888 -22.695   6.706  0.00  0.00    +0.104 C 
ATOM      6  C   LIG    1       27.063 -21.360   6.750  0.00  0.00    +0.018 C 
ATOM      7  C   LIG    1       26.026 -20.528   6.174  0.00  0.00    +0.025 C 
ENDROOT
BRANCH   1   9
ATOM      8  C   LIG    1       24.197 -19.040   4.191  0.00  0.00    +0.060 A 
ATOM      9  C   LIG    1       23.924 -20.160   4.997  0.00  0.00    +0.005 A 
ATOM     10  C   LIG    1       22.588 -20.437   5.342  0.00  0.00    +0.010 A 
ATOM     11  C   LIG    1       21.549 -19.613   4.900  0.00  0.00    +0.001 A 
ATOM     12  C   LIG    1       21.828 -18.497   4.117  0.00  0.00    +0.001 A 
ATOM     13  C   LIG    1       23.147 -18.210   3.765  0.00  0.00    +0.019 A 
BRANCH   8  15
ATOM     14  N   LIG    1       26.602 -18.385   3.472  0.00  0.00    -0.191 NA
ATOM     15  C   LIG    1       25.533 -18.702   3.789  0.00  0.00    +0.100 C 
ENDBRANCH   8  15
ENDBRANCH   1   9
BRANCH   4  16
ATOM     16  C   LIG    1       25.684 -24.788   6.102  0.00  0.00    +0.050 A 
ATOM     17  C   LIG    1       25.301 -25.526   4.963  0.00  0.00    +0.026 A 
ATOM     18  C   LIG    1       25.206 -26.925   4.982  0.00  0.00    +0.002 A 
ATOM     19  C   LIG    1       25.485 -27.630   6.145  0.00  0.00    +0.000 A 
ATOM     20  C   LIG    1       25.867 -26.933   7.284  0.00  0.00    +0.002 A 
ATOM     21  C   LIG    1       25.970 -25.536   7.258  0.00  0.00    +0.026 A 
ENDBRANCH   4  16
BRANCH   6  22
ATOM     22  C   LIG    1       28.276 -20.823   7.433  0.00  0.00    +0.072 A 
ATOM     23  N   LIG    1       29.061 -21.716   8.089  0.00  0.00    -0.255 NA
ATOM     24  C   LIG    1       30.178 -21.252   8.693  0.00  0.00    +0.111 A 
ATOM     25  C   LIG    1       30.567 -19.924   8.679  0.00  0.00    +0.020 A 
ATOM     26  C   LIG    1       29.761 -19.018   8.004  0.00  0.00    +0.004 A 
ATOM     27  C   LIG    1       28.603 -19.469   7.371  0.00  0.00    +0.028 A 
ENDBRANCH   6  22
TORSDOF 4
ENDMDL
MODEL 3
REMARK VINA RESULT:      -6.8      1.873      5.623
REMARK  Name = *****
REMARK                            x       y       z     vdW  Elec       q    Type
REMARK                         _______ _______ _______ _____ _____    ______ ____
ROOT
ATOM      1  C   LIG    1       26.211 -21.093   6.191  0.00  0.00    +0.049 C 
ATOM      2  C   LIG    1       26.086 -22.592   6.300  0.00  0.00    +0.264 C 
ATOM      3  O   LIG    1       26.960 -23.180   6.937  0.00  0.00    -0.267 OA
ATOM      4  N   LIG    1       24.960 -23.179   5.666  0.00  0.00    -0.283 N 
ATOM      5  C   LIG    1       23.950 -22.348   5.165  0.00  0.00    +0.104 C 
ATOM      6  C   LIG    1       23.993 -21.002   5.181  0.00  0.00    +0.018 C 
ATOM      7  C   LIG    1       25.205 -20.375   5.670  0.00  0.00    +0.025 C 
ENDROOT
BRANCH   1   9
ATOM      8  C   LIG    1       27.674 -20.007   7.956  0.00  0.00    +0.060 A 
ATOM      9  C   LIG    1       27.446 -20.406   6.627  0.00  0.00    +0.005 A 
ATOM     10  C   LIG    1       28.426 -20.124   5.658  0.00  0.00    +0.010 A 
ATOM     11  C   LIG    1       29.603 -19.454   6.003  0.00  0.00    +0.001 A 
ATOM     12  C   LIG    1       29.814 -19.046   7.316  0.00  0.00    +0.001 A 
ATOM     13  C   LIG    1       28.854 -19.321   8.290  0.00  0.00    +0.019 A 
BRANCH   8  15
ATOM     14  N   LIG    1       25.927 -20.479   9.815  0.00  0.00    -0.191 NA
ATOM     15  C   LIG    1       26.726 -20.271   9.001  0.00  0.00    +0.100 C 
ENDBRANCH   8  15
ENDBRANCH   1   9
BRANCH   4  16
ATOM     16  C   LIG    1       24.847 -24.633   5.573  0.00  0.00    +0.050 A 
ATOM     17  C   LIG    1       25.432 -25.356   4.513  0.00  0.00    +0.026 A 
ATOM     18  C   LIG    1       25.355 -26.755   4.437  0.00  0.00    +0.002 A 
ATOM     19  C   LIG    1       24.685 -27.473   5.418  0.00  0.00    +0.000 A 
ATOM     20  C   LIG    1       24.100 -26.791   6.477  0.00  0.00    +0.002 A 
ATOM     21  C   LIG    1       24.188 -25.394   6.554  0.00  0.00    +0.026 A 
ENDBRANCH   4  16
BRANCH   6  22
ATOM     22  C   LIG    1       22.823 -20.244   4.648  0.00  0.00    +0.072 A 
ATOM     23  N   LIG    1       21.654 -20.924   4.523  0.00  0.00    -0.255 NA
ATOM     24  C   LIG    1       20.576 -20.248   4.065  0.00  0.00    +0.111 A 
ATOM     25  C   LIG    1       20.596 -18.909   3.720  0.00  0.00    +0.020 A 
ATOM     26  C   LIG    1       21.793 -18.220   3.853  0.00  0.00    +0.004 A 
ATOM     27  C   LIG    1       22.921 -18.892   4.324  0.00  0.00    +0.028 A 
ENDBRANCH   6  22
TORSDOF 4
ENDMDL
MODEL 4
REMARK VINA RESULT:      -6.6      4.507      9.161
REMARK  Name = *****
REMARK                            x       y       z     vdW  Elec       q    Type
REMARK                         _______ _______ _______ _____ _____    ______ ____
ROOT
ATOM      1  C   LIG    1       25.414 -30.157   7.146  0.00  0.00    +0.049 C 
ATOM      2  C   LIG    1       25.072 -28.829   6.520  0.00  0.00    +0.264 C 
ATOM      3  O   LIG    1       24.389 -28.855   5.496  0.00  0.00    -0.267 OA
ATOM      4  N   LIG    1       25.560 -27.674   7.184  0.00  0.00    -0.283 N 
ATOM      5  C   LIG    1       26.140 -27.811   8.452  0.00  0.00    +0.104 C 
ATOM      6  C   LIG    1       26.331 -28.988   9.079  0.00  0.00    +0.018 C 
ATOM      7  C   LIG    1       25.996 -30.197   8.354  0.00  0.00    +0.025 C 
ENDROOT
BRANCH   1   9
ATOM      8  C   LIG    1       24.179 -32.355   6.856  0.00  0.00    +0.060 A 
ATOM      9  C   LIG    1       25.141 -31.422   6.429  0.00  0.00    +0.005 A 
ATOM     10  C   LIG    1       25.896 -31.708   5.277  0.00  0.00    +0.010 A 
ATOM     11  C   LIG    1       25.703 -32.898   4.571  0.00  0.00    +0.001 A 
ATOM     12  C   LIG    1       24.762 -33.825   5.009  0.00  0.00    +0.001 A 
ATOM     13  C   LIG    1       24.003 -33.555   6.148  0.00  0.00    +0.019 A 
BRANCH   8  15
ATOM     14  N   LIG    1       22.683 -31.982   8.943  0.00  0.00    -0.191 NA
ATOM     15  C   LIG    1       23.362 -32.126   8.015  0.00  0.00    +0.100 C 
ENDBRANCH   8  15
ENDBRANCH   1   9
BRANCH   4  16
ATOM     16  C   LIG    1       25.424 -26.359   6.561  0.00  0.00    +0.050 A 
ATOM     17  C   LIG    1       24.986 -26.210   5.230  0.00  0.00    +0.026 A 
ATOM     18  C   LIG    1       24.822 -24.947   4.639  0.00  0.00    +0.002 A 
ATOM     19  C   LIG    1       25.097 -23.795   5.362  0.00  0.00    +0.000 A 
ATOM     20  C   LIG    1       25.530 -23.907   6.677  0.00  0.00    +0.002 A 
ATOM     21  C   LIG    1       25.683 -25.170   7.266  0.00  0.00    +0.026 A 
ENDBRANCH   4  16
BRANCH   6  22
ATOM     22  C   LIG    1       26.924 -28.978  10.448  0.00  0.00    +0.072 A 
ATOM     23  N   LIG    1       28.058 -29.702  10.634  0.00  0.00    -0.255 NA
ATOM     24  C   LIG    1       28.624 -29.686  11.862  0.00  0.00    +0.111 A 
ATOM     25  C   LIG    1       28.119 -28.974  12.934  0.00  0.00    +0.020 A 
ATOM     26  C   LIG    1       26.962 -28.233  12.736  0.00  0.00    +0.004 A 
ATOM     27  C   LIG    1       26.356 -28.231  11.480  0.00  0.00    +0.028 A 
ENDBRANCH   6  22
TORSDOF 4
ENDMDL
MODEL 5
REMARK VINA RESULT:      -6.5      8.036     10.986
REMARK  Name = *****
REMARK                            x       y       z     vdW  Elec       q    Type
REMARK                         _______ _______ _______ _____ _____    ______ ____
ROOT
ATOM      1  C   LIG    1       25.093 -29.144  11.521  0.00  0.00    +0.049 C 
ATOM      2  C   LIG    1       25.614 -29.538  10.162  0.00  0.00    +0.264 C 
ATOM      3  O   LIG    1       26.825 -29.417   9.972  0.00  0.00    -0.267 OA
ATOM      4  N   LIG    1       24.657 -30.026   9.235  0.00  0.00    -0.283 N 
ATOM      5  C   LIG    1       23.357 -30.300   9.680  0.00  0.00    +0.104 C 
ATOM      6  C   LIG    1       22.916 -30.073  10.932  0.00  0.00    +0.018 C 
ATOM      7  C   LIG    1       23.823 -29.418  11.854  0.00  0.00    +0.025 C 
ENDROOT
BRANCH   1   9
ATOM      8  C   LIG    1       26.683 -29.082  13.497  0.00  0.00    +0.060 A 
ATOM      9  C   LIG    1       25.959 -28.428  12.483  0.00  0.00    +0.005 A 
ATOM     10  C   LIG    1       26.044 -27.027  12.385  0.00  0.00    +0.010 A 
ATOM     11  C   LIG    1       26.825 -26.294  13.281  0.00  0.00    +0.001 A 
ATOM     12  C   LIG    1       27.525 -26.944  14.293  0.00  0.00    +0.001 A 
ATOM     13  C   LIG    1       27.454 -28.333  14.402  0.00  0.00    +0.019 A 
BRANCH   8  15
ATOM     14  N   LIG    1       26.623 -31.665  13.730  0.00  0.00    -0.191 NA
ATOM     15  C   LIG    1       26.655 -30.509  13.650  0.00  0.00    +0.100 C 
ENDBRANCH   8  15
ENDBRANCH   1   9
BRANCH   4  16
ATOM     16  C   LIG    1       25.039 -30.270   7.846  0.00  0.00    +0.050 A 
ATOM     17  C   LIG    1       25.641 -31.480   7.443  0.00  0.00    +0.026 A 
ATOM     18  C   LIG    1       25.979 -31.732   6.105  0.00  0.00    +0.002 A 
ATOM     19  C   LIG    1       25.729 -30.777   5.129  0.00  0.00    +0.000 A 
ATOM     20  C   LIG    1       25.136 -29.575   5.492  0.00  0.00    +0.002 A 
ATOM     21  C   LIG    1       24.791 -29.332   6.829  0.00  0.00    +0.026 A 
ENDBRANCH   4  16
BRANCH   6  22
ATOM     22  C   LIG    1       21.514 -30.453  11.275  0.00  0.00    +0.072 A 
ATOM     23  N   LIG    1       20.722 -30.869  10.254  0.00  0.00    -0.255 NA
ATOM     24  C   LIG    1       19.455 -31.242  10.549  0.00  0.00    +0.111 A 
ATOM     25  C   LIG    1       18.925 -31.225  11.826  0.00  0.00    +0.020 A 
ATOM     26  C   LIG    1       19.742 -30.801  12.864  0.00  0.00    +0.004 A 
ATOM     27  C   LIG    1       21.053 -30.412  12.590  0.00  0.00    +0.028 A 
ENDBRANCH   6  22
TORSDOF 4
ENDMDL
MODEL 6
REMARK VINA RESULT:      -6.4      7.457     10.845
REMARK  Name = *****
REMARK                            x       y       z     vdW  Elec       q    Type
REMARK                         _______ _______ _______ _____ _____    ______ ____
ROOT
ATOM      1  C   LIG    1       24.865 -30.210   8.941  0.00  0.00    +0.049 C 
ATOM      2  C   LIG    1       25.767 -29.433   9.866  0.00  0.00    +0.264 C 
ATOM      3  O   LIG    1       26.832 -29.028   9.398  0.00  0.00    -0.267 OA
ATOM      4  N   LIG    1       25.292 -29.230  11.188  0.00  0.00    -0.283 N 
ATOM      5  C   LIG    1       23.968 -29.573  11.496  0.00  0.00    +0.104 C 
ATOM      6  C   LIG    1       23.110 -30.151  10.633  0.00  0.00    +0.018 C 
ATOM      7  C   LIG    1       23.620 -30.523   9.328  0.00  0.00    +0.025 C 
ENDROOT
BRANCH   1   9
ATOM      8  C   LIG    1       25.174 -29.910   6.440  0.00  0.00    +0.060 A 
ATOM      9  C   LIG    1       25.350 -30.660   7.617  0.00  0.00    +0.005 A 
ATOM     10  C   LIG    1       26.000 -31.905   7.536  0.00  0.00    +0.010 A 
ATOM     11  C   LIG    1       26.457 -32.396   6.311  0.00  0.00    +0.001 A 
ATOM     12  C   LIG    1       26.264 -31.657   5.147  0.00  0.00    +0.001 A 
ATOM     13  C   LIG    1       25.625 -30.419   5.211  0.00  0.00    +0.019 A 
BRANCH   8  15
ATOM     14  N   LIG    1       24.052 -27.571   6.438  0.00  0.00    -0.191 NA
ATOM     15  C   LIG    1       24.532 -28.626   6.447  0.00  0.00    +0.100 C 
ENDBRANCH   8  15
ENDBRANCH   1   9
BRANCH   4  16
ATOM     16  C   LIG    1       26.166 -28.640  12.199  0.00  0.00    +0.050 A 
ATOM     17  C   LIG    1       26.186 -27.252  12.444  0.00  0.00    +0.026 A 
ATOM     18  C   LIG    1       26.999 -26.684  13.437  0.00  0.00    +0.002 A 
ATOM     19  C   LIG    1       27.821 -27.489  14.212  0.00  0.00    +0.000 A 
ATOM     20  C   LIG    1       27.824 -28.862  13.998  0.00  0.00    +0.002 A 
ATOM     21  C   LIG    1       27.003 -29.425  13.011  0.00  0.00    +0.026 A 
ENDBRANCH   4  16
BRANCH   6  22
ATOM     22  C   LIG    1       21.716 -30.422  11.088  0.00  0.00    +0.072 A 
ATOM     23  N   LIG    1       20.869 -30.978  10.183  0.00  0.00    -0.255 NA
ATOM     24  C   LIG    1       19.608 -31.254  10.584  0.00  0.00    +0.111 A 
ATOM     25  C   LIG    1       19.133 -31.006  11.860  0.00  0.00    +0.020 A 
ATOM     26  C   LIG    1       20.004 -30.439  12.779  0.00  0.00    +0.004 A 
ATOM     27  C   LIG    1       21.312 -30.145  12.393  0.00  0.00    +0.028 A 
ENDBRANCH   6  22
TORSDOF 4
ENDMDL
MODEL 7
REMARK VINA RESULT:      -6.4      4.837      9.385
REMARK  Name = *****
REMARK                            x       y       z     vdW  Elec       q    Type
REMARK                         _______ _______ _______ _____ _____    ______ ____
ROOT
ATOM      1  C   LIG    1       25.427 -30.511   6.511  0.00  0.00    +0.049 C 
ATOM      2  C   LIG    1       25.926 -30.740   7.915  0.00  0.00    +0.264 C 
ATOM      3  O   LIG    1       26.222 -31.895   8.221  0.00  0.00    -0.267 OA
ATOM      4  N   LIG    1       26.020 -29.593   8.746  0.00  0.00    -0.283 N 
ATOM      5  C   LIG    1       25.845 -28.324   8.178  0.00  0.00    +0.104 C 
ATOM      6  C   LIG    1       25.527 -28.104   6.888  0.00  0.00    +0.018 C 
ATOM      7  C   LIG    1       25.259 -29.261   6.056  0.00  0.00    +0.025 C 
ENDROOT
BRANCH   1   9
ATOM      8  C   LIG    1       24.099 -32.600   5.955  0.00  0.00    +0.060 A 
ATOM      9  C   LIG    1       25.090 -31.655   5.635  0.00  0.00    +0.005 A 
ATOM     10  C   LIG    1       25.811 -31.809   4.436  0.00  0.00    +0.010 A 
ATOM     11  C   LIG    1       25.555 -32.883   3.580  0.00  0.00    +0.001 A 
ATOM     12  C   LIG    1       24.586 -33.825   3.912  0.00  0.00    +0.001 A 
ATOM     13  C   LIG    1       23.861 -33.685   5.095  0.00  0.00    +0.019 A 
BRANCH   8  15
ATOM     14  N   LIG    1       22.720 -32.427   8.146  0.00  0.00    -0.191 NA
ATOM     15  C   LIG    1       23.315 -32.502   7.154  0.00  0.00    +0.100 C 
ENDBRANCH   8  15
ENDBRANCH   1   9
BRANCH   4  16
ATOM     16  C   LIG    1       26.329 -29.741  10.166  0.00  0.00    +0.050 A 
ATOM     17  C   LIG    1       27.548 -29.290  10.712  0.00  0.00    +0.026 A 
ATOM     18  C   LIG    1       27.835 -29.399  12.081  0.00  0.00    +0.002 A 
ATOM     19  C   LIG    1       26.911 -29.968  12.946  0.00  0.00    +0.000 A 
ATOM     20  C   LIG    1       25.699 -30.421  12.442  0.00  0.00    +0.002 A 
ATOM     21  C   LIG    1       25.413 -30.301  11.074  0.00  0.00    +0.026 A 
ENDBRANCH   4  16
BRANCH   6  22
ATOM     22  C   LIG    1       25.413 -26.695   6.412  0.00  0.00    +0.072 A 
ATOM     23  N   LIG    1       24.941 -26.505   5.153  0.00  0.00    -0.255 NA
ATOM     24  C   LIG    1       24.808 -25.234   4.712  0.00  0.00    +0.111 A 
ATOM     25  C   LIG    1       25.121 -24.119   5.469  0.00  0.00    +0.020 A 
ATOM     26  C   LIG    1       25.601 -24.320   6.756  0.00  0.00    +0.004 A 
ATOM     27  C   LIG    1       25.747 -25.621   7.237  0.00  0.00    +0.028 A 
ENDBRANCH   6  22
TORSDOF 4
ENDMDL
MODEL 8
REMARK VINA RESULT:      -6.4      5.377      9.659
REMARK  Name = *****
REMARK                            x       y       z     vdW  Elec       q    Type
REMARK                         _______ _______ _______ _____ _____    ______ ____
ROOT
ATOM      1  C   LIG    1       25.040 -29.406   6.302  0.00  0.00    +0.049 C 
ATOM      2  C   LIG    1       24.299 -30.135   7.395  0.00  0.00    +0.264 C 
ATOM      3  O   LIG    1       23.614 -29.451   8.156  0.00  0.00    -0.267 OA
ATOM      4  N   LIG    1       24.452 -31.545   7.430  0.00  0.00    -0.283 N 
ATOM      5  C   LIG    1       25.096 -32.187   6.364  0.00  0.00    +0.104 C 
ATOM      6  C   LIG    1       25.649 -31.550   5.313  0.00  0.00    +0.018 C 
ATOM      7  C   LIG    1       25.656 -30.101   5.335  0.00  0.00    +0.025 C 
ENDROOT
BRANCH   1   9
ATOM      8  C   LIG    1       25.781 -27.198   7.308  0.00  0.00    +0.060 A 
ATOM      9  C   LIG    1       25.123 -27.929   6.303  0.00  0.00    +0.005 A 
ATOM     10  C   LIG    1       24.495 -27.228   5.256  0.00  0.00    +0.010 A 
ATOM     11  C   LIG    1       24.517 -25.832   5.216  0.00  0.00    +0.001 A 
ATOM     12  C   LIG    1       25.155 -25.114   6.223  0.00  0.00    +0.001 A 
ATOM     13  C   LIG    1       25.784 -25.793   7.266  0.00  0.00    +0.019 A 
BRANCH   8  15
ATOM     14  N   LIG    1       26.969 -28.400   9.276  0.00  0.00    -0.191 NA
ATOM     15  C   LIG    1       26.454 -27.844   8.400  0.00  0.00    +0.100 C 
ENDBRANCH   8  15
ENDBRANCH   1   9
BRANCH   4  16
ATOM     16  C   LIG    1       23.912 -32.313   8.549  0.00  0.00    +0.050 A 
ATOM     17  C   LIG    1       24.514 -32.291   9.823  0.00  0.00    +0.026 A 
ATOM     18  C   LIG    1       23.980 -33.001  10.910  0.00  0.00    +0.002 A 
ATOM     19  C   LIG    1       22.829 -33.759  10.752  0.00  0.00    +0.000 A 
ATOM     20  C   LIG    1       22.209 -33.800   9.510  0.00  0.00    +0.002 A 
ATOM     21  C   LIG    1       22.741 -33.082   8.430  0.00  0.00    +0.026 A 
ENDBRANCH   4  16
BRANCH   6  22
ATOM     22  C   LIG    1       26.267 -32.368   4.229  0.00  0.00    +0.072 A 
ATOM     23  N   LIG    1       25.656 -32.346   3.017  0.00  0.00    -0.255 NA
ATOM     24  C   LIG    1       26.215 -33.061   2.014  0.00  0.00    +0.111 A 
ATOM     25  C   LIG    1       27.370 -33.808   2.152  0.00  0.00    +0.020 A 
ATOM     26  C   LIG    1       27.990 -33.824   3.393  0.00  0.00    +0.004 A 
ATOM     27  C   LIG    1       27.437 -33.095   4.445  0.00  0.00    +0.028 A 
ENDBRANCH   6  22
TORSDOF 4
ENDMDL
MODEL 9
REMARK VINA RESULT:      -6.3      8.365     11.164
REMARK  Name = *****
REMARK                            x       y       z     vdW  Elec       q    Type
REMARK                         _______ _______ _______ _____ _____    ______ ____
ROOT
ATOM      1  C   LIG    1       24.922 -30.247   8.937  0.00  0.00    +0.049 C 
ATOM      2  C   LIG    1       25.821 -29.458   9.855  0.00  0.00    +0.264 C 
ATOM      3  O   LIG    1       26.895 -29.074   9.392  0.00  0.00    -0.267 OA
ATOM      4  N   LIG    1       25.332 -29.221  11.166  0.00  0.00    -0.283 N 
ATOM      5  C   LIG    1       24.001 -29.544  11.466  0.00  0.00    +0.104 C 
ATOM      6  C   LIG    1       23.148 -30.132  10.605  0.00  0.00    +0.018 C 
ATOM      7  C   LIG    1       23.669 -30.538   9.316  0.00  0.00    +0.025 C 
ENDROOT
BRANCH   1   9
ATOM      8  C   LIG    1       26.272 -31.842   7.497  0.00  0.00    +0.060 A 
ATOM      9  C   LIG    1       25.419 -30.731   7.630  0.00  0.00    +0.005 A 
ATOM     10  C   LIG    1       25.030 -30.033   6.472  0.00  0.00    +0.010 A 
ATOM     11  C   LIG    1       25.488 -30.427   5.211  0.00  0.00    +0.001 A 
ATOM     12  C   LIG    1       26.346 -31.516   5.089  0.00  0.00    +0.001 A 
ATOM     13  C   LIG    1       26.737 -32.220   6.227  0.00  0.00    +0.019 A 
BRANCH   8  15
ATOM     14  N   LIG    1       27.054 -33.265   9.520  0.00  0.00    -0.191 NA
ATOM     15  C   LIG    1       26.700 -32.610   8.632  0.00  0.00    +0.100 C 
ENDBRANCH   8  15
ENDBRANCH   1   9
BRANCH   4  16
ATOM     16  C   LIG    1       26.200 -28.616  12.174  0.00  0.00    +0.050 A 
ATOM     17  C   LIG    1       26.202 -27.227  12.415  0.00  0.00    +0.026 A 
ATOM     18  C   LIG    1       27.009 -26.646  13.405  0.00  0.00    +0.002 A 
ATOM     19  C   LIG    1       27.843 -27.439  14.182  0.00  0.00    +0.000 A 
ATOM     20  C   LIG    1       27.863 -28.811  13.971  0.00  0.00    +0.002 A 
ATOM     21  C   LIG    1       27.048 -29.388  12.988  0.00  0.00    +0.026 A 
ENDBRANCH   4  16
BRANCH   6  22
ATOM     22  C   LIG    1       21.745 -30.379  11.050  0.00  0.00    +0.072 A 
ATOM     23  N   LIG    1       20.885 -30.880  10.126  0.00  0.00    -0.255 NA
ATOM     24  C   LIG    1       19.616 -31.134  10.516  0.00  0.00    +0.111 A 
ATOM     25  C   LIG    1       19.146 -30.916  11.798  0.00  0.00    +0.020 A 
ATOM     26  C   LIG    1       20.031 -30.407  12.738  0.00  0.00    +0.004 A 
ATOM     27  C   LIG    1       21.347 -30.136  12.364  0.00  0.00    +0.028 A 
ENDBRANCH   6  22
TORSDOF 4
ENDMDL
