MODEL 1
REMARK VINA RESULT:      -1.7      0.000      0.000
REMARK  Name = *****
REMARK                            x       y       z     vdW  Elec       q    Type
REMARK                         _______ _______ _______ _____ _____    ______ ____
ROOT
ATOM      1  C   LIG    1       26.707 -17.149   4.070  0.00  0.00    +0.162 C 
ENDROOT
BRANCH   1   2
ATOM      2  C   LIG    1       26.849 -15.641   3.889  0.00  0.00    +0.029 A 
ATOM      3  C   LIG    1       25.722 -14.792   3.884  0.00  0.00    +0.148 A 
ATOM      4  O   LIG    1       24.495 -15.380   4.042  0.00  0.00    -0.480 OA
ATOM      5  C   LIG    1       23.390 -14.500   4.145  0.00  0.00    +0.325 C 
ATOM      6  C   LIG    1       23.493 -13.025   3.749  0.00  0.00    +0.255 C 
ATOM      7  N   LIG    1       24.773 -12.565   3.605  0.00  0.00    -0.280 N 
ATOM      8  H   LIG    1       24.880 -11.583   3.385  0.00  0.00    +0.155 HD
ATOM      9  O   LIG    1       22.526 -12.292   3.624  0.00  0.00    -0.272 OA
ATOM     10  C   LIG    1       25.879 -13.408   3.684  0.00  0.00    +0.080 A 
ATOM     11  C   LIG    1       27.145 -12.854   3.510  0.00  0.00    +0.072 A 
ATOM     12  C   LIG    1       28.253 -13.686   3.521  0.00  0.00    +0.119 A 
ATOM     13  C   LIG    1       28.122 -15.059   3.721  0.00  0.00    +0.055 A 
BRANCH  12  14
ATOM     14  O   LIG    1       29.471 -13.113   3.298  0.00  0.00    -0.507 OA
ATOM     15  H   LIG    1       29.524 -12.291   3.815  0.00  0.00    +0.292 HD
ENDBRANCH  12  14
ENDBRANCH   1   2
BRANCH   1  16
ATOM     16  O   LIG    1       26.406 -17.768   2.812  0.00  0.00    -0.386 OA
ATOM     17  H   LIG    1       27.069 -17.403   2.192  0.00  0.00    +0.210 HD
ENDBRANCH   1  16
BRANCH   1  18
ATOM     18  C   LIG    1       28.003 -17.792   4.632  0.00  0.00    +0.117 C 
BRANCH  18  19
ATOM     19  N   LIG    1       27.900 -19.265   4.815  0.00  0.00    -0.308 NA
ATOM     20  H   LIG    1       26.926 -19.548   4.670  0.00  0.00    +0.122 HD
BRANCH  19  21
ATOM     21  C   LIG    1       28.317 -19.754   6.165  0.00  0.00    +0.018 C 
ATOM     22  C   LIG    1       29.399 -20.848   5.972  0.00  0.00    +0.027 C 
ATOM     23  C   LIG    1       29.027 -18.610   6.930  0.00  0.00    +0.027 C 
BRANCH  21  24
ATOM     24  C   LIG    1       27.149 -20.342   7.042  0.00  0.00    +0.056 C 
BRANCH  24  28
ATOM     25  C   LIG    1       23.260 -20.648   5.133  0.00  0.00    +0.120 A 
ATOM     26  C   LIG    1       23.420 -21.017   6.464  0.00  0.00    +0.046 A 
ATOM     27  C   LIG    1       24.681 -20.955   7.062  0.00  0.00    +0.007 A 
ATOM     28  C   LIG    1       25.804 -20.511   6.351  0.00  0.00    -0.045 A 
ATOM     29  C   LIG    1       25.643 -20.209   4.992  0.00  0.00    +0.007 A 
ATOM     30  C   LIG    1       24.379 -20.272   4.393  0.00  0.00    +0.046 A 
BRANCH  25  32
ATOM     31  C   LIG    1       21.645 -19.391   3.969  0.00  0.00    +0.277 C 
ATOM     32  O   LIG    1       22.072 -20.661   4.455  0.00  0.00    -0.495 OA
ENDBRANCH  25  32
ENDBRANCH  24  28
ENDBRANCH  21  24
ENDBRANCH  19  21
ENDBRANCH  18  19
ENDBRANCH   1  18
TORSDOF 9
ENDMDL
MODEL 2
REMARK VINA RESULT:      -1.7      1.927      4.810
REMARK  Name = *****
REMARK                            x       y       z     vdW  Elec       q    Type
REMARK                         _______ _______ _______ _____ _____    ______ ____
ROOT
ATOM      1  C   LIG    1       23.468 -15.777   4.568  0.00  0.00    +0.162 C 
ENDROOT
BRANCH   1   2
ATOM      2  C   LIG    1       24.075 -14.607   3.798  0.00  0.00    +0.029 A 
ATOM      3  C   LIG    1       25.472 -14.429   3.714  0.00  0.00    +0.148 A 
ATOM      4  O   LIG    1       26.260 -15.346   4.357  0.00  0.00    -0.480 OA
ATOM      5  C   LIG    1       27.657 -15.211   4.167  0.00  0.00    +0.325 C 
ATOM      6  C   LIG    1       28.273 -13.934   3.590  0.00  0.00    +0.255 C 
ATOM      7  N   LIG    1       27.377 -13.092   2.991  0.00  0.00    -0.280 N 
ATOM      8  H   LIG    1       27.755 -12.258   2.561  0.00  0.00    +0.155 HD
ATOM      9  O   LIG    1       29.470 -13.697   3.606  0.00  0.00    -0.272 OA
ATOM     10  C   LIG    1       26.004 -13.323   3.024  0.00  0.00    +0.080 A 
ATOM     11  C   LIG    1       25.165 -12.405   2.398  0.00  0.00    +0.072 A 
ATOM     12  C   LIG    1       23.792 -12.583   2.475  0.00  0.00    +0.119 A 
ATOM     13  C   LIG    1       23.244 -13.672   3.150  0.00  0.00    +0.055 A 
BRANCH  12  14
ATOM     14  O   LIG    1       23.003 -11.636   1.892  0.00  0.00    -0.507 OA
ATOM     15  H   LIG    1       23.570 -10.909   1.584  0.00  0.00    +0.292 HD
ENDBRANCH  12  14
ENDBRANCH   1   2
BRANCH   1  16
ATOM     16  O   LIG    1       22.046 -15.800   4.385  0.00  0.00    -0.386 OA
ATOM     17  H   LIG    1       21.716 -15.055   4.926  0.00  0.00    +0.210 HD
ENDBRANCH   1  16
BRANCH   1  18
ATOM     18  C   LIG    1       24.042 -17.141   4.099  0.00  0.00    +0.117 C 
BRANCH  18  19
ATOM     19  N   LIG    1       23.003 -18.074   3.586  0.00  0.00    -0.308 NA
ATOM     20  H   LIG    1       22.106 -17.580   3.549  0.00  0.00    +0.122 HD
BRANCH  19  21
ATOM     21  C   LIG    1       22.808 -19.303   4.415  0.00  0.00    +0.018 C 
ATOM     22  C   LIG    1       22.923 -18.903   5.909  0.00  0.00    +0.027 C 
ATOM     23  C   LIG    1       21.357 -19.815   4.242  0.00  0.00    +0.027 C 
BRANCH  21  24
ATOM     24  C   LIG    1       23.827 -20.466   4.120  0.00  0.00    +0.056 C 
BRANCH  24  28
ATOM     25  C   LIG    1       27.587 -20.099   6.261  0.00  0.00    +0.120 A 
ATOM     26  C   LIG    1       27.508 -19.750   4.917  0.00  0.00    +0.046 A 
ATOM     27  C   LIG    1       26.306 -19.908   4.222  0.00  0.00    +0.007 A 
ATOM     28  C   LIG    1       25.157 -20.402   4.855  0.00  0.00    -0.045 A 
ATOM     29  C   LIG    1       25.270 -20.816   6.190  0.00  0.00    +0.007 A 
ATOM     30  C   LIG    1       26.474 -20.657   6.886  0.00  0.00    +0.046 A 
BRANCH  25  32
ATOM     31  C   LIG    1       29.289 -18.674   7.049  0.00  0.00    +0.277 C 
ATOM     32  O   LIG    1       28.708 -19.976   7.035  0.00  0.00    -0.495 OA
ENDBRANCH  25  32
ENDBRANCH  24  28
ENDBRANCH  21  24
ENDBRANCH  19  21
ENDBRANCH  18  19
ENDBRANCH   1  18
TORSDOF 9
ENDMDL
MODEL 3
REMARK VINA RESULT:      -1.7      1.967      6.278
REMARK  Name = *****
REMARK                            x       y       z     vdW  Elec       q    Type
REMARK                         _______ _______ _______ _____ _____    ______ ____
ROOT
ATOM      1  C   LIG    1       27.299 -16.966   3.565  0.00  0.00    +0.162 C 
ENDROOT
BRANCH   1   2
ATOM      2  C   LIG    1       27.304 -18.228   4.422  0.00  0.00    +0.029 A 
ATOM      3  C   LIG    1       26.197 -19.102   4.449  0.00  0.00    +0.148 A 
ATOM      4  O   LIG    1       25.115 -18.766   3.678  0.00  0.00    -0.480 OA
ATOM      5  C   LIG    1       24.062 -19.712   3.635  0.00  0.00    +0.325 C 
ATOM      6  C   LIG    1       23.962 -20.856   4.646  0.00  0.00    +0.255 C 
ATOM      7  N   LIG    1       25.104 -21.078   5.366  0.00  0.00    -0.280 N 
ATOM      8  H   LIG    1       25.088 -21.854   6.015  0.00  0.00    +0.155 HD
ATOM      9  O   LIG    1       22.973 -21.558   4.774  0.00  0.00    -0.272 OA
ATOM     10  C   LIG    1       26.215 -20.243   5.273  0.00  0.00    +0.080 A 
ATOM     11  C   LIG    1       27.329 -20.538   6.055  0.00  0.00    +0.072 A 
ATOM     12  C   LIG    1       28.420 -19.683   6.024  0.00  0.00    +0.119 A 
ATOM     13  C   LIG    1       28.425 -18.549   5.213  0.00  0.00    +0.055 A 
BRANCH  12  14
ATOM     14  O   LIG    1       29.472 -19.979   6.840  0.00  0.00    -0.507 OA
ATOM     15  H   LIG    1       30.285 -19.979   6.308  0.00  0.00    +0.292 HD
ENDBRANCH  12  14
ENDBRANCH   1   2
BRANCH   1  16
ATOM     16  O   LIG    1       25.976 -16.713   3.071  0.00  0.00    -0.386 OA
ATOM     17  H   LIG    1       26.097 -16.544   2.116  0.00  0.00    +0.210 HD
ENDBRANCH   1  16
BRANCH   1  18
ATOM     18  C   LIG    1       27.769 -15.720   4.361  0.00  0.00    +0.117 C 
BRANCH  18  19
ATOM     19  N   LIG    1       28.237 -14.606   3.493  0.00  0.00    -0.308 NA
ATOM     20  H   LIG    1       29.250 -14.691   3.365  0.00  0.00    +0.122 HD
BRANCH  19  21
ATOM     21  C   LIG    1       27.964 -13.239   4.035  0.00  0.00    +0.018 C 
ATOM     22  C   LIG    1       27.955 -13.325   5.584  0.00  0.00    +0.027 C 
ATOM     23  C   LIG    1       29.146 -12.302   3.686  0.00  0.00    +0.027 C 
BRANCH  21  24
ATOM     24  C   LIG    1       26.610 -12.597   3.553  0.00  0.00    +0.056 C 
BRANCH  24  28
ATOM     25  C   LIG    1       23.071 -14.912   4.545  0.00  0.00    +0.120 A 
ATOM     26  C   LIG    1       23.305 -14.513   3.234  0.00  0.00    +0.046 A 
ATOM     27  C   LIG    1       24.423 -13.734   2.927  0.00  0.00    +0.007 A 
ATOM     28  C   LIG    1       25.338 -13.350   3.916  0.00  0.00    -0.045 A 
ATOM     29  C   LIG    1       25.054 -13.699   5.244  0.00  0.00    +0.007 A 
ATOM     30  C   LIG    1       23.933 -14.479   5.551  0.00  0.00    +0.046 A 
BRANCH  25  32
ATOM     31  C   LIG    1       22.133 -17.069   4.651  0.00  0.00    +0.277 C 
ATOM     32  O   LIG    1       22.016 -15.681   4.953  0.00  0.00    -0.495 OA
ENDBRANCH  25  32
ENDBRANCH  24  28
ENDBRANCH  21  24
ENDBRANCH  19  21
ENDBRANCH  18  19
ENDBRANCH   1  18
TORSDOF 9
ENDMDL
MODEL 4
REMARK VINA RESULT:      -1.3      1.560      2.802
REMARK  Name = *****
REMARK                            x       y       z     vdW  Elec       q    Type
REMARK                         _______ _______ _______ _____ _____    ______ ____
ROOT
ATOM      1  C   LIG    1       26.650 -18.083   3.586  0.00  0.00    +0.162 C 
ENDROOT
BRANCH   1   2
ATOM      2  C   LIG    1       25.546 -17.035   3.696  0.00  0.00    +0.029 A 
ATOM      3  C   LIG    1       25.772 -15.689   3.340  0.00  0.00    +0.148 A 
ATOM      4  O   LIG    1       27.027 -15.361   2.898  0.00  0.00    -0.480 OA
ATOM      5  C   LIG    1       27.200 -14.032   2.442  0.00  0.00    +0.325 C 
ATOM      6  C   LIG    1       26.180 -12.933   2.749  0.00  0.00    +0.255 C 
ATOM      7  N   LIG    1       24.973 -13.391   3.202  0.00  0.00    -0.280 N 
ATOM      8  H   LIG    1       24.259 -12.695   3.375  0.00  0.00    +0.155 HD
ATOM      9  O   LIG    1       26.390 -11.746   2.560  0.00  0.00    -0.272 OA
ATOM     10  C   LIG    1       24.746 -14.737   3.481  0.00  0.00    +0.080 A 
ATOM     11  C   LIG    1       23.489 -15.110   3.950  0.00  0.00    +0.072 A 
ATOM     12  C   LIG    1       23.264 -16.434   4.294  0.00  0.00    +0.119 A 
ATOM     13  C   LIG    1       24.265 -17.395   4.160  0.00  0.00    +0.055 A 
BRANCH  12  14
ATOM     14  O   LIG    1       22.036 -16.751   4.797  0.00  0.00    -0.507 OA
ATOM     15  H   LIG    1       21.995 -16.455   5.721  0.00  0.00    +0.292 HD
ENDBRANCH  12  14
ENDBRANCH   1   2
BRANCH   1  16
ATOM     16  O   LIG    1       27.914 -17.501   3.933  0.00  0.00    -0.386 OA
ATOM     17  H   LIG    1       28.439 -18.245   4.288  0.00  0.00    +0.210 HD
ENDBRANCH   1  16
BRANCH   1  18
ATOM     18  C   LIG    1       26.397 -19.294   4.523  0.00  0.00    +0.117 C 
BRANCH  18  19
ATOM     19  N   LIG    1       27.622 -20.094   4.797  0.00  0.00    -0.308 NA
ATOM     20  H   LIG    1       27.516 -21.017   4.364  0.00  0.00    +0.122 HD
BRANCH  19  21
ATOM     21  C   LIG    1       27.912 -20.307   6.249  0.00  0.00    +0.018 C 
ATOM     22  C   LIG    1       29.186 -21.184   6.364  0.00  0.00    +0.027 C 
ATOM     23  C   LIG    1       28.290 -18.954   6.901  0.00  0.00    +0.027 C 
BRANCH  21  24
ATOM     24  C   LIG    1       26.749 -20.988   7.061  0.00  0.00    +0.056 C 
BRANCH  24  28
ATOM     25  C   LIG    1       22.884 -20.895   5.084  0.00  0.00    +0.120 A 
ATOM     26  C   LIG    1       23.022 -20.407   6.378  0.00  0.00    +0.046 A 
ATOM     27  C   LIG    1       24.259 -20.476   7.025  0.00  0.00    +0.007 A 
ATOM     28  C   LIG    1       25.384 -21.019   6.390  0.00  0.00    -0.045 A 
ATOM     29  C   LIG    1       25.214 -21.571   5.113  0.00  0.00    +0.007 A 
ATOM     30  C   LIG    1       23.975 -21.502   4.466  0.00  0.00    +0.046 A 
BRANCH  25  32
ATOM     31  C   LIG    1       21.122 -19.582   4.237  0.00  0.00    +0.277 C 
ATOM     32  O   LIG    1       21.725 -20.868   4.358  0.00  0.00    -0.495 OA
ENDBRANCH  25  32
ENDBRANCH  24  28
ENDBRANCH  21  24
ENDBRANCH  19  21
ENDBRANCH  18  19
ENDBRANCH   1  18
TORSDOF 9
ENDMDL
