MODEL 1
REMARK VINA RESULT:      -1.4      0.000      0.000
REMARK  Name = *****
REMARK                            x       y       z     vdW  Elec       q    Type
REMARK                         _______ _______ _______ _____ _____    ______ ____
ROOT
ATOM      1  C   LIG    1       24.222 -20.366   5.502  0.00  0.00    +0.125 C 
ATOM      2  C   LIG    1       24.782 -20.017   4.067  0.00  0.00    +0.104 C 
ATOM      3  N   LIG    1       26.125 -20.354   4.620  0.00  0.00    -0.260 N 
ATOM      4  C   LIG    1       26.953 -19.245   4.527  0.00  0.00    +0.131 C 
ATOM      5  C   LIG    1       26.402 -18.282   3.759  0.00  0.00    +0.019 C 
ATOM      6  C   LIG    1       24.954 -18.620   3.443  0.00  0.00    +0.046 C 
ATOM      7  C   LIG    1       23.937 -17.642   4.023  0.00  0.00    +0.015 C 
ATOM      8  C   LIG    1       25.650 -20.845   5.795  0.00  0.00    +0.228 C 
ATOM      9  O   LIG    1       26.261 -21.289   6.740  0.00  0.00    -0.275 OA
ENDROOT
BRANCH   1  11
ATOM     10  C   LIG    1       22.648 -21.571   7.062  0.00  0.00    +0.038 C 
ATOM     11  C   LIG    1       23.140 -21.426   5.624  0.00  0.00    +0.125 C 
BRANCH  11  12
ATOM     12  O   LIG    1       22.052 -21.042   4.785  0.00  0.00    -0.391 OA
ATOM     13  H   LIG    1       21.400 -21.766   4.767  0.00  0.00    +0.210 HD
ENDBRANCH  11  12
ENDBRANCH   1  11
BRANCH   4  14
ATOM     14  C   LIG    1       28.260 -19.134   5.252  0.00  0.00    +0.352 C 
ATOM     15  O   LIG    1       28.877 -18.087   5.382  0.00  0.00    -0.244 OA
BRANCH  14  16
ATOM     16  O   LIG    1       28.740 -20.276   5.790  0.00  0.00    -0.476 OA
ATOM     17  H   LIG    1       29.184 -20.231   6.666  0.00  0.00    +0.295 HD
ENDBRANCH  14  16
ENDBRANCH   4  14
BRANCH   5  18
ATOM     18  S   LIG    1       27.064 -16.746   3.309  0.00  0.00    -0.122 S 
BRANCH  18  19
ATOM     19  C   LIG    1       25.601 -15.629   3.325  0.00  0.00    +0.066 C 
ATOM     20  C   LIG    1       25.523 -14.798   4.596  0.00  0.00    +0.036 C 
ATOM     21  C   LIG    1       24.901 -13.466   4.174  0.00  0.00    +0.070 C 
ATOM     22  N   LIG    1       25.457 -13.244   2.833  0.00  0.00    -0.311 NA
ATOM     23  H   LIG    1       24.819 -12.678   2.271  0.00  0.00    +0.122 HD
ATOM     24  C   LIG    1       25.651 -14.568   2.213  0.00  0.00    +0.095 C 
BRANCH  21  25
ATOM     25  C   LIG    1       25.261 -12.317   5.145  0.00  0.00    +0.125 C 
BRANCH  25  26
ATOM     26  N   LIG    1       26.655 -11.820   4.991  0.00  0.00    -0.179 NA
ATOM     27  H   LIG    1       26.837 -10.971   5.531  0.00  0.00    +0.149 HD
BRANCH  26  28
ATOM     28  S   LIG    1       27.912 -12.895   5.175  0.00  0.00    +0.092 S 
ATOM     29  O   LIG    1       28.364 -13.373   3.884  0.00  0.00    -0.141 OA
ATOM     30  O   LIG    1       27.605 -13.759   6.274  0.00  0.00    -0.141 OA
BRANCH  28  31
ATOM     31  N   LIG    1       29.048 -11.822   5.721  0.00  0.00    -0.193 NA
ATOM     32  H   LIG    1       29.369 -12.076   6.651  0.00  0.00    +0.145 HD
ATOM     33  H   LIG    1       28.689 -10.872   5.642  0.00  0.00    +0.145 HD
ENDBRANCH  28  31
ENDBRANCH  26  28
ENDBRANCH  25  26
ENDBRANCH  21  25
ENDBRANCH  18  19
ENDBRANCH   5  18
TORSDOF 10
ENDMDL
MODEL 2
REMARK VINA RESULT:      -0.6      1.933      2.420
REMARK  Name = *****
REMARK                            x       y       z     vdW  Elec       q    Type
REMARK                         _______ _______ _______ _____ _____    ______ ____
ROOT
ATOM      1  C   LIG    1       24.450 -20.087   4.665  0.00  0.00    +0.125 C 
ATOM      2  C   LIG    1       25.239 -19.283   3.558  0.00  0.00    +0.104 C 
ATOM      3  N   LIG    1       26.477 -19.798   4.210  0.00  0.00    -0.260 N 
ATOM      4  C   LIG    1       27.246 -18.729   4.645  0.00  0.00    +0.131 C 
ATOM      5  C   LIG    1       26.791 -17.560   4.148  0.00  0.00    +0.019 C 
ATOM      6  C   LIG    1       25.444 -17.760   3.473  0.00  0.00    +0.046 C 
ATOM      7  C   LIG    1       24.288 -17.023   4.142  0.00  0.00    +0.015 C 
ATOM      8  C   LIG    1       25.826 -20.649   5.045  0.00  0.00    +0.228 C 
ATOM      9  O   LIG    1       26.280 -21.390   5.887  0.00  0.00    -0.275 OA
ENDROOT
BRANCH   1  11
ATOM     10  C   LIG    1       21.999 -20.669   4.547  0.00  0.00    +0.038 C 
ATOM     11  C   LIG    1       23.423 -21.116   4.225  0.00  0.00    +0.125 C 
BRANCH  11  12
ATOM     12  O   LIG    1       23.557 -21.297   2.816  0.00  0.00    -0.391 OA
ATOM     13  H   LIG    1       22.678 -21.486   2.440  0.00  0.00    +0.210 HD
ENDBRANCH  11  12
ENDBRANCH   1  11
BRANCH   4  14
ATOM     14  C   LIG    1       28.395 -18.879   5.598  0.00  0.00    +0.352 C 
ATOM     15  O   LIG    1       29.471 -18.319   5.455  0.00  0.00    -0.244 OA
BRANCH  14  16
ATOM     16  O   LIG    1       28.178 -19.674   6.668  0.00  0.00    -0.476 OA
ATOM     17  H   LIG    1       28.346 -19.308   7.565  0.00  0.00    +0.295 HD
ENDBRANCH  14  16
ENDBRANCH   4  14
BRANCH   5  18
ATOM     18  S   LIG    1       27.439 -15.968   4.363  0.00  0.00    -0.122 S 
BRANCH  18  19
ATOM     19  C   LIG    1       27.042 -15.127   2.775  0.00  0.00    +0.066 C 
ATOM     20  C   LIG    1       25.613 -14.607   2.738  0.00  0.00    +0.036 C 
ATOM     21  C   LIG    1       25.666 -13.332   1.895  0.00  0.00    +0.070 C 
ATOM     22  N   LIG    1       26.965 -12.745   2.250  0.00  0.00    -0.311 NA
ATOM     23  H   LIG    1       27.325 -12.182   1.478  0.00  0.00    +0.122 HD
ATOM     24  C   LIG    1       27.884 -13.860   2.546  0.00  0.00    +0.095 C 
BRANCH  21  25
ATOM     25  C   LIG    1       24.494 -12.372   2.210  0.00  0.00    +0.125 C 
BRANCH  25  26
ATOM     26  N   LIG    1       23.614 -12.846   3.313  0.00  0.00    -0.179 NA
ATOM     27  H   LIG    1       23.319 -13.818   3.197  0.00  0.00    +0.149 HD
BRANCH  26  28
ATOM     28  S   LIG    1       24.088 -12.576   4.886  0.00  0.00    +0.092 S 
ATOM     29  O   LIG    1       23.371 -11.447   5.444  0.00  0.00    -0.141 OA
ATOM     30  O   LIG    1       25.510 -12.722   4.956  0.00  0.00    -0.141 OA
BRANCH  28  31
ATOM     31  N   LIG    1       23.438 -13.943   5.554  0.00  0.00    -0.193 NA
ATOM     32  H   LIG    1       23.609 -13.974   6.555  0.00  0.00    +0.145 HD
ATOM     33  H   LIG    1       23.763 -14.764   5.044  0.00  0.00    +0.145 HD
ENDBRANCH  28  31
ENDBRANCH  26  28
ENDBRANCH  25  26
ENDBRANCH  21  25
ENDBRANCH  18  19
ENDBRANCH   5  18
TORSDOF 10
ENDMDL
MODEL 3
REMARK VINA RESULT:       0.9      3.047      7.094
REMARK  Name = *****
REMARK                            x       y       z     vdW  Elec       q    Type
REMARK                         _______ _______ _______ _____ _____    ______ ____
ROOT
ATOM      1  C   LIG    1       25.087 -13.700   4.603  0.00  0.00    +0.125 C 
ATOM      2  C   LIG    1       26.175 -14.123   3.539  0.00  0.00    +0.104 C 
ATOM      3  N   LIG    1       25.241 -15.225   3.172  0.00  0.00    -0.260 N 
ATOM      4  C   LIG    1       25.868 -16.446   3.374  0.00  0.00    +0.131 C 
ATOM      5  C   LIG    1       27.189 -16.290   3.600  0.00  0.00    +0.019 C 
ATOM      6  C   LIG    1       27.522 -14.821   3.804  0.00  0.00    +0.046 C 
ATOM      7  C   LIG    1       28.042 -14.479   5.197  0.00  0.00    +0.015 C 
ATOM      8  C   LIG    1       24.214 -14.769   3.935  0.00  0.00    +0.228 C 
ATOM      9  O   LIG    1       23.113 -15.246   4.098  0.00  0.00    -0.275 OA
ENDROOT
BRANCH   1  11
ATOM     10  C   LIG    1       23.909 -11.964   3.203  0.00  0.00    +0.038 C 
ATOM     11  C   LIG    1       24.536 -12.285   4.558  0.00  0.00    +0.125 C 
BRANCH  11  12
ATOM     12  O   LIG    1       23.548 -12.164   5.580  0.00  0.00    -0.391 OA
ATOM     13  H   LIG    1       23.963 -11.782   6.374  0.00  0.00    +0.210 HD
ENDBRANCH  11  12
ENDBRANCH   1  11
BRANCH   4  14
ATOM     14  C   LIG    1       25.133 -17.752   3.394  0.00  0.00    +0.352 C 
ATOM     15  O   LIG    1       25.584 -18.791   2.936  0.00  0.00    -0.244 OA
BRANCH  14  16
ATOM     16  O   LIG    1       23.914 -17.739   3.974  0.00  0.00    -0.476 OA
ATOM     17  H   LIG    1       23.658 -16.953   4.509  0.00  0.00    +0.295 HD
ENDBRANCH  14  16
ENDBRANCH   4  14
BRANCH   5  18
ATOM     18  S   LIG    1       28.394 -17.507   3.857  0.00  0.00    -0.122 S 
BRANCH  18  19
ATOM     19  C   LIG    1       28.092 -18.048   5.591  0.00  0.00    +0.066 C 
ATOM     20  C   LIG    1       27.057 -19.158   5.678  0.00  0.00    +0.036 C 
ATOM     21  C   LIG    1       27.489 -20.025   6.862  0.00  0.00    +0.070 C 
ATOM     22  N   LIG    1       28.956 -19.989   6.790  0.00  0.00    -0.311 NA
ATOM     23  H   LIG    1       29.362 -20.121   7.718  0.00  0.00    +0.122 HD
ATOM     24  C   LIG    1       29.337 -18.673   6.244  0.00  0.00    +0.095 C 
BRANCH  21  25
ATOM     25  C   LIG    1       26.942 -21.468   6.763  0.00  0.00    +0.125 C 
BRANCH  25  26
ATOM     26  N   LIG    1       25.479 -21.570   7.014  0.00  0.00    -0.179 NA
ATOM     27  H   LIG    1       25.213 -21.259   7.951  0.00  0.00    +0.149 HD
BRANCH  26  28
ATOM     28  S   LIG    1       24.428 -20.944   5.885  0.00  0.00    +0.092 S 
ATOM     29  O   LIG    1       24.638 -21.572   4.595  0.00  0.00    -0.141 OA
ATOM     30  O   LIG    1       24.362 -19.527   6.072  0.00  0.00    -0.141 OA
BRANCH  28  31
ATOM     31  N   LIG    1       23.029 -21.569   6.508  0.00  0.00    -0.193 NA
ATOM     32  H   LIG    1       22.389 -21.837   5.765  0.00  0.00    +0.145 HD
ATOM     33  H   LIG    1       22.637 -20.924   7.192  0.00  0.00    +0.145 HD
ENDBRANCH  28  31
ENDBRANCH  26  28
ENDBRANCH  25  26
ENDBRANCH  21  25
ENDBRANCH  18  19
ENDBRANCH   5  18
TORSDOF 10
ENDMDL
MODEL 4
REMARK VINA RESULT:       0.9      1.453      1.658
REMARK  Name = *****
REMARK                            x       y       z     vdW  Elec       q    Type
REMARK                         _______ _______ _______ _____ _____    ______ ____
ROOT
ATOM      1  C   LIG    1       23.355 -19.643   5.689  0.00  0.00    +0.125 C 
ATOM      2  C   LIG    1       23.406 -19.281   4.153  0.00  0.00    +0.104 C 
ATOM      3  N   LIG    1       24.852 -19.638   4.219  0.00  0.00    -0.260 N 
ATOM      4  C   LIG    1       25.615 -18.536   3.864  0.00  0.00    +0.131 C 
ATOM      5  C   LIG    1       24.852 -17.558   3.333  0.00  0.00    +0.019 C 
ATOM      6  C   LIG    1       23.377 -17.878   3.519  0.00  0.00    +0.046 C 
ATOM      7  C   LIG    1       22.628 -16.897   4.416  0.00  0.00    +0.015 C 
ATOM      8  C   LIG    1       24.792 -20.139   5.481  0.00  0.00    +0.228 C 
ATOM      9  O   LIG    1       25.679 -20.602   6.162  0.00  0.00    -0.275 OA
ENDROOT
BRANCH   1  11
ATOM     10  C   LIG    1       21.801 -21.502   4.991  0.00  0.00    +0.038 C 
ATOM     11  C   LIG    1       22.362 -20.693   6.158  0.00  0.00    +0.125 C 
BRANCH  11  12
ATOM     12  O   LIG    1       23.039 -21.566   7.061  0.00  0.00    -0.391 OA
ATOM     13  H   LIG    1       23.071 -21.144   7.938  0.00  0.00    +0.210 HD
ENDBRANCH  11  12
ENDBRANCH   1  11
BRANCH   4  14
ATOM     14  C   LIG    1       27.092 -18.448   4.108  0.00  0.00    +0.352 C 
ATOM     15  O   LIG    1       27.745 -17.427   3.952  0.00  0.00    -0.244 OA
BRANCH  14  16
ATOM     16  O   LIG    1       27.691 -19.578   4.539  0.00  0.00    -0.476 OA
ATOM     17  H   LIG    1       27.648 -20.378   3.969  0.00  0.00    +0.295 HD
ENDBRANCH  14  16
ENDBRANCH   4  14
BRANCH   5  18
ATOM     18  S   LIG    1       25.345 -16.023   2.701  0.00  0.00    -0.122 S 
BRANCH  18  19
ATOM     19  C   LIG    1       24.557 -14.816   3.845  0.00  0.00    +0.066 C 
ATOM     20  C   LIG    1       25.529 -14.290   4.889  0.00  0.00    +0.036 C 
ATOM     21  C   LIG    1       25.096 -12.848   5.159  0.00  0.00    +0.070 C 
ATOM     22  N   LIG    1       24.648 -12.378   3.842  0.00  0.00    -0.311 NA
ATOM     23  H   LIG    1       23.943 -11.646   3.945  0.00  0.00    +0.122 HD
ATOM     24  C   LIG    1       24.084 -13.539   3.129  0.00  0.00    +0.095 C 
BRANCH  21  25
ATOM     25  C   LIG    1       26.251 -11.984   5.718  0.00  0.00    +0.125 C 
BRANCH  25  26
ATOM     26  N   LIG    1       27.594 -12.603   5.553  0.00  0.00    -0.179 NA
ATOM     27  H   LIG    1       27.745 -13.398   6.177  0.00  0.00    +0.149 HD
BRANCH  26  28
ATOM     28  S   LIG    1       28.120 -12.974   4.018  0.00  0.00    +0.092 S 
ATOM     29  O   LIG    1       27.212 -12.432   3.026  0.00  0.00    -0.141 OA
ATOM     30  O   LIG    1       28.574 -14.331   4.015  0.00  0.00    -0.141 OA
BRANCH  28  31
ATOM     31  N   LIG    1       29.474 -12.022   4.008  0.00  0.00    -0.193 NA
ATOM     32  H   LIG    1       29.250 -11.071   4.290  0.00  0.00    +0.145 HD
ATOM     33  H   LIG    1       29.941 -12.097   3.106  0.00  0.00    +0.145 HD
ENDBRANCH  28  31
ENDBRANCH  26  28
ENDBRANCH  25  26
ENDBRANCH  21  25
ENDBRANCH  18  19
ENDBRANCH   5  18
TORSDOF 10
ENDMDL
