MODEL 1
REMARK VINA RESULT:      -2.4      0.000      0.000
REMARK  Name = *****
REMARK                            x       y       z     vdW  Elec       q    Type
REMARK                         _______ _______ _______ _____ _____    ______ ____
ROOT
ATOM      1  C   LIG    1       25.748 -19.783   3.710  0.00  0.00    +0.084 C 
ATOM      2  C   LIG    1       25.444 -18.684   2.671  0.00  0.00    +0.038 C 
ATOM      3  C   LIG    1       25.719 -17.277   3.223  0.00  0.00    +0.086 C 
ATOM      4  N   LIG    1       27.119 -17.069   3.628  0.00  0.00    -0.302 NA
ATOM      5  C   LIG    1       27.607 -18.176   4.485  0.00  0.00    +0.086 C 
ATOM      6  C   LIG    1       27.230 -19.607   4.071  0.00  0.00    +0.038 C 
ENDROOT
BRANCH   1   8
ATOM      7  C   LIG    1       24.939 -20.446   6.073  0.00  0.00    +0.220 C 
ATOM      8  N   LIG    1       24.716 -19.861   4.814  0.00  0.00    -0.268 N 
ATOM      9  O   LIG    1       26.046 -20.889   6.434  0.00  0.00    -0.275 OA
BRANCH   8  10
ATOM     10  C   LIG    1       23.404 -19.403   4.454  0.00  0.00    +0.037 A 
ATOM     11  C   LIG    1       23.063 -18.045   4.522  0.00  0.00    +0.023 A 
ATOM     12  C   LIG    1       21.786 -17.615   4.144  0.00  0.00    +0.002 A 
ATOM     13  C   LIG    1       20.831 -18.542   3.727  0.00  0.00    +0.000 A 
ATOM     14  C   LIG    1       21.153 -19.896   3.678  0.00  0.00    +0.002 A 
ATOM     15  C   LIG    1       22.436 -20.323   4.032  0.00  0.00    +0.023 A 
ENDBRANCH   8  10
BRANCH   7  17
ATOM     16  C   LIG    1       22.718 -21.572   6.646  0.00  0.00    +0.013 C 
ATOM     17  C   LIG    1       23.776 -20.553   7.062  0.00  0.00    +0.093 C 
ENDBRANCH   7  17
ENDBRANCH   1   8
BRANCH   4  18
ATOM     18  C   LIG    1       27.306 -15.788   4.399  0.00  0.00    +0.089 C 
BRANCH  18  19
ATOM     19  C   LIG    1       27.391 -14.468   3.601  0.00  0.00    +0.050 C 
BRANCH  19  20
ATOM     20  C   LIG    1       26.076 -13.718   3.387  0.00  0.00    -0.046 A 
ATOM     21  C   LIG    1       25.077 -13.674   4.374  0.00  0.00    +0.003 A 
ATOM     22  C   LIG    1       23.983 -12.800   4.254  0.00  0.00    +0.000 A 
ATOM     23  C   LIG    1       23.865 -11.969   3.143  0.00  0.00    +0.000 A 
ATOM     24  C   LIG    1       24.803 -12.061   2.120  0.00  0.00    +0.000 A 
ATOM     25  C   LIG    1       25.890 -12.938   2.234  0.00  0.00    +0.003 A 
ENDBRANCH  19  20
ENDBRANCH  18  19
ENDBRANCH   4  18
TORSDOF 6
ENDMDL
MODEL 2
REMARK VINA RESULT:      -1.0      2.123      6.877
REMARK  Name = *****
REMARK                            x       y       z     vdW  Elec       q    Type
REMARK                         _______ _______ _______ _____ _____    ______ ____
ROOT
ATOM      1  C   LIG    1       26.400 -16.694   2.980  0.00  0.00    +0.084 C 
ATOM      2  C   LIG    1       27.864 -17.022   3.337  0.00  0.00    +0.038 C 
ATOM      3  C   LIG    1       27.986 -17.691   4.714  0.00  0.00    +0.086 C 
ATOM      4  N   LIG    1       27.255 -18.966   4.813  0.00  0.00    -0.302 NA
ATOM      5  C   LIG    1       25.867 -18.836   4.310  0.00  0.00    +0.086 C 
ATOM      6  C   LIG    1       25.659 -18.039   3.012  0.00  0.00    +0.038 C 
ENDROOT
BRANCH   1   8
ATOM      7  C   LIG    1       24.490 -15.354   4.090  0.00  0.00    +0.220 C 
ATOM      8  N   LIG    1       25.845 -15.520   3.758  0.00  0.00    -0.268 N 
ATOM      9  O   LIG    1       23.617 -16.207   3.845  0.00  0.00    -0.275 OA
BRANCH   8  10
ATOM     10  C   LIG    1       26.790 -14.476   4.040  0.00  0.00    +0.037 A 
ATOM     11  C   LIG    1       26.980 -14.001   5.345  0.00  0.00    +0.023 A 
ATOM     12  C   LIG    1       27.924 -13.000   5.604  0.00  0.00    +0.002 A 
ATOM     13  C   LIG    1       28.659 -12.444   4.558  0.00  0.00    +0.000 A 
ATOM     14  C   LIG    1       28.460 -12.894   3.255  0.00  0.00    +0.002 A 
ATOM     15  C   LIG    1       27.537 -13.911   2.999  0.00  0.00    +0.023 A 
ENDBRANCH   8  10
BRANCH   7  17
ATOM     16  C   LIG    1       23.843 -12.896   3.829  0.00  0.00    +0.013 C 
ATOM     17  C   LIG    1       24.046 -14.065   4.788  0.00  0.00    +0.093 C 
ENDBRANCH   7  17
ENDBRANCH   1   8
BRANCH   4  18
ATOM     18  C   LIG    1       27.174 -19.467   6.232  0.00  0.00    +0.089 C 
BRANCH  18  19
ATOM     19  C   LIG    1       26.599 -20.881   6.469  0.00  0.00    +0.050 C 
BRANCH  19  20
ATOM     20  C   LIG    1       25.121 -21.079   6.128  0.00  0.00    -0.046 A 
ATOM     21  C   LIG    1       24.097 -20.665   6.995  0.00  0.00    +0.003 A 
ATOM     22  C   LIG    1       22.758 -20.646   6.571  0.00  0.00    +0.000 A 
ATOM     23  C   LIG    1       22.422 -21.051   5.282  0.00  0.00    +0.000 A 
ATOM     24  C   LIG    1       23.415 -21.541   4.440  0.00  0.00    +0.000 A 
ATOM     25  C   LIG    1       24.750 -21.569   4.865  0.00  0.00    +0.003 A 
ENDBRANCH  19  20
ENDBRANCH  18  19
ENDBRANCH   4  18
TORSDOF 6
ENDMDL
MODEL 3
REMARK VINA RESULT:      -0.4      1.674      4.019
REMARK  Name = *****
REMARK                            x       y       z     vdW  Elec       q    Type
REMARK                         _______ _______ _______ _____ _____    ______ ____
ROOT
ATOM      1  C   LIG    1       25.111 -19.407   3.411  0.00  0.00    +0.084 C 
ATOM      2  C   LIG    1       23.576 -19.279   3.332  0.00  0.00    +0.038 C 
ATOM      3  C   LIG    1       23.060 -18.057   4.105  0.00  0.00    +0.086 C 
ATOM      4  N   LIG    1       23.594 -16.779   3.607  0.00  0.00    -0.302 NA
ATOM      5  C   LIG    1       25.067 -16.832   3.448  0.00  0.00    +0.086 C 
ATOM      6  C   LIG    1       25.663 -18.102   2.821  0.00  0.00    +0.038 C 
ENDROOT
BRANCH   1   8
ATOM      7  C   LIG    1       24.824 -20.601   5.684  0.00  0.00    +0.220 C 
ATOM      8  N   LIG    1       25.601 -19.879   4.763  0.00  0.00    -0.268 N 
ATOM      9  O   LIG    1       23.669 -20.999   5.440  0.00  0.00    -0.275 OA
BRANCH   8  10
ATOM     10  C   LIG    1       26.913 -19.422   5.128  0.00  0.00    +0.037 A 
ATOM     11  C   LIG    1       27.485 -18.295   4.522  0.00  0.00    +0.023 A 
ATOM     12  C   LIG    1       28.754 -17.850   4.909  0.00  0.00    +0.002 A 
ATOM     13  C   LIG    1       29.475 -18.548   5.877  0.00  0.00    +0.000 A 
ATOM     14  C   LIG    1       28.924 -19.683   6.468  0.00  0.00    +0.002 A 
ATOM     15  C   LIG    1       27.646 -20.112   6.101  0.00  0.00    +0.023 A 
ENDBRANCH   8  10
BRANCH   7  17
ATOM     16  C   LIG    1       26.792 -21.563   6.999  0.00  0.00    +0.013 C 
ATOM     17  C   LIG    1       25.408 -20.925   7.062  0.00  0.00    +0.093 C 
ENDBRANCH   7  17
ENDBRANCH   1   8
BRANCH   4  18
ATOM     18  C   LIG    1       23.283 -15.631   4.534  0.00  0.00    +0.089 C 
BRANCH  18  19
ATOM     19  C   LIG    1       23.607 -14.201   4.049  0.00  0.00    +0.050 C 
BRANCH  19  20
ATOM     20  C   LIG    1       25.086 -13.810   4.029  0.00  0.00    -0.046 A 
ATOM     21  C   LIG    1       25.802 -13.555   5.210  0.00  0.00    +0.003 A 
ATOM     22  C   LIG    1       27.201 -13.422   5.189  0.00  0.00    +0.000 A 
ATOM     23  C   LIG    1       27.900 -13.528   3.990  0.00  0.00    +0.000 A 
ATOM     24  C   LIG    1       27.196 -13.698   2.802  0.00  0.00    +0.000 A 
ATOM     25  C   LIG    1       25.800 -13.822   2.820  0.00  0.00    +0.003 A 
ENDBRANCH  19  20
ENDBRANCH  18  19
ENDBRANCH   4  18
TORSDOF 6
ENDMDL
MODEL 4
REMARK VINA RESULT:      -0.0      1.934      6.639
REMARK  Name = *****
REMARK                            x       y       z     vdW  Elec       q    Type
REMARK                         _______ _______ _______ _____ _____    ______ ____
ROOT
ATOM      1  C   LIG    1       22.677 -16.676   4.065  0.00  0.00    +0.084 C 
ATOM      2  C   LIG    1       22.288 -17.821   3.108  0.00  0.00    +0.038 C 
ATOM      3  C   LIG    1       23.129 -19.084   3.350  0.00  0.00    +0.086 C 
ATOM      4  N   LIG    1       22.987 -19.632   4.709  0.00  0.00    -0.302 NA
ATOM      5  C   LIG    1       23.147 -18.577   5.738  0.00  0.00    +0.086 C 
ATOM      6  C   LIG    1       22.456 -17.229   5.480  0.00  0.00    +0.038 C 
ENDROOT
BRANCH   1   8
ATOM      7  C   LIG    1       25.179 -16.741   3.422  0.00  0.00    +0.220 C 
ATOM      8  N   LIG    1       24.002 -16.032   3.716  0.00  0.00    -0.268 N 
ATOM      9  O   LIG    1       25.226 -17.983   3.340  0.00  0.00    -0.275 OA
BRANCH   8  10
ATOM     10  C   LIG    1       24.031 -14.601   3.830  0.00  0.00    +0.037 A 
ATOM     11  C   LIG    1       23.906 -13.968   5.074  0.00  0.00    +0.023 A 
ATOM     12  C   LIG    1       23.961 -12.572   5.168  0.00  0.00    +0.002 A 
ATOM     13  C   LIG    1       24.108 -11.799   4.016  0.00  0.00    +0.000 A 
ATOM     14  C   LIG    1       24.210 -12.419   2.773  0.00  0.00    +0.002 A 
ATOM     15  C   LIG    1       24.181 -13.813   2.682  0.00  0.00    +0.023 A 
ENDBRANCH   8  10
BRANCH   7  17
ATOM     16  C   LIG    1       27.382 -15.916   4.418  0.00  0.00    +0.013 C 
ATOM     17  C   LIG    1       26.479 -15.966   3.190  0.00  0.00    +0.093 C 
ENDBRANCH   7  17
ENDBRANCH   1   8
BRANCH   4  18
ATOM     18  C   LIG    1       24.007 -20.703   5.001  0.00  0.00    +0.089 C 
BRANCH  18  19
ATOM     19  C   LIG    1       24.791 -20.614   6.329  0.00  0.00    +0.050 C 
BRANCH  19  20
ATOM     20  C   LIG    1       26.316 -20.628   6.219  0.00  0.00    -0.046 A 
ATOM     21  C   LIG    1       27.018 -19.650   5.495  0.00  0.00    +0.003 A 
ATOM     22  C   LIG    1       28.416 -19.547   5.593  0.00  0.00    +0.000 A 
ATOM     23  C   LIG    1       29.132 -20.424   6.403  0.00  0.00    +0.000 A 
ATOM     24  C   LIG    1       28.458 -21.449   7.062  0.00  0.00    +0.000 A 
ATOM     25  C   LIG    1       27.065 -21.559   6.958  0.00  0.00    +0.003 A 
ENDBRANCH  19  20
ENDBRANCH  18  19
ENDBRANCH   4  18
TORSDOF 6
ENDMDL
