MODEL 1
REMARK VINA RESULT:      -8.9      0.000      0.000
REMARK  Name = *****
REMARK                            x       y       z     vdW  Elec       q    Type
REMARK                         _______ _______ _______ _____ _____    ______ ____
ROOT
ATOM      1  C   LIG    1       25.114 -21.179   6.663  0.00  0.00    +0.144 C 
ATOM      2  C   LIG    1       25.635 -20.660   5.320  0.00  0.00    +0.239 C 
ATOM      3  O   LIG    1       24.969 -20.672   4.284  0.00  0.00    -0.274 OA
ATOM      4  N   LIG    1       26.912 -20.171   5.288  0.00  0.00    -0.239 N 
ATOM      5  H   LIG    1       27.235 -19.825   4.395  0.00  0.00    +0.159 HD
ATOM      6  C   LIG    1       27.708 -19.911   6.358  0.00  0.00    +0.312 C 
ATOM      7  O   LIG    1       28.758 -19.293   6.240  0.00  0.00    -0.252 OA
ATOM      8  N   LIG    1       27.259 -20.330   7.569  0.00  0.00    -0.239 N 
ATOM      9  H   LIG    1       27.831 -20.088   8.363  0.00  0.00    +0.159 HD
ATOM     10  C   LIG    1       26.021 -20.839   7.848  0.00  0.00    +0.239 C 
ATOM     11  O   LIG    1       25.692 -21.000   9.023  0.00  0.00    -0.274 OA
ENDROOT
BRANCH   1  12
ATOM     12  C   LIG    1       25.023 -22.745   6.573  0.00  0.00    -0.050 C 
ATOM     13  C   LIG    1       23.661 -23.304   6.154  0.00  0.00    +0.032 C 
ATOM     14  C   LIG    1       23.310 -24.711   6.651  0.00  0.00    +0.004 C 
ATOM     15  C   LIG    1       23.963 -25.844   5.868  0.00  0.00    +0.001 C 
ATOM     16  C   LIG    1       25.437 -25.643   5.550  0.00  0.00    +0.004 C 
ATOM     17  C   LIG    1       26.230 -25.032   6.698  0.00  0.00    +0.027 C 
ATOM     18  C   LIG    1       26.079 -23.542   6.857  0.00  0.00    -0.026 C 
ENDBRANCH   1  12
BRANCH   1  20
ATOM     19  C   LIG    1       23.020 -19.978   5.675  0.00  0.00    +0.005 C 
ATOM     20  C   LIG    1       23.740 -20.482   6.923  0.00  0.00    +0.026 C 
ENDBRANCH   1  20
TORSDOF 2
ENDMDL
MODEL 2
REMARK VINA RESULT:      -8.9      2.824      4.830
REMARK  Name = *****
REMARK                            x       y       z     vdW  Elec       q    Type
REMARK                         _______ _______ _______ _____ _____    ______ ____
ROOT
ATOM      1  C   LIG    1       24.372 -22.474   6.722  0.00  0.00    +0.144 C 
ATOM      2  C   LIG    1       25.826 -22.905   6.513  0.00  0.00    +0.239 C 
ATOM      3  O   LIG    1       26.789 -22.175   6.746  0.00  0.00    -0.274 OA
ATOM      4  N   LIG    1       26.044 -24.166   6.032  0.00  0.00    -0.239 N 
ATOM      5  H   LIG    1       27.010 -24.436   5.909  0.00  0.00    +0.159 HD
ATOM      6  C   LIG    1       25.122 -25.156   5.902  0.00  0.00    +0.312 C 
ATOM      7  O   LIG    1       25.449 -26.308   5.648  0.00  0.00    -0.252 OA
ATOM      8  N   LIG    1       23.825 -24.813   6.113  0.00  0.00    -0.239 N 
ATOM      9  H   LIG    1       23.153 -25.563   6.065  0.00  0.00    +0.159 HD
ATOM     10  C   LIG    1       23.366 -23.620   6.599  0.00  0.00    +0.239 C 
ATOM     11  O   LIG    1       22.180 -23.520   6.915  0.00  0.00    -0.274 OA
ENDROOT
BRANCH   1  12
ATOM     12  C   LIG    1       24.018 -21.416   5.615  0.00  0.00    -0.050 C 
ATOM     13  C   LIG    1       23.039 -20.319   6.039  0.00  0.00    +0.032 C 
ATOM     14  C   LIG    1       22.183 -19.692   4.933  0.00  0.00    +0.004 C 
ATOM     15  C   LIG    1       22.904 -18.654   4.081  0.00  0.00    +0.001 C 
ATOM     16  C   LIG    1       24.308 -19.041   3.642  0.00  0.00    +0.004 C 
ATOM     17  C   LIG    1       24.436 -20.502   3.229  0.00  0.00    +0.027 C 
ATOM     18  C   LIG    1       24.540 -21.481   4.368  0.00  0.00    -0.026 C 
ENDBRANCH   1  12
BRANCH   1  20
ATOM     19  C   LIG    1       25.312 -20.881   8.562  0.00  0.00    +0.005 C 
ATOM     20  C   LIG    1       24.261 -21.921   8.180  0.00  0.00    +0.026 C 
ENDBRANCH   1  20
TORSDOF 2
ENDMDL
MODEL 3
REMARK VINA RESULT:      -8.6      2.590      4.843
REMARK  Name = *****
REMARK                            x       y       z     vdW  Elec       q    Type
REMARK                         _______ _______ _______ _____ _____    ______ ____
ROOT
ATOM      1  C   LIG    1       24.390 -20.864   5.871  0.00  0.00    +0.144 C 
ATOM      2  C   LIG    1       23.637 -21.143   7.175  0.00  0.00    +0.239 C 
ATOM      3  O   LIG    1       23.352 -20.268   7.993  0.00  0.00    -0.274 OA
ATOM      4  N   LIG    1       23.283 -22.438   7.431  0.00  0.00    -0.239 N 
ATOM      5  H   LIG    1       22.779 -22.602   8.292  0.00  0.00    +0.159 HD
ATOM      6  C   LIG    1       23.349 -23.483   6.565  0.00  0.00    +0.312 C 
ATOM      7  O   LIG    1       22.827 -24.561   6.820  0.00  0.00    -0.252 OA
ATOM      8  N   LIG    1       23.982 -23.259   5.384  0.00  0.00    -0.239 N 
ATOM      9  H   LIG    1       23.981 -24.024   4.727  0.00  0.00    +0.159 HD
ATOM     10  C   LIG    1       24.416 -22.053   4.909  0.00  0.00    +0.239 C 
ATOM     11  O   LIG    1       24.801 -21.975   3.742  0.00  0.00    -0.274 OA
ENDROOT
BRANCH   1  12
ATOM     12  C   LIG    1       25.879 -20.521   6.237  0.00  0.00    -0.050 C 
ATOM     13  C   LIG    1       26.346 -20.994   7.616  0.00  0.00    +0.032 C 
ATOM     14  C   LIG    1       27.468 -20.188   8.279  0.00  0.00    +0.004 C 
ATOM     15  C   LIG    1       28.866 -20.492   7.753  0.00  0.00    +0.001 C 
ATOM     16  C   LIG    1       28.979 -20.592   6.239  0.00  0.00    +0.004 C 
ATOM     17  C   LIG    1       28.160 -19.545   5.497  0.00  0.00    +0.027 C 
ATOM     18  C   LIG    1       26.688 -19.843   5.390  0.00  0.00    -0.026 C 
ENDBRANCH   1  12
BRANCH   1  20
ATOM     19  C   LIG    1       22.169 -19.979   4.826  0.00  0.00    +0.005 C 
ATOM     20  C   LIG    1       23.636 -19.703   5.145  0.00  0.00    +0.026 C 
ENDBRANCH   1  20
TORSDOF 2
ENDMDL
MODEL 4
REMARK VINA RESULT:      -8.5      2.518      4.446
REMARK  Name = *****
REMARK                            x       y       z     vdW  Elec       q    Type
REMARK                         _______ _______ _______ _____ _____    ______ ____
ROOT
ATOM      1  C   LIG    1       24.541 -21.803   6.355  0.00  0.00    +0.144 C 
ATOM      2  C   LIG    1       24.275 -21.968   4.857  0.00  0.00    +0.239 C 
ATOM      3  O   LIG    1       24.766 -22.870   4.177  0.00  0.00    -0.274 OA
ATOM      4  N   LIG    1       23.457 -21.051   4.258  0.00  0.00    -0.239 N 
ATOM      5  H   LIG    1       23.286 -21.181   3.271  0.00  0.00    +0.159 HD
ATOM      6  C   LIG    1       22.691 -20.118   4.883  0.00  0.00    +0.312 C 
ATOM      7  O   LIG    1       21.844 -19.474   4.277  0.00  0.00    -0.252 OA
ATOM      8  N   LIG    1       22.879 -19.969   6.220  0.00  0.00    -0.239 N 
ATOM      9  H   LIG    1       22.271 -19.312   6.684  0.00  0.00    +0.159 HD
ATOM     10  C   LIG    1       23.639 -20.767   7.030  0.00  0.00    +0.239 C 
ATOM     11  O   LIG    1       23.564 -20.623   8.250  0.00  0.00    -0.274 OA
ENDROOT
BRANCH   1  12
ATOM     12  C   LIG    1       26.025 -21.320   6.532  0.00  0.00    -0.050 C 
ATOM     13  C   LIG    1       26.422 -20.089   5.712  0.00  0.00    +0.032 C 
ATOM     14  C   LIG    1       27.901 -19.961   5.330  0.00  0.00    +0.004 C 
ATOM     15  C   LIG    1       28.805 -19.451   6.446  0.00  0.00    +0.001 C 
ATOM     16  C   LIG    1       28.564 -20.078   7.810  0.00  0.00    +0.004 C 
ATOM     17  C   LIG    1       28.295 -21.577   7.752  0.00  0.00    +0.027 C 
ATOM     18  C   LIG    1       26.896 -21.959   7.348  0.00  0.00    -0.026 C 
ENDBRANCH   1  12
BRANCH   1  20
ATOM     19  C   LIG    1       22.841 -23.734   6.783  0.00  0.00    +0.005 C 
ATOM     20  C   LIG    1       24.242 -23.180   7.030  0.00  0.00    +0.026 C 
ENDBRANCH   1  20
TORSDOF 2
ENDMDL
MODEL 5
REMARK VINA RESULT:      -8.3      2.559      4.401
REMARK  Name = *****
REMARK                            x       y       z     vdW  Elec       q    Type
REMARK                         _______ _______ _______ _____ _____    ______ ____
ROOT
ATOM      1  C   LIG    1       24.430 -21.680   6.325  0.00  0.00    +0.144 C 
ATOM      2  C   LIG    1       24.225 -21.840   4.816  0.00  0.00    +0.239 C 
ATOM      3  O   LIG    1       24.756 -22.729   4.151  0.00  0.00    -0.274 OA
ATOM      4  N   LIG    1       23.417 -20.930   4.192  0.00  0.00    -0.239 N 
ATOM      5  H   LIG    1       23.287 -21.057   3.198  0.00  0.00    +0.159 HD
ATOM      6  C   LIG    1       22.614 -20.013   4.793  0.00  0.00    +0.312 C 
ATOM      7  O   LIG    1       21.781 -19.377   4.159  0.00  0.00    -0.252 OA
ATOM      8  N   LIG    1       22.748 -19.870   6.137  0.00  0.00    -0.239 N 
ATOM      9  H   LIG    1       22.113 -19.225   6.581  0.00  0.00    +0.159 HD
ATOM     10  C   LIG    1       23.487 -20.663   6.971  0.00  0.00    +0.239 C 
ATOM     11  O   LIG    1       23.363 -20.528   8.188  0.00  0.00    -0.274 OA
ENDROOT
BRANCH   1  12
ATOM     12  C   LIG    1       25.899 -21.177   6.563  0.00  0.00    -0.050 C 
ATOM     13  C   LIG    1       26.630 -21.808   7.751  0.00  0.00    +0.032 C 
ATOM     14  C   LIG    1       27.725 -20.965   8.415  0.00  0.00    +0.004 C 
ATOM     15  C   LIG    1       29.054 -20.946   7.669  0.00  0.00    +0.001 C 
ATOM     16  C   LIG    1       28.946 -20.757   6.163  0.00  0.00    +0.004 C 
ATOM     17  C   LIG    1       27.893 -19.737   5.751  0.00  0.00    +0.027 C 
ATOM     18  C   LIG    1       26.474 -20.240   5.772  0.00  0.00    -0.026 C 
ENDBRANCH   1  12
BRANCH   1  20
ATOM     19  C   LIG    1       22.709 -23.593   6.758  0.00  0.00    +0.005 C 
ATOM     20  C   LIG    1       24.126 -23.067   6.980  0.00  0.00    +0.026 C 
ENDBRANCH   1  20
TORSDOF 2
ENDMDL
MODEL 6
REMARK VINA RESULT:      -8.2      2.219      5.073
REMARK  Name = *****
REMARK                            x       y       z     vdW  Elec       q    Type
REMARK                         _______ _______ _______ _____ _____    ______ ____
ROOT
ATOM      1  C   LIG    1       25.706 -21.544   6.899  0.00  0.00    +0.144 C 
ATOM      2  C   LIG    1       25.778 -22.722   7.875  0.00  0.00    +0.239 C 
ATOM      3  O   LIG    1       25.898 -22.586   9.093  0.00  0.00    -0.274 OA
ATOM      4  N   LIG    1       25.717 -23.981   7.345  0.00  0.00    -0.239 N 
ATOM      5  H   LIG    1       25.757 -24.746   8.005  0.00  0.00    +0.159 HD
ATOM      6  C   LIG    1       25.400 -24.308   6.065  0.00  0.00    +0.312 C 
ATOM      7  O   LIG    1       25.178 -25.466   5.735  0.00  0.00    -0.252 OA
ATOM      8  N   LIG    1       25.296 -23.282   5.181  0.00  0.00    -0.239 N 
ATOM      9  H   LIG    1       25.010 -23.529   4.245  0.00  0.00    +0.159 HD
ATOM     10  C   LIG    1       25.316 -21.947   5.475  0.00  0.00    +0.239 C 
ATOM     11  O   LIG    1       25.021 -21.137   4.596  0.00  0.00    -0.274 OA
ENDROOT
BRANCH   1  12
ATOM     12  C   LIG    1       27.131 -20.887   6.829  0.00  0.00    -0.050 C 
ATOM     13  C   LIG    1       27.249 -19.661   5.920  0.00  0.00    +0.032 C 
ATOM     14  C   LIG    1       28.628 -19.383   5.310  0.00  0.00    +0.004 C 
ATOM     15  C   LIG    1       29.620 -18.719   6.256  0.00  0.00    +0.001 C 
ATOM     16  C   LIG    1       29.664 -19.303   7.661  0.00  0.00    +0.004 C 
ATOM     17  C   LIG    1       29.572 -20.823   7.691  0.00  0.00    +0.027 C 
ATOM     18  C   LIG    1       28.184 -21.382   7.520  0.00  0.00    -0.026 C 
ENDBRANCH   1  12
BRANCH   1  20
ATOM     19  C   LIG    1       23.165 -21.110   7.304  0.00  0.00    +0.005 C 
ATOM     20  C   LIG    1       24.593 -20.580   7.423  0.00  0.00    +0.026 C 
ENDBRANCH   1  20
TORSDOF 2
ENDMDL
MODEL 7
REMARK VINA RESULT:      -8.1      1.734      3.231
REMARK  Name = *****
REMARK                            x       y       z     vdW  Elec       q    Type
REMARK                         _______ _______ _______ _____ _____    ______ ____
ROOT
ATOM      1  C   LIG    1       24.930 -20.959   6.429  0.00  0.00    +0.144 C 
ATOM      2  C   LIG    1       23.553 -20.490   6.906  0.00  0.00    +0.239 C 
ATOM      3  O   LIG    1       23.161 -20.612   8.067  0.00  0.00    -0.274 OA
ATOM      4  N   LIG    1       22.727 -19.918   5.978  0.00  0.00    -0.239 N 
ATOM      5  H   LIG    1       21.827 -19.606   6.314  0.00  0.00    +0.159 HD
ATOM      6  C   LIG    1       23.064 -19.538   4.717  0.00  0.00    +0.312 C 
ATOM      7  O   LIG    1       22.313 -18.858   4.030  0.00  0.00    -0.252 OA
ATOM      8  N   LIG    1       24.293 -19.912   4.275  0.00  0.00    -0.239 N 
ATOM      9  H   LIG    1       24.554 -19.582   3.358  0.00  0.00    +0.159 HD
ATOM     10  C   LIG    1       25.287 -20.486   5.018  0.00  0.00    +0.239 C 
ATOM     11  O   LIG    1       26.411 -20.596   4.528  0.00  0.00    -0.274 OA
ENDROOT
BRANCH   1  12
ATOM     12  C   LIG    1       24.925 -22.530   6.412  0.00  0.00    -0.050 C 
ATOM     13  C   LIG    1       23.593 -23.182   6.030  0.00  0.00    +0.032 C 
ATOM     14  C   LIG    1       23.322 -24.582   6.594  0.00  0.00    +0.004 C 
ATOM     15  C   LIG    1       24.033 -25.713   5.860  0.00  0.00    +0.001 C 
ATOM     16  C   LIG    1       25.492 -25.446   5.521  0.00  0.00    +0.004 C 
ATOM     17  C   LIG    1       26.256 -24.740   6.633  0.00  0.00    +0.027 C 
ATOM     18  C   LIG    1       26.024 -23.255   6.725  0.00  0.00    -0.026 C 
ENDBRANCH   1  12
BRANCH   1  20
ATOM     19  C   LIG    1       25.926 -20.855   8.837  0.00  0.00    +0.005 C 
ATOM     20  C   LIG    1       25.988 -20.344   7.400  0.00  0.00    +0.026 C 
ENDBRANCH   1  20
TORSDOF 2
ENDMDL
MODEL 8
REMARK VINA RESULT:      -8.0      1.946      4.139
REMARK  Name = *****
REMARK                            x       y       z     vdW  Elec       q    Type
REMARK                         _______ _______ _______ _____ _____    ______ ____
ROOT
ATOM      1  C   LIG    1       24.768 -21.727   7.010  0.00  0.00    +0.144 C 
ATOM      2  C   LIG    1       25.308 -20.772   8.078  0.00  0.00    +0.239 C 
ATOM      3  O   LIG    1       24.591 -20.032   8.750  0.00  0.00    -0.274 OA
ATOM      4  N   LIG    1       26.662 -20.747   8.271  0.00  0.00    -0.239 N 
ATOM      5  H   LIG    1       26.999 -20.117   8.986  0.00  0.00    +0.159 HD
ATOM      6  C   LIG    1       27.570 -21.619   7.760  0.00  0.00    +0.312 C 
ATOM      7  O   LIG    1       28.732 -21.634   8.146  0.00  0.00    -0.252 OA
ATOM      8  N   LIG    1       27.115 -22.501   6.833  0.00  0.00    -0.239 N 
ATOM      9  H   LIG    1       27.784 -23.177   6.497  0.00  0.00    +0.159 HD
ATOM     10  C   LIG    1       25.811 -22.713   6.481  0.00  0.00    +0.239 C 
ATOM     11  O   LIG    1       25.535 -23.676   5.765  0.00  0.00    -0.274 OA
ENDROOT
BRANCH   1  12
ATOM     12  C   LIG    1       24.277 -20.863   5.794  0.00  0.00    -0.050 C 
ATOM     13  C   LIG    1       22.960 -20.111   6.006  0.00  0.00    +0.032 C 
ATOM     14  C   LIG    1       22.126 -19.812   4.755  0.00  0.00    +0.004 C 
ATOM     15  C   LIG    1       22.616 -18.626   3.932  0.00  0.00    +0.001 C 
ATOM     16  C   LIG    1       24.120 -18.572   3.709  0.00  0.00    +0.004 C 
ATOM     17  C   LIG    1       24.743 -19.932   3.423  0.00  0.00    +0.027 C 
ATOM     18  C   LIG    1       24.970 -20.798   4.633  0.00  0.00    -0.026 C 
ENDBRANCH   1  12
BRANCH   1  20
ATOM     19  C   LIG    1       22.795 -23.410   6.719  0.00  0.00    +0.005 C 
ATOM     20  C   LIG    1       23.636 -22.572   7.680  0.00  0.00    +0.026 C 
ENDBRANCH   1  20
TORSDOF 2
ENDMDL
MODEL 9
REMARK VINA RESULT:      -7.9      1.655      2.605
REMARK  Name = *****
REMARK                            x       y       z     vdW  Elec       q    Type
REMARK                         _______ _______ _______ _____ _____    ______ ____
ROOT
ATOM      1  C   LIG    1       25.313 -22.069   6.776  0.00  0.00    +0.144 C 
ATOM      2  C   LIG    1       24.084 -21.396   6.159  0.00  0.00    +0.239 C 
ATOM      3  O   LIG    1       22.932 -21.612   6.537  0.00  0.00    -0.274 OA
ATOM      4  N   LIG    1       24.297 -20.522   5.129  0.00  0.00    -0.239 N 
ATOM      5  H   LIG    1       23.474 -20.081   4.741  0.00  0.00    +0.159 HD
ATOM      6  C   LIG    1       25.495 -20.030   4.717  0.00  0.00    +0.312 C 
ATOM      7  O   LIG    1       25.568 -19.106   3.918  0.00  0.00    -0.252 OA
ATOM      8  N   LIG    1       26.605 -20.584   5.270  0.00  0.00    -0.239 N 
ATOM      9  H   LIG    1       27.487 -20.179   4.997  0.00  0.00    +0.159 HD
ATOM     10  C   LIG    1       26.642 -21.468   6.313  0.00  0.00    +0.239 C 
ATOM     11  O   LIG    1       27.726 -21.738   6.829  0.00  0.00    -0.274 OA
ENDROOT
BRANCH   1  12
ATOM     12  C   LIG    1       25.303 -23.580   6.345  0.00  0.00    -0.050 C 
ATOM     13  C   LIG    1       25.640 -24.585   7.450  0.00  0.00    +0.032 C 
ATOM     14  C   LIG    1       26.267 -25.912   7.008  0.00  0.00    +0.004 C 
ATOM     15  C   LIG    1       25.277 -26.929   6.451  0.00  0.00    +0.001 C 
ATOM     16  C   LIG    1       24.253 -26.366   5.477  0.00  0.00    +0.004 C 
ATOM     17  C   LIG    1       24.833 -25.343   4.508  0.00  0.00    +0.027 C 
ATOM     18  C   LIG    1       25.025 -23.963   5.077  0.00  0.00    -0.026 C 
ENDBRANCH   1  12
BRANCH   1  20
ATOM     19  C   LIG    1       25.800 -20.533   8.827  0.00  0.00    +0.005 C 
ATOM     20  C   LIG    1       25.227 -21.855   8.322  0.00  0.00    +0.026 C 
ENDBRANCH   1  20
TORSDOF 2
ENDMDL
