MODEL 1
REMARK VINA RESULT:      -9.5      0.000      0.000
REMARK  Name = *****
REMARK                            x       y       z     vdW  Elec       q    Type
REMARK                         _______ _______ _______ _____ _____    ______ ____
ROOT
ATOM      1  N   LIG    1       26.926 -22.803   7.535  0.00  0.00    -0.084 NA
ATOM      2  C   LIG    1       25.779 -22.947   6.926  0.00  0.00    +0.118 C 
ENDROOT
BRANCH   2   3
ATOM      3  C   LIG    1       24.834 -21.844   6.505  0.00  0.00    +0.005 A 
ATOM      4  C   LIG    1       24.889 -21.294   5.219  0.00  0.00    +0.022 A 
ATOM      5  C   LIG    1       24.017 -20.262   4.826  0.00  0.00    +0.055 A 
ATOM      6  C   LIG    1       23.007 -19.849   5.704  0.00  0.00    +0.012 A 
ATOM      7  C   LIG    1       22.916 -20.410   6.975  0.00  0.00    +0.001 A 
ATOM      8  C   LIG    1       23.846 -21.369   7.387  0.00  0.00    +0.010 A 
BRANCH   5   9
ATOM      9  C   LIG    1       24.213 -19.597   3.486  0.00  0.00    +0.417 C 
ATOM     10  F   LIG    1       25.357 -18.862   3.426  0.00  0.00    -0.166 F 
ATOM     11  F   LIG    1       23.200 -18.738   3.185  0.00  0.00    -0.166 F 
ATOM     12  F   LIG    1       24.275 -20.474   2.445  0.00  0.00    -0.166 F 
ENDBRANCH   5   9
ENDBRANCH   2   3
BRANCH   2  13
ATOM     13  C   LIG    1       25.407 -24.372   6.608  0.00  0.00    +0.022 A 
ATOM     14  C   LIG    1       24.087 -24.765   6.410  0.00  0.00    +0.120 A 
ATOM     15  N   LIG    1       23.704 -26.025   6.089  0.00  0.00    -0.263 NA
ATOM     16  C   LIG    1       24.689 -26.932   5.913  0.00  0.00    +0.111 A 
ATOM     17  C   LIG    1       26.035 -26.641   6.065  0.00  0.00    +0.020 A 
ATOM     18  C   LIG    1       26.397 -25.343   6.423  0.00  0.00    +0.013 A 
ENDBRANCH   2  13
BRANCH   1  19
ATOM     19  O   LIG    1       27.295 -21.491   7.862  0.00  0.00    -0.393 OA
BRANCH  19  20
ATOM     20  C   LIG    1       28.657 -21.301   7.454  0.00  0.00    +0.263 C 
BRANCH  20  21
ATOM     21  C   LIG    1       28.744 -20.178   6.417  0.00  0.00    +0.044 C 
BRANCH  21  22
ATOM     22  C   LIG    1       30.007 -19.331   6.606  0.00  0.00    +0.014 C 
BRANCH  22  23
ATOM     23  C   LIG    1       30.103 -18.722   8.006  0.00  0.00    +0.120 C 
BRANCH  23  25
ATOM     24  O   LIG    1       32.056 -19.597   9.152  0.00  0.00    -0.251 OA
ATOM     25  C   LIG    1       31.537 -18.718   8.501  0.00  0.00    +0.305 C 
BRANCH  25  26
ATOM     26  O   LIG    1       32.205 -17.600   8.137  0.00  0.00    -0.481 OA
ATOM     27  H   LIG    1       33.123 -17.744   7.863  0.00  0.00    +0.295 HD
ENDBRANCH  25  26
ENDBRANCH  23  25
ENDBRANCH  22  23
ENDBRANCH  21  22
ENDBRANCH  20  21
ENDBRANCH  19  20
ENDBRANCH   1  19
TORSDOF 10
ENDMDL
MODEL 2
REMARK VINA RESULT:      -9.3      0.577      1.204
REMARK  Name = *****
REMARK                            x       y       z     vdW  Elec       q    Type
REMARK                         _______ _______ _______ _____ _____    ______ ____
ROOT
ATOM      1  N   LIG    1       26.986 -22.813   7.503  0.00  0.00    -0.084 NA
ATOM      2  C   LIG    1       25.856 -22.970   6.865  0.00  0.00    +0.118 C 
ENDROOT
BRANCH   2   3
ATOM      3  C   LIG    1       24.878 -21.884   6.476  0.00  0.00    +0.005 A 
ATOM      4  C   LIG    1       24.918 -21.295   5.206  0.00  0.00    +0.022 A 
ATOM      5  C   LIG    1       24.015 -20.278   4.842  0.00  0.00    +0.055 A 
ATOM      6  C   LIG    1       22.994 -19.921   5.731  0.00  0.00    +0.012 A 
ATOM      7  C   LIG    1       22.919 -20.521   6.985  0.00  0.00    +0.001 A 
ATOM      8  C   LIG    1       23.877 -21.464   7.370  0.00  0.00    +0.010 A 
BRANCH   5   9
ATOM      9  C   LIG    1       24.192 -19.570   3.522  0.00  0.00    +0.417 C 
ATOM     10  F   LIG    1       23.158 -18.734   3.231  0.00  0.00    -0.166 F 
ATOM     11  F   LIG    1       24.272 -20.442   2.478  0.00  0.00    -0.166 F 
ATOM     12  F   LIG    1       25.320 -18.810   3.456  0.00  0.00    -0.166 F 
ENDBRANCH   5   9
ENDBRANCH   2   3
BRANCH   2  13
ATOM     13  C   LIG    1       25.543 -24.391   6.475  0.00  0.00    +0.022 A 
ATOM     14  C   LIG    1       26.525 -25.374   6.408  0.00  0.00    +0.120 A 
ATOM     15  N   LIG    1       26.289 -26.672   6.096  0.00  0.00    -0.263 NA
ATOM     16  C   LIG    1       25.002 -27.020   5.883  0.00  0.00    +0.111 A 
ATOM     17  C   LIG    1       23.945 -26.125   5.944  0.00  0.00    +0.020 A 
ATOM     18  C   LIG    1       24.222 -24.791   6.239  0.00  0.00    +0.013 A 
ENDBRANCH   2  13
BRANCH   1  19
ATOM     19  O   LIG    1       27.299 -21.505   7.897  0.00  0.00    -0.393 OA
BRANCH  19  20
ATOM     20  C   LIG    1       28.667 -21.255   7.545  0.00  0.00    +0.263 C 
BRANCH  20  21
ATOM     21  C   LIG    1       28.742 -20.204   6.434  0.00  0.00    +0.044 C 
BRANCH  21  22
ATOM     22  C   LIG    1       29.950 -19.278   6.611  0.00  0.00    +0.014 C 
BRANCH  22  23
ATOM     23  C   LIG    1       30.082 -18.752   8.042  0.00  0.00    +0.120 C 
BRANCH  23  25
ATOM     24  O   LIG    1       32.067 -19.648   9.115  0.00  0.00    -0.251 OA
ATOM     25  C   LIG    1       31.531 -18.759   8.493  0.00  0.00    +0.305 C 
BRANCH  25  26
ATOM     26  O   LIG    1       32.191 -17.637   8.124  0.00  0.00    -0.481 OA
ATOM     27  H   LIG    1       32.332 -17.542   7.169  0.00  0.00    +0.295 HD
ENDBRANCH  25  26
ENDBRANCH  23  25
ENDBRANCH  22  23
ENDBRANCH  21  22
ENDBRANCH  20  21
ENDBRANCH  19  20
ENDBRANCH   1  19
TORSDOF 10
ENDMDL
MODEL 3
REMARK VINA RESULT:      -9.1      2.958      4.986
REMARK  Name = *****
REMARK                            x       y       z     vdW  Elec       q    Type
REMARK                         _______ _______ _______ _____ _____    ______ ____
ROOT
ATOM      1  N   LIG    1       26.458 -21.038   6.785  0.00  0.00    -0.084 NA
ATOM      2  C   LIG    1       25.401 -21.483   6.157  0.00  0.00    +0.118 C 
ENDROOT
BRANCH   2   3
ATOM      3  C   LIG    1       24.847 -22.888   6.203  0.00  0.00    +0.005 A 
ATOM      4  C   LIG    1       25.647 -23.993   5.888  0.00  0.00    +0.022 A 
ATOM      5  C   LIG    1       25.132 -25.303   5.921  0.00  0.00    +0.055 A 
ATOM      6  C   LIG    1       23.825 -25.513   6.375  0.00  0.00    +0.012 A 
ATOM      7  C   LIG    1       23.026 -24.427   6.725  0.00  0.00    +0.001 A 
ATOM      8  C   LIG    1       23.519 -23.125   6.600  0.00  0.00    +0.010 A 
BRANCH   5   9
ATOM      9  C   LIG    1       25.986 -26.445   5.428  0.00  0.00    +0.417 C 
ATOM     10  F   LIG    1       25.995 -26.549   4.072  0.00  0.00    -0.166 F 
ATOM     11  F   LIG    1       25.550 -27.650   5.892  0.00  0.00    -0.166 F 
ATOM     12  F   LIG    1       27.291 -26.355   5.807  0.00  0.00    -0.166 F 
ENDBRANCH   5   9
ENDBRANCH   2   3
BRANCH   2  13
ATOM     13  C   LIG    1       24.676 -20.452   5.332  0.00  0.00    +0.022 A 
ATOM     14  C   LIG    1       25.268 -19.830   4.238  0.00  0.00    +0.120 A 
ATOM     15  N   LIG    1       24.648 -18.922   3.444  0.00  0.00    -0.263 NA
ATOM     16  C   LIG    1       23.356 -18.652   3.729  0.00  0.00    +0.111 A 
ATOM     17  C   LIG    1       22.665 -19.229   4.782  0.00  0.00    +0.020 A 
ATOM     18  C   LIG    1       23.339 -20.138   5.598  0.00  0.00    +0.013 A 
ENDBRANCH   2  13
BRANCH   1  19
ATOM     19  O   LIG    1       27.167 -21.977   7.547  0.00  0.00    -0.393 OA
BRANCH  19  20
ATOM     20  C   LIG    1       28.503 -21.482   7.722  0.00  0.00    +0.263 C 
BRANCH  20  21
ATOM     21  C   LIG    1       28.707 -20.213   6.890  0.00  0.00    +0.044 C 
BRANCH  21  22
ATOM     22  C   LIG    1       30.160 -19.725   6.951  0.00  0.00    +0.014 C 
BRANCH  22  23
ATOM     23  C   LIG    1       30.318 -18.455   7.790  0.00  0.00    +0.120 C 
BRANCH  23  25
ATOM     24  O   LIG    1       32.113 -19.349   9.158  0.00  0.00    -0.251 OA
ATOM     25  C   LIG    1       31.656 -18.439   8.505  0.00  0.00    +0.305 C 
BRANCH  25  26
ATOM     26  O   LIG    1       32.313 -17.268   8.341  0.00  0.00    -0.481 OA
ATOM     27  H   LIG    1       33.119 -17.324   7.806  0.00  0.00    +0.295 HD
ENDBRANCH  25  26
ENDBRANCH  23  25
ENDBRANCH  22  23
ENDBRANCH  21  22
ENDBRANCH  20  21
ENDBRANCH  19  20
ENDBRANCH   1  19
TORSDOF 10
ENDMDL
MODEL 4
REMARK VINA RESULT:      -9.0      1.369      1.992
REMARK  Name = *****
REMARK                            x       y       z     vdW  Elec       q    Type
REMARK                         _______ _______ _______ _____ _____    ______ ____
ROOT
ATOM      1  N   LIG    1       26.371 -21.546   7.820  0.00  0.00    -0.084 NA
ATOM      2  C   LIG    1       25.629 -21.798   6.773  0.00  0.00    +0.118 C 
ENDROOT
BRANCH   2   3
ATOM      3  C   LIG    1       25.252 -20.826   5.678  0.00  0.00    +0.005 A 
ATOM      4  C   LIG    1       23.965 -20.279   5.607  0.00  0.00    +0.022 A 
ATOM      5  C   LIG    1       23.607 -19.380   4.585  0.00  0.00    +0.055 A 
ATOM      6  C   LIG    1       24.585 -18.947   3.681  0.00  0.00    +0.012 A 
ATOM      7  C   LIG    1       25.880 -19.455   3.758  0.00  0.00    +0.001 A 
ATOM      8  C   LIG    1       26.199 -20.417   4.722  0.00  0.00    +0.010 A 
BRANCH   5   9
ATOM      9  C   LIG    1       22.170 -18.936   4.461  0.00  0.00    +0.417 C 
ATOM     10  F   LIG    1       21.852 -17.937   5.329  0.00  0.00    -0.166 F 
ATOM     11  F   LIG    1       21.295 -19.948   4.718  0.00  0.00    -0.166 F 
ATOM     12  F   LIG    1       21.846 -18.474   3.221  0.00  0.00    -0.166 F 
ENDBRANCH   5   9
ENDBRANCH   2   3
BRANCH   2  13
ATOM     13  C   LIG    1       25.139 -23.218   6.672  0.00  0.00    +0.022 A 
ATOM     14  C   LIG    1       23.784 -23.534   6.650  0.00  0.00    +0.120 A 
ATOM     15  N   LIG    1       23.292 -24.791   6.527  0.00  0.00    -0.263 NA
ATOM     16  C   LIG    1       24.196 -25.782   6.373  0.00  0.00    +0.111 A 
ATOM     17  C   LIG    1       25.566 -25.577   6.361  0.00  0.00    +0.020 A 
ATOM     18  C   LIG    1       26.043 -24.275   6.519  0.00  0.00    +0.013 A 
ENDBRANCH   2  13
BRANCH   1  19
ATOM     19  O   LIG    1       26.828 -20.229   7.954  0.00  0.00    -0.393 OA
BRANCH  19  20
ATOM     20  C   LIG    1       28.237 -20.277   8.221  0.00  0.00    +0.263 C 
BRANCH  20  21
ATOM     21  C   LIG    1       29.017 -20.416   6.911  0.00  0.00    +0.044 C 
BRANCH  21  22
ATOM     22  C   LIG    1       29.997 -19.254   6.710  0.00  0.00    +0.014 C 
BRANCH  22  23
ATOM     23  C   LIG    1       30.183 -18.417   7.977  0.00  0.00    +0.120 C 
BRANCH  23  25
ATOM     24  O   LIG    1       32.065 -19.484   9.080  0.00  0.00    -0.251 OA
ATOM     25  C   LIG    1       31.604 -18.528   8.498  0.00  0.00    +0.305 C 
BRANCH  25  26
ATOM     26  O   LIG    1       32.333 -17.417   8.244  0.00  0.00    -0.481 OA
ATOM     27  H   LIG    1       31.903 -16.583   8.486  0.00  0.00    +0.295 HD
ENDBRANCH  25  26
ENDBRANCH  23  25
ENDBRANCH  22  23
ENDBRANCH  21  22
ENDBRANCH  20  21
ENDBRANCH  19  20
ENDBRANCH   1  19
TORSDOF 10
ENDMDL
MODEL 5
REMARK VINA RESULT:      -9.0      2.855      6.688
REMARK  Name = *****
REMARK                            x       y       z     vdW  Elec       q    Type
REMARK                         _______ _______ _______ _____ _____    ______ ____
ROOT
ATOM      1  N   LIG    1       26.704 -23.186   7.292  0.00  0.00    -0.084 NA
ATOM      2  C   LIG    1       26.578 -21.917   7.006  0.00  0.00    +0.118 C 
ENDROOT
BRANCH   2   3
ATOM      3  C   LIG    1       25.310 -21.203   6.598  0.00  0.00    +0.005 A 
ATOM      4  C   LIG    1       25.147 -20.701   5.301  0.00  0.00    +0.022 A 
ATOM      5  C   LIG    1       23.971 -20.028   4.919  0.00  0.00    +0.055 A 
ATOM      6  C   LIG    1       22.904 -19.949   5.822  0.00  0.00    +0.012 A 
ATOM      7  C   LIG    1       23.037 -20.473   7.106  0.00  0.00    +0.001 A 
ATOM      8  C   LIG    1       24.243 -21.058   7.503  0.00  0.00    +0.010 A 
BRANCH   5   9
ATOM      9  C   LIG    1       23.902 -19.373   3.561  0.00  0.00    +0.417 C 
ATOM     10  F   LIG    1       24.821 -18.382   3.408  0.00  0.00    -0.166 F 
ATOM     11  F   LIG    1       22.688 -18.797   3.330  0.00  0.00    -0.166 F 
ATOM     12  F   LIG    1       24.103 -20.237   2.527  0.00  0.00    -0.166 F 
ENDBRANCH   5   9
ENDBRANCH   2   3
BRANCH   2  13
ATOM     13  C   LIG    1       27.846 -21.113   7.130  0.00  0.00    +0.022 A 
ATOM     14  C   LIG    1       28.819 -21.406   8.081  0.00  0.00    +0.120 A 
ATOM     15  N   LIG    1       29.990 -20.735   8.211  0.00  0.00    -0.263 NA
ATOM     16  C   LIG    1       30.225 -19.749   7.318  0.00  0.00    +0.111 A 
ATOM     17  C   LIG    1       29.335 -19.389   6.320  0.00  0.00    +0.020 A 
ATOM     18  C   LIG    1       28.125 -20.079   6.229  0.00  0.00    +0.013 A 
ENDBRANCH   2  13
BRANCH   1  19
ATOM     19  O   LIG    1       25.547 -23.967   7.169  0.00  0.00    -0.393 OA
BRANCH  19  20
ATOM     20  C   LIG    1       25.691 -24.786   6.000  0.00  0.00    +0.263 C 
BRANCH  20  21
ATOM     21  C   LIG    1       24.370 -25.493   5.686  0.00  0.00    +0.044 C 
BRANCH  21  22
ATOM     22  C   LIG    1       24.375 -26.945   6.180  0.00  0.00    +0.014 C 
BRANCH  22  23
ATOM     23  C   LIG    1       25.146 -27.880   5.247  0.00  0.00    +0.120 C 
BRANCH  23  25
ATOM     24  O   LIG    1       25.349 -30.294   5.420  0.00  0.00    -0.251 OA
ATOM     25  C   LIG    1       24.648 -29.308   5.375  0.00  0.00    +0.305 C 
BRANCH  25  26
ATOM     26  O   LIG    1       23.299 -29.380   5.435  0.00  0.00    -0.481 OA
ATOM     27  H   LIG    1       22.952 -30.129   5.942  0.00  0.00    +0.295 HD
ENDBRANCH  25  26
ENDBRANCH  23  25
ENDBRANCH  22  23
ENDBRANCH  21  22
ENDBRANCH  20  21
ENDBRANCH  19  20
ENDBRANCH   1  19
TORSDOF 10
ENDMDL
MODEL 6
REMARK VINA RESULT:      -8.7      3.617      7.466
REMARK  Name = *****
REMARK                            x       y       z     vdW  Elec       q    Type
REMARK                         _______ _______ _______ _____ _____    ______ ____
ROOT
ATOM      1  N   LIG    1       24.711 -22.825   5.367  0.00  0.00    -0.084 NA
ATOM      2  C   LIG    1       25.157 -21.629   5.650  0.00  0.00    +0.118 C 
ENDROOT
BRANCH   2   3
ATOM      3  C   LIG    1       26.419 -21.291   6.410  0.00  0.00    +0.005 A 
ATOM      4  C   LIG    1       27.253 -20.243   6.000  0.00  0.00    +0.022 A 
ATOM      5  C   LIG    1       28.433 -19.930   6.700  0.00  0.00    +0.055 A 
ATOM      6  C   LIG    1       28.726 -20.613   7.887  0.00  0.00    +0.012 A 
ATOM      7  C   LIG    1       27.889 -21.635   8.328  0.00  0.00    +0.001 A 
ATOM      8  C   LIG    1       26.769 -21.999   7.574  0.00  0.00    +0.010 A 
BRANCH   5   9
ATOM      9  C   LIG    1       29.375 -18.895   6.136  0.00  0.00    +0.417 C 
ATOM     10  F   LIG    1       30.591 -19.412   5.810  0.00  0.00    -0.166 F 
ATOM     11  F   LIG    1       29.621 -17.888   7.020  0.00  0.00    -0.166 F 
ATOM     12  F   LIG    1       28.910 -18.290   5.008  0.00  0.00    -0.166 F 
ENDBRANCH   5   9
ENDBRANCH   2   3
BRANCH   2  13
ATOM     13  C   LIG    1       24.309 -20.499   5.128  0.00  0.00    +0.022 A 
ATOM     14  C   LIG    1       24.661 -19.770   3.996  0.00  0.00    +0.120 A 
ATOM     15  N   LIG    1       23.917 -18.768   3.468  0.00  0.00    -0.263 NA
ATOM     16  C   LIG    1       22.737 -18.507   4.072  0.00  0.00    +0.111 A 
ATOM     17  C   LIG    1       22.282 -19.184   5.191  0.00  0.00    +0.020 A 
ATOM     18  C   LIG    1       23.083 -20.191   5.729  0.00  0.00    +0.013 A 
ENDBRANCH   2  13
BRANCH   1  19
ATOM     19  O   LIG    1       25.467 -23.900   5.855  0.00  0.00    -0.393 OA
BRANCH  19  20
ATOM     20  C   LIG    1       25.130 -25.061   5.081  0.00  0.00    +0.263 C 
BRANCH  20  21
ATOM     21  C   LIG    1       24.434 -26.099   5.966  0.00  0.00    +0.044 C 
BRANCH  21  22
ATOM     22  C   LIG    1       25.427 -27.129   6.517  0.00  0.00    +0.014 C 
BRANCH  22  23
ATOM     23  C   LIG    1       25.323 -28.482   5.811  0.00  0.00    +0.120 C 
BRANCH  23  25
ATOM     24  O   LIG    1       23.926 -29.690   7.387  0.00  0.00    -0.251 OA
ATOM     25  C   LIG    1       24.096 -29.245   6.274  0.00  0.00    +0.305 C 
BRANCH  25  26
ATOM     26  O   LIG    1       23.177 -29.388   5.292  0.00  0.00    -0.481 OA
ATOM     27  H   LIG    1       22.950 -28.571   4.823  0.00  0.00    +0.295 HD
ENDBRANCH  25  26
ENDBRANCH  23  25
ENDBRANCH  22  23
ENDBRANCH  21  22
ENDBRANCH  20  21
ENDBRANCH  19  20
ENDBRANCH   1  19
TORSDOF 10
ENDMDL
MODEL 7
REMARK VINA RESULT:      -8.6      3.372      4.965
REMARK  Name = *****
REMARK                            x       y       z     vdW  Elec       q    Type
REMARK                         _______ _______ _______ _____ _____    ______ ____
ROOT
ATOM      1  N   LIG    1       23.179 -23.112   6.165  0.00  0.00    -0.084 NA
ATOM      2  C   LIG    1       24.450 -23.231   6.443  0.00  0.00    +0.118 C 
ENDROOT
BRANCH   2   3
ATOM      3  C   LIG    1       25.334 -22.193   7.098  0.00  0.00    +0.005 A 
ATOM      4  C   LIG    1       26.331 -21.529   6.373  0.00  0.00    +0.022 A 
ATOM      5  C   LIG    1       27.161 -20.569   6.981  0.00  0.00    +0.055 A 
ATOM      6  C   LIG    1       26.918 -20.197   8.309  0.00  0.00    +0.012 A 
ATOM      7  C   LIG    1       25.907 -20.823   9.035  0.00  0.00    +0.001 A 
ATOM      8  C   LIG    1       25.150 -21.841   8.447  0.00  0.00    +0.010 A 
BRANCH   5   9
ATOM      9  C   LIG    1       28.317 -19.991   6.203  0.00  0.00    +0.417 C 
ATOM     10  F   LIG    1       29.294 -20.906   5.956  0.00  0.00    -0.166 F 
ATOM     11  F   LIG    1       28.923 -18.967   6.866  0.00  0.00    -0.166 F 
ATOM     12  F   LIG    1       27.961 -19.486   4.989  0.00  0.00    -0.166 F 
ENDBRANCH   5   9
ENDBRANCH   2   3
BRANCH   2  13
ATOM     13  C   LIG    1       25.056 -24.561   6.077  0.00  0.00    +0.022 A 
ATOM     14  C   LIG    1       25.065 -25.036   4.770  0.00  0.00    +0.120 A 
ATOM     15  N   LIG    1       25.625 -26.209   4.385  0.00  0.00    -0.263 NA
ATOM     16  C   LIG    1       26.249 -26.926   5.344  0.00  0.00    +0.111 A 
ATOM     17  C   LIG    1       26.316 -26.535   6.672  0.00  0.00    +0.020 A 
ATOM     18  C   LIG    1       25.705 -25.338   7.043  0.00  0.00    +0.013 A 
ENDBRANCH   2  13
BRANCH   1  19
ATOM     19  O   LIG    1       22.589 -21.879   6.475  0.00  0.00    -0.393 OA
BRANCH  19  20
ATOM     20  C   LIG    1       22.380 -21.170   5.245  0.00  0.00    +0.263 C 
BRANCH  20  21
ATOM     21  C   LIG    1       22.678 -19.680   5.439  0.00  0.00    +0.044 C 
BRANCH  21  22
ATOM     22  C   LIG    1       22.686 -18.926   4.105  0.00  0.00    +0.014 C 
BRANCH  22  23
ATOM     23  C   LIG    1       23.889 -17.992   3.964  0.00  0.00    +0.120 C 
BRANCH  23  25
ATOM     24  O   LIG    1       25.204 -19.945   3.371  0.00  0.00    -0.251 OA
ATOM     25  C   LIG    1       25.101 -18.741   3.443  0.00  0.00    +0.305 C 
BRANCH  25  26
ATOM     26  O   LIG    1       26.093 -17.908   3.054  0.00  0.00    -0.481 OA
ATOM     27  H   LIG    1       25.942 -17.462   2.206  0.00  0.00    +0.295 HD
ENDBRANCH  25  26
ENDBRANCH  23  25
ENDBRANCH  22  23
ENDBRANCH  21  22
ENDBRANCH  20  21
ENDBRANCH  19  20
ENDBRANCH   1  19
TORSDOF 10
ENDMDL
MODEL 8
REMARK VINA RESULT:      -8.5      1.575      2.343
REMARK  Name = *****
REMARK                            x       y       z     vdW  Elec       q    Type
REMARK                         _______ _______ _______ _____ _____    ______ ____
ROOT
ATOM      1  N   LIG    1       26.030 -21.606   7.851  0.00  0.00    -0.084 NA
ATOM      2  C   LIG    1       25.439 -21.847   6.710  0.00  0.00    +0.118 C 
ENDROOT
BRANCH   2   3
ATOM      3  C   LIG    1       25.130 -20.844   5.622  0.00  0.00    +0.005 A 
ATOM      4  C   LIG    1       23.865 -20.252   5.521  0.00  0.00    +0.022 A 
ATOM      5  C   LIG    1       23.570 -19.325   4.504  0.00  0.00    +0.055 A 
ATOM      6  C   LIG    1       24.591 -18.909   3.640  0.00  0.00    +0.012 A 
ATOM      7  C   LIG    1       25.864 -19.462   3.749  0.00  0.00    +0.001 A 
ATOM      8  C   LIG    1       26.120 -20.451   4.704  0.00  0.00    +0.010 A 
BRANCH   5   9
ATOM      9  C   LIG    1       22.154 -18.830   4.343  0.00  0.00    +0.417 C 
ATOM     10  F   LIG    1       21.866 -18.468   3.063  0.00  0.00    -0.166 F 
ATOM     11  F   LIG    1       21.904 -17.730   5.107  0.00  0.00    -0.166 F 
ATOM     12  F   LIG    1       21.211 -19.747   4.696  0.00  0.00    -0.166 F 
ENDBRANCH   5   9
ENDBRANCH   2   3
BRANCH   2  13
ATOM     13  C   LIG    1       25.062 -23.288   6.486  0.00  0.00    +0.022 A 
ATOM     14  C   LIG    1       26.015 -24.273   6.242  0.00  0.00    +0.120 A 
ATOM     15  N   LIG    1       25.730 -25.587   6.068  0.00  0.00    -0.263 NA
ATOM     16  C   LIG    1       24.434 -25.947   6.186  0.00  0.00    +0.111 A 
ATOM     17  C   LIG    1       23.410 -25.051   6.447  0.00  0.00    +0.020 A 
ATOM     18  C   LIG    1       23.730 -23.701   6.593  0.00  0.00    +0.013 A 
ENDBRANCH   2  13
BRANCH   1  19
ATOM     19  O   LIG    1       26.377 -20.271   8.100  0.00  0.00    -0.393 OA
BRANCH  19  20
ATOM     20  C   LIG    1       27.792 -20.220   8.332  0.00  0.00    +0.263 C 
BRANCH  20  21
ATOM     21  C   LIG    1       28.525 -19.847   7.040  0.00  0.00    +0.044 C 
BRANCH  21  22
ATOM     22  C   LIG    1       29.698 -18.897   7.310  0.00  0.00    +0.014 C 
BRANCH  22  23
ATOM     23  C   LIG    1       31.015 -19.640   7.541  0.00  0.00    +0.120 C 
BRANCH  23  25
ATOM     24  O   LIG    1       30.828 -19.090   9.899  0.00  0.00    -0.251 OA
ATOM     25  C   LIG    1       31.312 -19.771   9.023  0.00  0.00    +0.305 C 
BRANCH  25  26
ATOM     26  O   LIG    1       32.203 -20.755   9.285  0.00  0.00    -0.481 OA
ATOM     27  H   LIG    1       32.332 -21.390   8.564  0.00  0.00    +0.295 HD
ENDBRANCH  25  26
ENDBRANCH  23  25
ENDBRANCH  22  23
ENDBRANCH  21  22
ENDBRANCH  20  21
ENDBRANCH  19  20
ENDBRANCH   1  19
TORSDOF 10
ENDMDL
MODEL 9
REMARK VINA RESULT:      -8.4      3.974      6.023
REMARK  Name = *****
REMARK                            x       y       z     vdW  Elec       q    Type
REMARK                         _______ _______ _______ _____ _____    ______ ____
ROOT
ATOM      1  N   LIG    1       26.106 -19.932   4.763  0.00  0.00    -0.084 NA
ATOM      2  C   LIG    1       26.189 -20.775   5.757  0.00  0.00    +0.118 C 
ENDROOT
BRANCH   2   3
ATOM      3  C   LIG    1       25.179 -21.837   6.130  0.00  0.00    +0.005 A 
ATOM      4  C   LIG    1       25.480 -23.198   6.004  0.00  0.00    +0.022 A 
ATOM      5  C   LIG    1       24.539 -24.190   6.342  0.00  0.00    +0.055 A 
ATOM      6  C   LIG    1       23.318 -23.808   6.911  0.00  0.00    +0.012 A 
ATOM      7  C   LIG    1       23.017 -22.459   7.076  0.00  0.00    +0.001 A 
ATOM      8  C   LIG    1       23.922 -21.481   6.651  0.00  0.00    +0.010 A 
BRANCH   5   9
ATOM      9  C   LIG    1       24.852 -25.636   6.048  0.00  0.00    +0.417 C 
ATOM     10  F   LIG    1       23.748 -26.431   6.087  0.00  0.00    -0.166 F 
ATOM     11  F   LIG    1       25.726 -26.166   6.948  0.00  0.00    -0.166 F 
ATOM     12  F   LIG    1       25.415 -25.835   4.824  0.00  0.00    -0.166 F 
ENDBRANCH   5   9
ENDBRANCH   2   3
BRANCH   2  13
ATOM     13  C   LIG    1       27.446 -20.661   6.579  0.00  0.00    +0.022 A 
ATOM     14  C   LIG    1       27.645 -21.407   7.737  0.00  0.00    +0.120 A 
ATOM     15  N   LIG    1       28.770 -21.365   8.491  0.00  0.00    -0.263 NA
ATOM     16  C   LIG    1       29.769 -20.572   8.046  0.00  0.00    +0.111 A 
ATOM     17  C   LIG    1       29.684 -19.803   6.897  0.00  0.00    +0.020 A 
ATOM     18  C   LIG    1       28.502 -19.845   6.156  0.00  0.00    +0.013 A 
ENDBRANCH   2  13
BRANCH   1  19
ATOM     19  O   LIG    1       24.939 -19.998   3.989  0.00  0.00    -0.393 OA
BRANCH  19  20
ATOM     20  C   LIG    1       24.524 -18.655   3.701  0.00  0.00    +0.263 C 
BRANCH  20  21
ATOM     21  C   LIG    1       25.671 -17.879   3.048  0.00  0.00    +0.044 C 
BRANCH  21  22
ATOM     22  C   LIG    1       25.656 -16.401   3.454  0.00  0.00    +0.014 C 
BRANCH  22  23
ATOM     23  C   LIG    1       27.061 -15.837   3.671  0.00  0.00    +0.120 C 
BRANCH  23  25
ATOM     24  O   LIG    1       26.845 -14.191   1.899  0.00  0.00    -0.251 OA
ATOM     25  C   LIG    1       27.208 -14.475   3.018  0.00  0.00    +0.305 C 
BRANCH  25  26
ATOM     26  O   LIG    1       27.807 -13.575   3.832  0.00  0.00    -0.481 OA
ATOM     27  H   LIG    1       28.772 -13.647   3.878  0.00  0.00    +0.295 HD
ENDBRANCH  25  26
ENDBRANCH  23  25
ENDBRANCH  22  23
ENDBRANCH  21  22
ENDBRANCH  20  21
ENDBRANCH  19  20
ENDBRANCH   1  19
TORSDOF 10
ENDMDL
