MODEL 1
REMARK VINA RESULT:      12.7      0.000      0.000
REMARK  Name = *****
REMARK                            x       y       z     vdW  Elec       q    Type
REMARK                         _______ _______ _______ _____ _____    ______ ____
ROOT
ATOM      1  C   LIG    1       26.464 -19.111   4.583  0.00  0.00    +0.061 A 
ATOM      2  C   LIG    1       25.184 -19.501   4.137  0.00  0.00    +0.049 A 
ATOM      3  I   LIG    1       24.693 -21.572   4.162  0.00  0.00    -0.041 I 
ATOM      4  C   LIG    1       24.243 -18.525   3.745  0.00  0.00    +0.066 A 
ATOM      5  C   LIG    1       24.606 -17.151   3.833  0.00  0.00    +0.040 A 
ATOM      6  I   LIG    1       23.056 -15.664   4.009  0.00  0.00    -0.042 I 
ATOM      7  C   LIG    1       25.950 -16.745   4.059  0.00  0.00    +0.065 A 
ATOM      8  C   LIG    1       26.875 -17.759   4.439  0.00  0.00    +0.049 A 
ATOM      9  I   LIG    1       29.020 -17.424   4.576  0.00  0.00    -0.041 I 
ENDROOT
BRANCH   1  11
ATOM     10  C   LIG    1       26.998 -20.584   6.446  0.00  0.00    +0.243 C 
ATOM     11  N   LIG    1       27.346 -20.065   5.192  0.00  0.00    -0.282 N 
ATOM     12  H   LIG    1       27.742 -20.775   4.582  0.00  0.00    +0.155 HD
ATOM     13  O   LIG    1       25.957 -20.284   7.036  0.00  0.00    -0.273 OA
BRANCH  10  14
ATOM     14  C   LIG    1       28.035 -21.543   7.062  0.00  0.00    +0.255 C 
BRANCH  14  16
ATOM     15  C   LIG    1       29.475 -19.847   6.288  0.00  0.00    +0.194 C 
ATOM     16  O   LIG    1       29.367 -21.051   7.048  0.00  0.00    -0.374 OA
ENDBRANCH  14  16
ENDBRANCH  10  14
ENDBRANCH   1  11
BRANCH   4  17
ATOM     17  C   LIG    1       22.860 -18.952   3.347  0.00  0.00    +0.248 C 
ATOM     18  N   LIG    1       21.930 -19.315   4.334  0.00  0.00    -0.298 N 
ATOM     19  C   LIG    1       22.203 -19.351   5.761  0.00  0.00    +0.132 C 
ATOM     20  O   LIG    1       22.576 -18.960   2.151  0.00  0.00    -0.270 OA
BRANCH  18  21
ATOM     21  C   LIG    1       20.616 -19.848   3.927  0.00  0.00    +0.141 C 
BRANCH  21  22
ATOM     22  C   LIG    1       19.558 -18.770   3.610  0.00  0.00    +0.157 C 
BRANCH  22  23
ATOM     23  O   LIG    1       19.976 -17.533   4.208  0.00  0.00    -0.388 OA
ATOM     24  H   LIG    1       19.250 -16.899   4.033  0.00  0.00    +0.210 HD
ENDBRANCH  22  23
BRANCH  22  25
ATOM     25  C   LIG    1       19.364 -18.532   2.116  0.00  0.00    +0.188 C 
BRANCH  25  26
ATOM     26  O   LIG    1       19.554 -17.150   1.815  0.00  0.00    -0.392 OA
ATOM     27  H   LIG    1       20.521 -17.018   1.708  0.00  0.00    +0.209 HD
ENDBRANCH  25  26
ENDBRANCH  22  25
ENDBRANCH  21  22
ENDBRANCH  18  21
ENDBRANCH   4  17
BRANCH   7  28
ATOM     28  C   LIG    1       26.349 -15.293   3.841  0.00  0.00    +0.246 C 
ATOM     29  N   LIG    1       26.217 -14.808   2.567  0.00  0.00    -0.309 N 
ATOM     30  H   LIG    1       25.580 -15.314   1.934  0.00  0.00    +0.149 HD
ATOM     31  O   LIG    1       26.756 -14.581   4.785  0.00  0.00    -0.270 OA
BRANCH  29  32
ATOM     32  C   LIG    1       26.459 -13.423   2.177  0.00  0.00    +0.138 C 
BRANCH  32  33
ATOM     33  C   LIG    1       25.166 -12.591   2.177  0.00  0.00    +0.157 C 
BRANCH  33  34
ATOM     34  O   LIG    1       24.034 -13.410   1.820  0.00  0.00    -0.388 OA
ATOM     35  H   LIG    1       23.250 -13.051   2.272  0.00  0.00    +0.210 HD
ENDBRANCH  33  34
BRANCH  33  36
ATOM     36  C   LIG    1       24.888 -11.988   3.554  0.00  0.00    +0.188 C 
BRANCH  36  37
ATOM     37  O   LIG    1       23.971 -12.806   4.280  0.00  0.00    -0.392 OA
ATOM     38  H   LIG    1       23.128 -12.313   4.319  0.00  0.00    +0.209 HD
ENDBRANCH  36  37
ENDBRANCH  33  36
ENDBRANCH  32  33
ENDBRANCH  29  32
ENDBRANCH   7  28
TORSDOF 15
ENDMDL
MODEL 2
REMARK VINA RESULT:      13.9      1.538      5.847
REMARK  Name = *****
REMARK                            x       y       z     vdW  Elec       q    Type
REMARK                         _______ _______ _______ _____ _____    ______ ____
ROOT
ATOM      1  C   LIG    1       23.317 -17.776   3.498  0.00  0.00    +0.061 A 
ATOM      2  C   LIG    1       24.070 -18.838   4.041  0.00  0.00    +0.049 A 
ATOM      3  I   LIG    1       23.113 -20.719   4.312  0.00  0.00    -0.041 I 
ATOM      4  C   LIG    1       25.439 -18.658   4.334  0.00  0.00    +0.066 A 
ATOM      5  C   LIG    1       26.040 -17.399   4.049  0.00  0.00    +0.040 A 
ATOM      6  I   LIG    1       28.169 -17.298   3.735  0.00  0.00    -0.042 I 
ATOM      7  C   LIG    1       25.261 -16.256   3.719  0.00  0.00    +0.065 A 
ATOM      8  C   LIG    1       23.880 -16.473   3.444  0.00  0.00    +0.049 A 
ATOM      9  I   LIG    1       22.450 -14.856   3.182  0.00  0.00    -0.041 I 
ENDROOT
BRANCH   1  11
ATOM     10  C   LIG    1       20.914 -17.865   3.869  0.00  0.00    +0.243 C 
ATOM     11  N   LIG    1       21.995 -18.004   2.989  0.00  0.00    -0.282 N 
ATOM     12  H   LIG    1       21.789 -17.626   2.069  0.00  0.00    +0.155 HD
ATOM     13  O   LIG    1       21.041 -17.526   5.048  0.00  0.00    -0.273 OA
BRANCH  10  14
ATOM     14  C   LIG    1       19.537 -18.199   3.263  0.00  0.00    +0.255 C 
BRANCH  14  16
ATOM     15  C   LIG    1       19.618 -20.404   4.085  0.00  0.00    +0.194 C 
ATOM     16  O   LIG    1       19.352 -19.573   2.956  0.00  0.00    -0.374 OA
ENDBRANCH  14  16
ENDBRANCH  10  14
ENDBRANCH   1  11
BRANCH   4  17
ATOM     17  C   LIG    1       26.244 -19.821   4.839  0.00  0.00    +0.248 C 
ATOM     18  N   LIG    1       25.888 -20.444   6.045  0.00  0.00    -0.298 N 
ATOM     19  C   LIG    1       24.790 -20.029   6.904  0.00  0.00    +0.132 C 
ATOM     20  O   LIG    1       27.196 -20.205   4.164  0.00  0.00    -0.270 OA
BRANCH  18  21
ATOM     21  C   LIG    1       26.753 -21.505   6.593  0.00  0.00    +0.141 C 
BRANCH  21  22
ATOM     22  C   LIG    1       28.142 -21.022   7.062  0.00  0.00    +0.157 C 
BRANCH  22  23
ATOM     23  O   LIG    1       29.134 -21.568   6.179  0.00  0.00    -0.388 OA
ATOM     24  H   LIG    1       29.987 -21.470   6.651  0.00  0.00    +0.210 HD
ENDBRANCH  22  23
BRANCH  22  25
ATOM     25  C   LIG    1       28.288 -19.503   7.056  0.00  0.00    +0.188 C 
BRANCH  25  26
ATOM     26  O   LIG    1       28.688 -19.057   5.760  0.00  0.00    -0.392 OA
ATOM     27  H   LIG    1       28.264 -19.664   5.114  0.00  0.00    +0.209 HD
ENDBRANCH  25  26
ENDBRANCH  22  25
ENDBRANCH  21  22
ENDBRANCH  18  21
ENDBRANCH   4  17
BRANCH   7  28
ATOM     28  C   LIG    1       25.902 -14.875   3.726  0.00  0.00    +0.246 C 
ATOM     29  N   LIG    1       25.360 -13.946   2.879  0.00  0.00    -0.309 N 
ATOM     30  H   LIG    1       24.399 -14.114   2.548  0.00  0.00    +0.149 HD
ATOM     31  O   LIG    1       26.860 -14.607   4.484  0.00  0.00    -0.270 OA
BRANCH  29  32
ATOM     32  C   LIG    1       25.773 -12.549   2.807  0.00  0.00    +0.138 C 
BRANCH  32  33
ATOM     33  C   LIG    1       24.692 -11.600   3.349  0.00  0.00    +0.157 C 
BRANCH  33  34
ATOM     34  O   LIG    1       23.588 -11.507   2.427  0.00  0.00    -0.388 OA
ATOM     35  H   LIG    1       23.687 -10.680   1.923  0.00  0.00    +0.210 HD
ENDBRANCH  33  34
BRANCH  33  36
ATOM     36  C   LIG    1       24.140 -12.088   4.688  0.00  0.00    +0.188 C 
BRANCH  36  37
ATOM     37  O   LIG    1       25.204 -12.346   5.603  0.00  0.00    -0.392 OA
ATOM     38  H   LIG    1       25.403 -11.498   6.046  0.00  0.00    +0.209 HD
ENDBRANCH  36  37
ENDBRANCH  33  36
ENDBRANCH  32  33
ENDBRANCH  29  32
ENDBRANCH   7  28
TORSDOF 15
ENDMDL
MODEL 3
REMARK VINA RESULT:      14.3      1.996      6.598
REMARK  Name = *****
REMARK                            x       y       z     vdW  Elec       q    Type
REMARK                         _______ _______ _______ _____ _____    ______ ____
ROOT
ATOM      1  C   LIG    1       23.952 -17.953   3.668  0.00  0.00    +0.061 A 
ATOM      2  C   LIG    1       23.850 -16.597   3.297  0.00  0.00    +0.049 A 
ATOM      3  I   LIG    1       21.982 -15.887   2.565  0.00  0.00    -0.041 I 
ATOM      4  C   LIG    1       24.951 -15.731   3.470  0.00  0.00    +0.066 A 
ATOM      5  C   LIG    1       26.146 -16.250   4.044  0.00  0.00    +0.040 A 
ATOM      6  I   LIG    1       27.513 -14.903   5.024  0.00  0.00    -0.042 I 
ATOM      7  C   LIG    1       26.349 -17.648   4.213  0.00  0.00    +0.065 A 
ATOM      8  C   LIG    1       25.219 -18.492   4.016  0.00  0.00    +0.049 A 
ATOM      9  I   LIG    1       25.351 -20.662   3.958  0.00  0.00    -0.041 I 
ENDROOT
BRANCH   1  11
ATOM     10  C   LIG    1       22.124 -18.943   4.934  0.00  0.00    +0.243 C 
ATOM     11  N   LIG    1       22.786 -18.788   3.708  0.00  0.00    -0.282 N 
ATOM     12  H   LIG    1       22.136 -18.703   2.932  0.00  0.00    +0.155 HD
ATOM     13  O   LIG    1       22.476 -18.373   5.969  0.00  0.00    -0.273 OA
BRANCH  10  14
ATOM     14  C   LIG    1       20.927 -19.913   4.907  0.00  0.00    +0.255 C 
BRANCH  14  16
ATOM     15  C   LIG    1       22.397 -21.569   5.711  0.00  0.00    +0.194 C 
ATOM     16  O   LIG    1       21.289 -21.286   4.857  0.00  0.00    -0.374 OA
ENDBRANCH  14  16
ENDBRANCH  10  14
ENDBRANCH   1  11
BRANCH   4  17
ATOM     17  C   LIG    1       24.802 -14.273   3.142  0.00  0.00    +0.248 C 
ATOM     18  N   LIG    1       25.915 -13.539   2.702  0.00  0.00    -0.298 N 
ATOM     19  C   LIG    1       27.261 -14.071   2.563  0.00  0.00    +0.132 C 
ATOM     20  O   LIG    1       23.690 -13.763   3.258  0.00  0.00    -0.270 OA
BRANCH  18  21
ATOM     21  C   LIG    1       25.786 -12.084   2.498  0.00  0.00    +0.141 C 
BRANCH  21  22
ATOM     22  C   LIG    1       24.557 -11.448   3.181  0.00  0.00    +0.157 C 
BRANCH  22  23
ATOM     23  O   LIG    1       23.419 -11.621   2.321  0.00  0.00    -0.388 OA
ATOM     24  H   LIG    1       23.466 -10.888   1.673  0.00  0.00    +0.210 HD
ENDBRANCH  22  23
BRANCH  22  25
ATOM     25  C   LIG    1       24.227 -12.069   4.534  0.00  0.00    +0.188 C 
BRANCH  25  26
ATOM     26  O   LIG    1       23.004 -11.527   5.033  0.00  0.00    -0.392 OA
ATOM     27  H   LIG    1       23.207 -11.148   5.916  0.00  0.00    +0.209 HD
ENDBRANCH  25  26
ENDBRANCH  22  25
ENDBRANCH  21  22
ENDBRANCH  18  21
ENDBRANCH   4  17
BRANCH   7  28
ATOM     28  C   LIG    1       27.739 -18.177   4.536  0.00  0.00    +0.246 C 
ATOM     29  N   LIG    1       27.860 -19.534   4.668  0.00  0.00    -0.309 N 
ATOM     30  H   LIG    1       27.127 -20.117   4.240  0.00  0.00    +0.149 HD
ATOM     31  O   LIG    1       28.718 -17.407   4.651  0.00  0.00    -0.270 OA
BRANCH  29  32
ATOM     32  C   LIG    1       29.120 -20.238   4.885  0.00  0.00    +0.138 C 
BRANCH  32  33
ATOM     33  C   LIG    1       29.473 -20.339   6.378  0.00  0.00    +0.157 C 
BRANCH  33  34
ATOM     34  O   LIG    1       29.156 -19.110   7.060  0.00  0.00    -0.388 OA
ATOM     35  H   LIG    1       28.198 -19.104   7.238  0.00  0.00    +0.210 HD
ENDBRANCH  33  34
BRANCH  33  36
ATOM     36  C   LIG    1       28.697 -21.464   7.061  0.00  0.00    +0.188 C 
BRANCH  36  37
ATOM     37  O   LIG    1       27.339 -21.470   6.625  0.00  0.00    -0.392 OA
ATOM     38  H   LIG    1       26.997 -22.371   6.788  0.00  0.00    +0.209 HD
ENDBRANCH  36  37
ENDBRANCH  33  36
ENDBRANCH  32  33
ENDBRANCH  29  32
ENDBRANCH   7  28
TORSDOF 15
ENDMDL
