MODEL 1
REMARK VINA RESULT:      -4.7      0.000      0.000
REMARK  Name = *****
REMARK                            x       y       z     vdW  Elec       q    Type
REMARK                         _______ _______ _______ _____ _____    ______ ____
ROOT
ATOM      1  C   LIG    1       25.159 -13.751   3.542  0.00  0.00    +0.126 C 
ATOM      2  C   LIG    1       25.154 -12.723   4.676  0.00  0.00    +0.236 C 
ATOM      3  O   LIG    1       24.217 -11.965   4.918  0.00  0.00    -0.274 OA
ATOM      4  N   LIG    1       26.254 -12.723   5.487  0.00  0.00    -0.239 N 
ATOM      5  H   LIG    1       26.234 -12.050   6.243  0.00  0.00    +0.159 HD
ATOM      6  C   LIG    1       27.502 -13.050   5.058  0.00  0.00    +0.312 C 
ATOM      7  O   LIG    1       28.504 -12.624   5.623  0.00  0.00    -0.252 OA
ATOM      8  N   LIG    1       27.589 -13.777   3.914  0.00  0.00    -0.239 N 
ATOM      9  H   LIG    1       28.525 -13.865   3.540  0.00  0.00    +0.159 HD
ATOM     10  C   LIG    1       26.582 -13.866   2.991  0.00  0.00    +0.236 C 
ATOM     11  O   LIG    1       26.849 -14.084   1.812  0.00  0.00    -0.274 OA
ENDROOT
BRANCH   1  12
ATOM     12  C   LIG    1       24.767 -15.159   4.168  0.00  0.00    +0.010 C 
ATOM     13  C   LIG    1       23.251 -15.291   4.412  0.00  0.00    +0.009 C 
BRANCH  12  14
ATOM     14  C   LIG    1       25.284 -16.361   3.327  0.00  0.00    +0.004 C 
BRANCH  14  16
ATOM     15  C   LIG    1       25.646 -18.838   3.640  0.00  0.00    +0.004 C 
ATOM     16  C   LIG    1       24.631 -17.705   3.673  0.00  0.00    -0.003 C 
ENDBRANCH  14  16
ENDBRANCH  12  14
ENDBRANCH   1  12
BRANCH   1  17
ATOM     17  C   LIG    1       24.175 -13.322   2.420  0.00  0.00    +0.022 C 
ATOM     18  C   LIG    1       24.438 -11.940   1.819  0.00  0.00    +0.005 C 
ENDBRANCH   1  17
TORSDOF 4
ENDMDL
MODEL 2
REMARK VINA RESULT:      -3.7      1.656      2.121
REMARK  Name = *****
REMARK                            x       y       z     vdW  Elec       q    Type
REMARK                         _______ _______ _______ _____ _____    ______ ____
ROOT
ATOM      1  C   LIG    1       25.967 -14.303   3.794  0.00  0.00    +0.126 C 
ATOM      2  C   LIG    1       26.785 -13.942   5.036  0.00  0.00    +0.236 C 
ATOM      3  O   LIG    1       26.373 -14.046   6.190  0.00  0.00    -0.274 OA
ATOM      4  N   LIG    1       28.072 -13.542   4.809  0.00  0.00    -0.239 N 
ATOM      5  H   LIG    1       28.609 -13.320   5.638  0.00  0.00    +0.159 HD
ATOM      6  C   LIG    1       28.464 -12.876   3.691  0.00  0.00    +0.312 C 
ATOM      7  O   LIG    1       29.451 -12.147   3.694  0.00  0.00    -0.252 OA
ATOM      8  N   LIG    1       27.653 -12.967   2.605  0.00  0.00    -0.239 N 
ATOM      9  H   LIG    1       27.889 -12.338   1.848  0.00  0.00    +0.159 HD
ATOM     10  C   LIG    1       26.337 -13.337   2.666  0.00  0.00    +0.236 C 
ATOM     11  O   LIG    1       25.548 -12.941   1.812  0.00  0.00    -0.274 OA
ENDROOT
BRANCH   1  12
ATOM     12  C   LIG    1       26.401 -15.764   3.342  0.00  0.00    +0.010 C 
ATOM     13  C   LIG    1       27.602 -16.295   4.148  0.00  0.00    +0.009 C 
BRANCH  12  14
ATOM     14  C   LIG    1       25.229 -16.785   3.387  0.00  0.00    +0.004 C 
BRANCH  14  16
ATOM     15  C   LIG    1       24.499 -19.176   3.733  0.00  0.00    +0.004 C 
ATOM     16  C   LIG    1       25.668 -18.255   3.413  0.00  0.00    -0.003 C 
ENDBRANCH  14  16
ENDBRANCH  12  14
ENDBRANCH   1  12
BRANCH   1  17
ATOM     17  C   LIG    1       24.448 -14.220   4.104  0.00  0.00    +0.022 C 
ATOM     18  C   LIG    1       23.921 -12.813   4.392  0.00  0.00    +0.005 C 
ENDBRANCH   1  17
TORSDOF 4
ENDMDL
MODEL 3
REMARK VINA RESULT:      -3.4      4.703      6.443
REMARK  Name = *****
REMARK                            x       y       z     vdW  Elec       q    Type
REMARK                         _______ _______ _______ _____ _____    ______ ____
ROOT
ATOM      1  C   LIG    1       23.316 -20.050   4.675  0.00  0.00    +0.126 C 
ATOM      2  C   LIG    1       23.083 -18.541   4.555  0.00  0.00    +0.236 C 
ATOM      3  O   LIG    1       22.017 -17.985   4.807  0.00  0.00    -0.274 OA
ATOM      4  N   LIG    1       24.173 -17.794   4.205  0.00  0.00    -0.239 N 
ATOM      5  H   LIG    1       24.011 -16.797   4.144  0.00  0.00    +0.159 HD
ATOM      6  C   LIG    1       25.170 -18.252   3.404  0.00  0.00    +0.312 C 
ATOM      7  O   LIG    1       25.865 -17.485   2.745  0.00  0.00    -0.252 OA
ATOM      8  N   LIG    1       25.290 -19.600   3.280  0.00  0.00    -0.239 N 
ATOM      9  H   LIG    1       25.933 -19.903   2.559  0.00  0.00    +0.159 HD
ATOM     10  C   LIG    1       24.287 -20.483   3.574  0.00  0.00    +0.236 C 
ATOM     11  O   LIG    1       24.242 -21.572   3.006  0.00  0.00    -0.274 OA
ENDROOT
BRANCH   1  12
ATOM     12  C   LIG    1       24.020 -20.318   6.074  0.00  0.00    +0.010 C 
ATOM     13  C   LIG    1       23.120 -21.111   7.041  0.00  0.00    +0.009 C 
BRANCH  12  14
ATOM     14  C   LIG    1       25.404 -21.013   5.933  0.00  0.00    +0.004 C 
BRANCH  14  16
ATOM     15  C   LIG    1       27.748 -20.094   6.094  0.00  0.00    +0.004 C 
ATOM     16  C   LIG    1       26.490 -20.462   6.866  0.00  0.00    -0.003 C 
ENDBRANCH  14  16
ENDBRANCH  12  14
ENDBRANCH   1  12
BRANCH   1  17
ATOM     17  C   LIG    1       21.972 -20.816   4.546  0.00  0.00    +0.022 C 
ATOM     18  C   LIG    1       20.821 -20.011   3.938  0.00  0.00    +0.005 C 
ENDBRANCH   1  17
TORSDOF 4
ENDMDL
MODEL 4
REMARK VINA RESULT:      -3.2      5.100      7.263
REMARK  Name = *****
REMARK                            x       y       z     vdW  Elec       q    Type
REMARK                         _______ _______ _______ _____ _____    ______ ____
ROOT
ATOM      1  C   LIG    1       23.458 -19.924   4.742  0.00  0.00    +0.126 C 
ATOM      2  C   LIG    1       24.446 -20.808   3.978  0.00  0.00    +0.236 C 
ATOM      3  O   LIG    1       24.212 -21.321   2.886  0.00  0.00    -0.274 OA
ATOM      4  N   LIG    1       25.678 -20.962   4.550  0.00  0.00    -0.239 N 
ATOM      5  H   LIG    1       26.328 -21.536   4.028  0.00  0.00    +0.159 HD
ATOM      6  C   LIG    1       25.888 -20.952   5.892  0.00  0.00    +0.312 C 
ATOM      7  O   LIG    1       26.852 -21.523   6.393  0.00  0.00    -0.252 OA
ATOM      8  N   LIG    1       24.926 -20.378   6.662  0.00  0.00    -0.239 N 
ATOM      9  H   LIG    1       25.036 -20.528   7.657  0.00  0.00    +0.159 HD
ATOM     10  C   LIG    1       23.640 -20.170   6.242  0.00  0.00    +0.236 C 
ATOM     11  O   LIG    1       22.726 -20.132   7.062  0.00  0.00    -0.274 OA
ENDROOT
BRANCH   1  12
ATOM     12  C   LIG    1       23.845 -18.409   4.450  0.00  0.00    +0.010 C 
ATOM     13  C   LIG    1       24.934 -18.280   3.368  0.00  0.00    +0.009 C 
BRANCH  12  14
ATOM     14  C   LIG    1       22.615 -17.531   4.084  0.00  0.00    +0.004 C 
BRANCH  14  16
ATOM     15  C   LIG    1       23.357 -15.125   4.246  0.00  0.00    +0.004 C 
ATOM     16  C   LIG    1       22.512 -16.221   4.876  0.00  0.00    -0.003 C 
ENDBRANCH  14  16
ENDBRANCH  12  14
ENDBRANCH   1  12
BRANCH   1  17
ATOM     17  C   LIG    1       22.001 -20.243   4.312  0.00  0.00    +0.022 C 
ATOM     18  C   LIG    1       21.448 -21.572   4.832  0.00  0.00    +0.005 C 
ENDBRANCH   1  17
TORSDOF 4
ENDMDL
MODEL 5
REMARK VINA RESULT:      -3.0      1.498      3.368
REMARK  Name = *****
REMARK                            x       y       z     vdW  Elec       q    Type
REMARK                         _______ _______ _______ _____ _____    ______ ____
ROOT
ATOM      1  C   LIG    1       26.116 -14.125   4.024  0.00  0.00    +0.126 C 
ATOM      2  C   LIG    1       26.203 -13.774   2.537  0.00  0.00    +0.236 C 
ATOM      3  O   LIG    1       27.153 -14.064   1.812  0.00  0.00    -0.274 OA
ATOM      4  N   LIG    1       25.108 -13.153   2.004  0.00  0.00    -0.239 N 
ATOM      5  H   LIG    1       25.170 -12.939   1.016  0.00  0.00    +0.159 HD
ATOM      6  C   LIG    1       24.301 -12.318   2.710  0.00  0.00    +0.312 C 
ATOM      7  O   LIG    1       23.640 -11.447   2.155  0.00  0.00    -0.252 OA
ATOM      8  N   LIG    1       24.346 -12.420   4.065  0.00  0.00    -0.239 N 
ATOM      9  H   LIG    1       23.858 -11.684   4.559  0.00  0.00    +0.159 HD
ATOM     10  C   LIG    1       25.379 -12.998   4.751  0.00  0.00    +0.236 C 
ATOM     11  O   LIG    1       25.626 -12.643   5.900  0.00  0.00    -0.274 OA
ENDROOT
BRANCH   1  12
ATOM     12  C   LIG    1       25.235 -15.443   4.155  0.00  0.00    +0.010 C 
ATOM     13  C   LIG    1       23.725 -15.147   4.087  0.00  0.00    +0.009 C 
BRANCH  12  14
ATOM     14  C   LIG    1       25.618 -16.533   3.114  0.00  0.00    +0.004 C 
BRANCH  14  16
ATOM     15  C   LIG    1       24.407 -18.722   3.440  0.00  0.00    +0.004 C 
ATOM     16  C   LIG    1       25.698 -17.955   3.684  0.00  0.00    -0.003 C 
ENDBRANCH  14  16
ENDBRANCH  12  14
ENDBRANCH   1  12
BRANCH   1  17
ATOM     17  C   LIG    1       27.537 -14.317   4.618  0.00  0.00    +0.022 C 
ATOM     18  C   LIG    1       28.391 -13.049   4.679  0.00  0.00    +0.005 C 
ENDBRANCH   1  17
TORSDOF 4
ENDMDL
MODEL 6
REMARK VINA RESULT:      -2.8      4.969      6.786
REMARK  Name = *****
REMARK                            x       y       z     vdW  Elec       q    Type
REMARK                         _______ _______ _______ _____ _____    ______ ____
ROOT
ATOM      1  C   LIG    1       23.938 -20.240   4.553  0.00  0.00    +0.126 C 
ATOM      2  C   LIG    1       22.445 -19.988   4.781  0.00  0.00    +0.236 C 
ATOM      3  O   LIG    1       21.592 -20.872   4.808  0.00  0.00    -0.274 OA
ATOM      4  N   LIG    1       22.088 -18.692   5.027  0.00  0.00    -0.239 N 
ATOM      5  H   LIG    1       21.101 -18.539   5.192  0.00  0.00    +0.159 HD
ATOM      6  C   LIG    1       22.744 -17.622   4.507  0.00  0.00    +0.312 C 
ATOM      7  O   LIG    1       22.182 -16.542   4.351  0.00  0.00    -0.252 OA
ATOM      8  N   LIG    1       24.012 -17.831   4.067  0.00  0.00    -0.239 N 
ATOM      9  H   LIG    1       24.410 -17.061   3.545  0.00  0.00    +0.159 HD
ATOM     10  C   LIG    1       24.517 -19.066   3.761  0.00  0.00    +0.236 C 
ATOM     11  O   LIG    1       25.421 -19.171   2.935  0.00  0.00    -0.274 OA
ENDROOT
BRANCH   1  12
ATOM     12  C   LIG    1       24.644 -20.257   5.978  0.00  0.00    +0.010 C 
ATOM     13  C   LIG    1       23.761 -20.905   7.062  0.00  0.00    +0.009 C 
BRANCH  12  14
ATOM     14  C   LIG    1       26.045 -20.931   5.951  0.00  0.00    +0.004 C 
BRANCH  14  16
ATOM     15  C   LIG    1       28.356 -20.063   6.470  0.00  0.00    +0.004 C 
ATOM     16  C   LIG    1       27.003 -20.450   7.048  0.00  0.00    -0.003 C 
ENDBRANCH  14  16
ENDBRANCH  12  14
ENDBRANCH   1  12
BRANCH   1  17
ATOM     17  C   LIG    1       24.150 -21.572   3.785  0.00  0.00    +0.022 C 
ATOM     18  C   LIG    1       23.658 -21.571   2.336  0.00  0.00    +0.005 C 
ENDBRANCH   1  17
TORSDOF 4
ENDMDL
MODEL 7
REMARK VINA RESULT:      -2.2      1.786      2.277
REMARK  Name = *****
REMARK                            x       y       z     vdW  Elec       q    Type
REMARK                         _______ _______ _______ _____ _____    ______ ____
ROOT
ATOM      1  C   LIG    1       25.326 -13.443   3.892  0.00  0.00    +0.126 C 
ATOM      2  C   LIG    1       26.276 -13.440   5.093  0.00  0.00    +0.236 C 
ATOM      3  O   LIG    1       25.917 -13.274   6.257  0.00  0.00    -0.274 OA
ATOM      4  N   LIG    1       27.588 -13.703   4.817  0.00  0.00    -0.239 N 
ATOM      5  H   LIG    1       28.205 -13.713   5.620  0.00  0.00    +0.159 HD
ATOM      6  C   LIG    1       28.192 -13.362   3.649  0.00  0.00    +0.312 C 
ATOM      7  O   LIG    1       29.404 -13.183   3.584  0.00  0.00    -0.252 OA
ATOM      8  N   LIG    1       27.382 -13.122   2.584  0.00  0.00    -0.239 N 
ATOM      9  H   LIG    1       27.849 -12.720   1.781  0.00  0.00    +0.159 HD
ATOM     10  C   LIG    1       26.051 -12.828   2.693  0.00  0.00    +0.236 C 
ATOM     11  O   LIG    1       25.498 -12.156   1.825  0.00  0.00    -0.274 OA
ENDROOT
BRANCH   1  12
ATOM     12  C   LIG    1       25.005 -14.959   3.538  0.00  0.00    +0.010 C 
ATOM     13  C   LIG    1       26.281 -15.781   3.269  0.00  0.00    +0.009 C 
BRANCH  12  14
ATOM     14  C   LIG    1       24.130 -15.661   4.615  0.00  0.00    +0.004 C 
BRANCH  14  16
ATOM     15  C   LIG    1       22.102 -17.151   4.433  0.00  0.00    +0.004 C 
ATOM     16  C   LIG    1       22.637 -15.736   4.271  0.00  0.00    -0.003 C 
ENDBRANCH  14  16
ENDBRANCH  12  14
ENDBRANCH   1  12
BRANCH   1  17
ATOM     17  C   LIG    1       24.038 -12.640   4.220  0.00  0.00    +0.022 C 
ATOM     18  C   LIG    1       24.238 -11.447   5.157  0.00  0.00    +0.005 C 
ENDBRANCH   1  17
TORSDOF 4
ENDMDL
MODEL 8
REMARK VINA RESULT:      -2.0      1.780      3.659
REMARK  Name = *****
REMARK                            x       y       z     vdW  Elec       q    Type
REMARK                         _______ _______ _______ _____ _____    ______ ____
ROOT
ATOM      1  C   LIG    1       25.756 -14.430   3.807  0.00  0.00    +0.126 C 
ATOM      2  C   LIG    1       26.291 -13.725   2.559  0.00  0.00    +0.236 C 
ATOM      3  O   LIG    1       27.455 -13.797   2.170  0.00  0.00    -0.274 OA
ATOM      4  N   LIG    1       25.371 -13.033   1.822  0.00  0.00    -0.239 N 
ATOM      5  H   LIG    1       25.733 -12.584   0.991  0.00  0.00    +0.159 HD
ATOM      6  C   LIG    1       24.283 -12.424   2.362  0.00  0.00    +0.312 C 
ATOM      7  O   LIG    1       23.746 -11.468   1.812  0.00  0.00    -0.252 OA
ATOM      8  N   LIG    1       23.885 -12.850   3.590  0.00  0.00    -0.239 N 
ATOM      9  H   LIG    1       23.178 -12.274   4.028  0.00  0.00    +0.159 HD
ATOM     10  C   LIG    1       24.691 -13.540   4.453  0.00  0.00    +0.236 C 
ATOM     11  O   LIG    1       24.498 -13.466   5.664  0.00  0.00    -0.274 OA
ENDROOT
BRANCH   1  12
ATOM     12  C   LIG    1       25.044 -15.771   3.334  0.00  0.00    +0.010 C 
ATOM     13  C   LIG    1       26.032 -16.947   3.209  0.00  0.00    +0.009 C 
BRANCH  12  14
ATOM     14  C   LIG    1       23.843 -16.170   4.237  0.00  0.00    +0.004 C 
BRANCH  14  16
ATOM     15  C   LIG    1       21.947 -17.828   4.391  0.00  0.00    +0.004 C 
ATOM     16  C   LIG    1       23.436 -17.646   4.137  0.00  0.00    -0.003 C 
ENDBRANCH  14  16
ENDBRANCH  12  14
ENDBRANCH   1  12
BRANCH   1  17
ATOM     17  C   LIG    1       26.910 -14.709   4.807  0.00  0.00    +0.022 C 
ATOM     18  C   LIG    1       27.516 -13.467   5.463  0.00  0.00    +0.005 C 
ENDBRANCH   1  17
TORSDOF 4
ENDMDL
MODEL 9
REMARK VINA RESULT:      -1.8      1.746      3.331
REMARK  Name = *****
REMARK                            x       y       z     vdW  Elec       q    Type
REMARK                         _______ _______ _______ _____ _____    ______ ____
ROOT
ATOM      1  C   LIG    1       26.021 -13.732   3.724  0.00  0.00    +0.126 C 
ATOM      2  C   LIG    1       25.208 -12.651   3.006  0.00  0.00    +0.236 C 
ATOM      3  O   LIG    1       25.489 -12.195   1.900  0.00  0.00    -0.274 OA
ATOM      4  N   LIG    1       24.070 -12.239   3.640  0.00  0.00    -0.239 N 
ATOM      5  H   LIG    1       23.532 -11.535   3.150  0.00  0.00    +0.159 HD
ATOM      6  C   LIG    1       23.933 -12.209   4.992  0.00  0.00    +0.312 C 
ATOM      7  O   LIG    1       23.143 -11.447   5.539  0.00  0.00    -0.252 OA
ATOM      8  N   LIG    1       24.788 -12.980   5.714  0.00  0.00    -0.239 N 
ATOM      9  H   LIG    1       24.766 -12.815   6.712  0.00  0.00    +0.159 HD
ATOM     10  C   LIG    1       25.975 -13.459   5.229  0.00  0.00    +0.236 C 
ATOM     11  O   LIG    1       26.901 -13.697   6.001  0.00  0.00    -0.274 OA
ENDROOT
BRANCH   1  12
ATOM     12  C   LIG    1       25.303 -15.126   3.462  0.00  0.00    +0.010 C 
ATOM     13  C   LIG    1       26.310 -16.270   3.235  0.00  0.00    +0.009 C 
BRANCH  12  14
ATOM     14  C   LIG    1       24.297 -15.509   4.584  0.00  0.00    +0.004 C 
BRANCH  14  16
ATOM     15  C   LIG    1       22.092 -16.700   4.880  0.00  0.00    +0.004 C 
ATOM     16  C   LIG    1       22.838 -15.612   4.121  0.00  0.00    -0.003 C 
ENDBRANCH  14  16
ENDBRANCH  12  14
ENDBRANCH   1  12
BRANCH   1  17
ATOM     17  C   LIG    1       27.488 -13.731   3.216  0.00  0.00    +0.022 C 
ATOM     18  C   LIG    1       28.465 -12.903   4.054  0.00  0.00    +0.005 C 
ENDBRANCH   1  17
TORSDOF 4
ENDMDL
