MODEL 1
REMARK VINA RESULT:      -9.7      0.000      0.000
REMARK  Name = *****
REMARK                            x       y       z     vdW  Elec       q    Type
REMARK                         _______ _______ _______ _____ _____    ______ ____
ROOT
ATOM      1  C   LIG    1       25.794 -23.531   6.688  0.00  0.00    +0.037 A 
ATOM      2  C   LIG    1       24.476 -23.086   6.963  0.00  0.00    -0.026 A 
ATOM      3  C   LIG    1       23.422 -23.998   6.742  0.00  0.00    +0.005 A 
ATOM      4  C   LIG    1       23.662 -25.309   6.315  0.00  0.00    +0.000 A 
ATOM      5  C   LIG    1       24.959 -25.743   6.096  0.00  0.00    +0.002 A 
ATOM      6  C   LIG    1       26.014 -24.855   6.272  0.00  0.00    +0.023 A 
ENDROOT
BRANCH   1   8
ATOM      7  C   LIG    1       27.237 -21.948   7.977  0.00  0.00    +0.248 C 
ATOM      8  N   LIG    1       26.891 -22.657   6.841  0.00  0.00    -0.281 N 
ATOM      9  H   LIG    1       27.541 -22.638   6.065  0.00  0.00    +0.155 HD
ATOM     10  O   LIG    1       26.701 -21.993   9.085  0.00  0.00    -0.270 OA
BRANCH   7  14
ATOM     11  C   LIG    1       30.672 -19.422   7.528  0.00  0.00    +0.120 A 
ATOM     12  C   LIG    1       29.472 -19.102   6.891  0.00  0.00    +0.046 A 
ATOM     13  C   LIG    1       28.357 -19.928   7.045  0.00  0.00    +0.016 A 
ATOM     14  C   LIG    1       28.440 -21.087   7.823  0.00  0.00    +0.037 A 
ATOM     15  C   LIG    1       29.659 -21.426   8.427  0.00  0.00    +0.016 A 
ATOM     16  C   LIG    1       30.766 -20.591   8.284  0.00  0.00    +0.046 A 
BRANCH  11  18
ATOM     17  C   LIG    1       32.089 -17.847   8.549  0.00  0.00    +0.277 C 
ATOM     18  O   LIG    1       31.826 -18.693   7.437  0.00  0.00    -0.495 OA
ENDBRANCH  11  18
ENDBRANCH   7  14
ENDBRANCH   1   8
BRANCH   2  19
ATOM     19  C   LIG    1       24.105 -21.671   7.415  0.00  0.00    +0.038 C 
BRANCH  19  20
ATOM     20  C   LIG    1       24.429 -20.539   6.409  0.00  0.00    +0.023 C 
BRANCH  20  21
ATOM     21  C   LIG    1       24.157 -20.912   4.911  0.00  0.00    +0.057 C 
ATOM     22  N   LIG    1       22.847 -20.480   4.373  0.00  0.00    -0.302 NA
ATOM     23  C   LIG    1       21.692 -21.171   4.927  0.00  0.00    +0.105 C 
ATOM     24  C   LIG    1       22.665 -19.027   4.373  0.00  0.00    +0.084 C 
ATOM     25  C   LIG    1       23.723 -18.366   3.488  0.00  0.00    +0.015 C 
ATOM     26  C   LIG    1       25.138 -18.826   3.828  0.00  0.00    +0.003 C 
ATOM     27  C   LIG    1       25.213 -20.348   3.937  0.00  0.00    +0.019 C 
ENDBRANCH  20  21
ENDBRANCH  19  20
ENDBRANCH   2  19
TORSDOF 6
ENDMDL
MODEL 2
REMARK VINA RESULT:      -9.3      2.127      5.116
REMARK  Name = *****
REMARK                            x       y       z     vdW  Elec       q    Type
REMARK                         _______ _______ _______ _____ _____    ______ ____
ROOT
ATOM      1  C   LIG    1       25.208 -21.617   6.950  0.00  0.00    +0.037 A 
ATOM      2  C   LIG    1       24.971 -22.999   6.735  0.00  0.00    -0.026 A 
ATOM      3  C   LIG    1       23.660 -23.390   6.390  0.00  0.00    +0.005 A 
ATOM      4  C   LIG    1       22.636 -22.451   6.215  0.00  0.00    +0.000 A 
ATOM      5  C   LIG    1       22.894 -21.100   6.383  0.00  0.00    +0.002 A 
ATOM      6  C   LIG    1       24.168 -20.690   6.758  0.00  0.00    +0.023 A 
ENDROOT
BRANCH   1   8
ATOM      7  C   LIG    1       27.405 -20.490   6.562  0.00  0.00    +0.248 C 
ATOM      8  N   LIG    1       26.483 -21.162   7.344  0.00  0.00    -0.281 N 
ATOM      9  H   LIG    1       26.688 -21.251   8.331  0.00  0.00    +0.155 HD
ATOM     10  O   LIG    1       27.266 -20.102   5.400  0.00  0.00    -0.270 OA
BRANCH   7  14
ATOM     11  C   LIG    1       31.092 -19.587   8.553  0.00  0.00    +0.120 A 
ATOM     12  C   LIG    1       30.576 -20.883   8.578  0.00  0.00    +0.046 A 
ATOM     13  C   LIG    1       29.375 -21.171   7.924  0.00  0.00    +0.016 A 
ATOM     14  C   LIG    1       28.677 -20.159   7.255  0.00  0.00    +0.037 A 
ATOM     15  C   LIG    1       29.180 -18.850   7.269  0.00  0.00    +0.016 A 
ATOM     16  C   LIG    1       30.386 -18.571   7.910  0.00  0.00    +0.046 A 
BRANCH  11  18
ATOM     17  C   LIG    1       32.230 -17.872   9.692  0.00  0.00    +0.277 C 
ATOM     18  O   LIG    1       32.249 -19.194   9.168  0.00  0.00    -0.495 OA
ENDBRANCH  11  18
ENDBRANCH   7  14
ENDBRANCH   1   8
BRANCH   2  19
ATOM     19  C   LIG    1       26.014 -24.104   6.917  0.00  0.00    +0.038 C 
BRANCH  19  20
ATOM     20  C   LIG    1       25.453 -25.508   7.256  0.00  0.00    +0.023 C 
BRANCH  20  21
ATOM     21  C   LIG    1       26.315 -26.695   6.704  0.00  0.00    +0.057 C 
ATOM     22  N   LIG    1       25.995 -28.029   7.262  0.00  0.00    -0.302 NA
ATOM     23  C   LIG    1       26.340 -28.213   8.664  0.00  0.00    +0.105 C 
ATOM     24  C   LIG    1       24.630 -28.472   6.974  0.00  0.00    +0.084 C 
ATOM     25  C   LIG    1       24.422 -28.586   5.463  0.00  0.00    +0.015 C 
ATOM     26  C   LIG    1       24.848 -27.323   4.719  0.00  0.00    +0.003 C 
ATOM     27  C   LIG    1       26.230 -26.854   5.171  0.00  0.00    +0.019 C 
ENDBRANCH  20  21
ENDBRANCH  19  20
ENDBRANCH   2  19
TORSDOF 6
ENDMDL
MODEL 3
REMARK VINA RESULT:      -9.0      1.836      5.933
REMARK  Name = *****
REMARK                            x       y       z     vdW  Elec       q    Type
REMARK                         _______ _______ _______ _____ _____    ______ ____
ROOT
ATOM      1  C   LIG    1       28.257 -21.463   7.007  0.00  0.00    +0.037 A 
ATOM      2  C   LIG    1       28.029 -20.238   6.329  0.00  0.00    -0.026 A 
ATOM      3  C   LIG    1       28.834 -19.136   6.685  0.00  0.00    +0.005 A 
ATOM      4  C   LIG    1       29.856 -19.249   7.636  0.00  0.00    +0.000 A 
ATOM      5  C   LIG    1       30.098 -20.464   8.256  0.00  0.00    +0.002 A 
ATOM      6  C   LIG    1       29.296 -21.558   7.950  0.00  0.00    +0.023 A 
ENDROOT
BRANCH   1   8
ATOM      7  C   LIG    1       26.333 -23.001   7.428  0.00  0.00    +0.248 C 
ATOM      8  N   LIG    1       27.458 -22.592   6.736  0.00  0.00    -0.281 N 
ATOM      9  H   LIG    1       27.681 -23.085   5.880  0.00  0.00    +0.155 HD
ATOM     10  O   LIG    1       25.776 -22.427   8.366  0.00  0.00    -0.270 OA
BRANCH   7  14
ATOM     11  C   LIG    1       24.506 -26.575   5.923  0.00  0.00    +0.120 A 
ATOM     12  C   LIG    1       23.727 -25.456   6.221  0.00  0.00    +0.046 A 
ATOM     13  C   LIG    1       24.330 -24.294   6.708  0.00  0.00    +0.016 A 
ATOM     14  C   LIG    1       25.713 -24.251   6.915  0.00  0.00    +0.037 A 
ATOM     15  C   LIG    1       26.485 -25.392   6.652  0.00  0.00    +0.016 A 
ATOM     16  C   LIG    1       25.881 -26.545   6.152  0.00  0.00    +0.046 A 
BRANCH  11  18
ATOM     17  C   LIG    1       24.975 -28.815   5.378  0.00  0.00    +0.277 C 
ATOM     18  O   LIG    1       24.019 -27.764   5.454  0.00  0.00    -0.495 OA
ENDBRANCH  11  18
ENDBRANCH   7  14
ENDBRANCH   1   8
BRANCH   2  19
ATOM     19  C   LIG    1       26.929 -20.005   5.290  0.00  0.00    +0.038 C 
BRANCH  19  20
ATOM     20  C   LIG    1       25.477 -20.197   5.795  0.00  0.00    +0.023 C 
BRANCH  20  21
ATOM     21  C   LIG    1       24.489 -20.757   4.714  0.00  0.00    +0.057 C 
ATOM     22  N   LIG    1       23.063 -20.798   5.112  0.00  0.00    -0.302 NA
ATOM     23  C   LIG    1       22.738 -21.765   6.150  0.00  0.00    +0.105 C 
ATOM     24  C   LIG    1       22.499 -19.478   5.400  0.00  0.00    +0.084 C 
ATOM     25  C   LIG    1       22.564 -18.596   4.152  0.00  0.00    +0.015 C 
ATOM     26  C   LIG    1       23.957 -18.566   3.531  0.00  0.00    +0.003 C 
ATOM     27  C   LIG    1       24.528 -19.975   3.384  0.00  0.00    +0.019 C 
ENDBRANCH  20  21
ENDBRANCH  19  20
ENDBRANCH   2  19
TORSDOF 6
ENDMDL
MODEL 4
REMARK VINA RESULT:      -8.7      2.417      6.675
REMARK  Name = *****
REMARK                            x       y       z     vdW  Elec       q    Type
REMARK                         _______ _______ _______ _____ _____    ______ ____
ROOT
ATOM      1  C   LIG    1       23.529 -20.968   4.815  0.00  0.00    +0.037 A 
ATOM      2  C   LIG    1       24.482 -19.972   4.480  0.00  0.00    -0.026 A 
ATOM      3  C   LIG    1       23.994 -18.698   4.122  0.00  0.00    +0.005 A 
ATOM      4  C   LIG    1       22.625 -18.403   4.141  0.00  0.00    +0.000 A 
ATOM      5  C   LIG    1       21.709 -19.373   4.516  0.00  0.00    +0.002 A 
ATOM      6  C   LIG    1       22.161 -20.648   4.840  0.00  0.00    +0.023 A 
ENDROOT
BRANCH   1   8
ATOM      7  C   LIG    1       23.879 -22.890   6.374  0.00  0.00    +0.248 C 
ATOM      8  N   LIG    1       23.944 -22.277   5.137  0.00  0.00    -0.281 N 
ATOM      9  H   LIG    1       24.219 -22.850   4.348  0.00  0.00    +0.155 HD
ATOM     10  O   LIG    1       23.388 -22.441   7.412  0.00  0.00    -0.270 OA
BRANCH   7  14
ATOM     11  C   LIG    1       25.464 -26.871   6.507  0.00  0.00    +0.120 A 
ATOM     12  C   LIG    1       26.242 -25.787   6.917  0.00  0.00    +0.046 A 
ATOM     13  C   LIG    1       25.718 -24.494   6.874  0.00  0.00    +0.016 A 
ATOM     14  C   LIG    1       24.418 -24.275   6.406  0.00  0.00    +0.037 A 
ATOM     15  C   LIG    1       23.655 -25.363   5.956  0.00  0.00    +0.016 A 
ATOM     16  C   LIG    1       24.177 -26.655   6.015  0.00  0.00    +0.046 A 
BRANCH  11  18
ATOM     17  C   LIG    1       24.838 -29.135   6.386  0.00  0.00    +0.277 C 
ATOM     18  O   LIG    1       25.881 -28.174   6.497  0.00  0.00    -0.495 OA
ENDBRANCH  11  18
ENDBRANCH   7  14
ENDBRANCH   1   8
BRANCH   2  19
ATOM     19  C   LIG    1       25.995 -20.196   4.411  0.00  0.00    +0.038 C 
BRANCH  19  20
ATOM     20  C   LIG    1       26.629 -20.878   5.649  0.00  0.00    +0.023 C 
BRANCH  20  21
ATOM     21  C   LIG    1       27.167 -19.878   6.729  0.00  0.00    +0.057 C 
ATOM     22  N   LIG    1       27.218 -20.400   8.114  0.00  0.00    -0.302 NA
ATOM     23  C   LIG    1       25.923 -20.632   8.736  0.00  0.00    +0.105 C 
ATOM     24  C   LIG    1       28.114 -21.548   8.274  0.00  0.00    +0.084 C 
ATOM     25  C   LIG    1       29.547 -21.148   7.921  0.00  0.00    +0.015 C 
ATOM     26  C   LIG    1       29.643 -20.456   6.564  0.00  0.00    +0.003 C 
ATOM     27  C   LIG    1       28.589 -19.358   6.428  0.00  0.00    +0.019 C 
ENDBRANCH  20  21
ENDBRANCH  19  20
ENDBRANCH   2  19
TORSDOF 6
ENDMDL
MODEL 5
REMARK VINA RESULT:      -8.6      2.252      6.851
REMARK  Name = *****
REMARK                            x       y       z     vdW  Elec       q    Type
REMARK                         _______ _______ _______ _____ _____    ______ ____
ROOT
ATOM      1  C   LIG    1       23.631 -20.930   4.876  0.00  0.00    +0.037 A 
ATOM      2  C   LIG    1       24.626 -19.963   4.584  0.00  0.00    -0.026 A 
ATOM      3  C   LIG    1       24.193 -18.666   4.236  0.00  0.00    +0.005 A 
ATOM      4  C   LIG    1       22.836 -18.323   4.226  0.00  0.00    +0.000 A 
ATOM      5  C   LIG    1       21.877 -19.266   4.560  0.00  0.00    +0.002 A 
ATOM      6  C   LIG    1       22.274 -20.561   4.872  0.00  0.00    +0.023 A 
ENDROOT
BRANCH   1   8
ATOM      7  C   LIG    1       24.282 -22.773   6.434  0.00  0.00    +0.248 C 
ATOM      8  N   LIG    1       23.990 -22.258   5.184  0.00  0.00    -0.281 N 
ATOM      9  H   LIG    1       23.922 -22.914   4.416  0.00  0.00    +0.155 HD
ATOM     10  O   LIG    1       24.219 -22.193   7.520  0.00  0.00    -0.270 OA
BRANCH   7  14
ATOM     11  C   LIG    1       25.383 -26.916   6.485  0.00  0.00    +0.120 A 
ATOM     12  C   LIG    1       26.299 -25.937   6.875  0.00  0.00    +0.046 A 
ATOM     13  C   LIG    1       25.932 -24.590   6.858  0.00  0.00    +0.016 A 
ATOM     14  C   LIG    1       24.652 -24.212   6.437  0.00  0.00    +0.037 A 
ATOM     15  C   LIG    1       23.750 -25.197   6.008  0.00  0.00    +0.016 A 
ATOM     16  C   LIG    1       24.115 -26.542   6.041  0.00  0.00    +0.046 A 
BRANCH  11  18
ATOM     17  C   LIG    1       24.712 -29.028   5.696  0.00  0.00    +0.277 C 
ATOM     18  O   LIG    1       25.640 -28.259   6.452  0.00  0.00    -0.495 OA
ENDBRANCH  11  18
ENDBRANCH   7  14
ENDBRANCH   1   8
BRANCH   2  19
ATOM     19  C   LIG    1       26.132 -20.240   4.550  0.00  0.00    +0.038 C 
BRANCH  19  20
ATOM     20  C   LIG    1       26.878 -20.059   5.895  0.00  0.00    +0.023 C 
BRANCH  20  21
ATOM     21  C   LIG    1       28.410 -20.382   5.829  0.00  0.00    +0.057 C 
ATOM     22  N   LIG    1       29.315 -19.257   6.161  0.00  0.00    -0.302 NA
ATOM     23  C   LIG    1       29.333 -18.171   5.193  0.00  0.00    +0.105 C 
ATOM     24  C   LIG    1       29.157 -18.765   7.530  0.00  0.00    +0.084 C 
ATOM     25  C   LIG    1       29.481 -19.876   8.529  0.00  0.00    +0.015 C 
ATOM     26  C   LIG    1       28.725 -21.168   8.231  0.00  0.00    +0.003 C 
ATOM     27  C   LIG    1       28.833 -21.543   6.754  0.00  0.00    +0.019 C 
ENDBRANCH  20  21
ENDBRANCH  19  20
ENDBRANCH   2  19
TORSDOF 6
ENDMDL
MODEL 6
REMARK VINA RESULT:      -8.5      2.956      7.515
REMARK  Name = *****
REMARK                            x       y       z     vdW  Elec       q    Type
REMARK                         _______ _______ _______ _____ _____    ______ ____
ROOT
ATOM      1  C   LIG    1       24.253 -23.000   6.694  0.00  0.00    +0.037 A 
ATOM      2  C   LIG    1       25.261 -22.086   7.091  0.00  0.00    -0.026 A 
ATOM      3  C   LIG    1       25.006 -20.711   6.902  0.00  0.00    +0.005 A 
ATOM      4  C   LIG    1       23.786 -20.254   6.388  0.00  0.00    +0.000 A 
ATOM      5  C   LIG    1       22.793 -21.158   6.048  0.00  0.00    +0.002 A 
ATOM      6  C   LIG    1       23.031 -22.520   6.191  0.00  0.00    +0.023 A 
ENDROOT
BRANCH   1   8
ATOM      7  C   LIG    1       24.799 -25.268   5.797  0.00  0.00    +0.248 C 
ATOM      8  N   LIG    1       24.461 -24.390   6.810  0.00  0.00    -0.281 N 
ATOM      9  H   LIG    1       24.462 -24.750   7.757  0.00  0.00    +0.155 HD
ATOM     10  O   LIG    1       25.049 -25.000   4.621  0.00  0.00    -0.270 OA
BRANCH   7  14
ATOM     11  C   LIG    1       25.180 -29.338   7.088  0.00  0.00    +0.120 A 
ATOM     12  C   LIG    1       25.893 -28.325   7.730  0.00  0.00    +0.046 A 
ATOM     13  C   LIG    1       25.762 -27.001   7.306  0.00  0.00    +0.016 A 
ATOM     14  C   LIG    1       24.928 -26.685   6.227  0.00  0.00    +0.037 A 
ATOM     15  C   LIG    1       24.245 -27.713   5.561  0.00  0.00    +0.016 A 
ATOM     16  C   LIG    1       24.367 -29.032   5.997  0.00  0.00    +0.046 A 
BRANCH  11  18
ATOM     17  C   LIG    1       24.275 -31.486   6.772  0.00  0.00    +0.277 C 
ATOM     18  O   LIG    1       25.243 -30.665   7.413  0.00  0.00    -0.495 OA
ENDBRANCH  11  18
ENDBRANCH   7  14
ENDBRANCH   1   8
BRANCH   2  19
ATOM     19  C   LIG    1       26.633 -22.481   7.646  0.00  0.00    +0.038 C 
BRANCH  19  20
ATOM     20  C   LIG    1       27.568 -21.305   8.022  0.00  0.00    +0.023 C 
BRANCH  20  21
ATOM     21  C   LIG    1       28.881 -21.229   7.169  0.00  0.00    +0.057 C 
ATOM     22  N   LIG    1       29.136 -19.930   6.504  0.00  0.00    -0.302 NA
ATOM     23  C   LIG    1       28.218 -19.597   5.425  0.00  0.00    +0.105 C 
ATOM     24  C   LIG    1       29.305 -18.817   7.440  0.00  0.00    +0.084 C 
ATOM     25  C   LIG    1       30.511 -19.072   8.346  0.00  0.00    +0.015 C 
ATOM     26  C   LIG    1       30.468 -20.449   9.002  0.00  0.00    +0.003 C 
ATOM     27  C   LIG    1       30.158 -21.539   7.978  0.00  0.00    +0.019 C 
ENDBRANCH  20  21
ENDBRANCH  19  20
ENDBRANCH   2  19
TORSDOF 6
ENDMDL
MODEL 7
REMARK VINA RESULT:      -8.4      4.985      8.766
REMARK  Name = *****
REMARK                            x       y       z     vdW  Elec       q    Type
REMARK                         _______ _______ _______ _____ _____    ______ ____
ROOT
ATOM      1  C   LIG    1       25.138 -28.882   6.504  0.00  0.00    +0.037 A 
ATOM      2  C   LIG    1       25.215 -29.731   7.638  0.00  0.00    -0.026 A 
ATOM      3  C   LIG    1       25.464 -31.101   7.411  0.00  0.00    +0.005 A 
ATOM      4  C   LIG    1       25.678 -31.605   6.122  0.00  0.00    +0.000 A 
ATOM      5  C   LIG    1       25.646 -30.755   5.028  0.00  0.00    +0.002 A 
ATOM      6  C   LIG    1       25.368 -29.406   5.220  0.00  0.00    +0.023 A 
ENDROOT
BRANCH   1   8
ATOM      7  C   LIG    1       25.654 -26.444   6.310  0.00  0.00    +0.248 C 
ATOM      8  N   LIG    1       24.845 -27.511   6.655  0.00  0.00    -0.281 N 
ATOM      9  H   LIG    1       23.899 -27.301   6.950  0.00  0.00    +0.155 HD
ATOM     10  O   LIG    1       26.749 -26.482   5.746  0.00  0.00    -0.270 OA
BRANCH   7  14
ATOM     11  C   LIG    1       23.939 -22.616   7.195  0.00  0.00    +0.120 A 
ATOM     12  C   LIG    1       23.137 -23.658   6.726  0.00  0.00    +0.046 A 
ATOM     13  C   LIG    1       23.702 -24.903   6.442  0.00  0.00    +0.016 A 
ATOM     14  C   LIG    1       25.076 -25.108   6.612  0.00  0.00    +0.037 A 
ATOM     15  C   LIG    1       25.883 -24.047   7.046  0.00  0.00    +0.016 A 
ATOM     16  C   LIG    1       25.312 -22.810   7.342  0.00  0.00    +0.046 A 
BRANCH  11  18
ATOM     17  C   LIG    1       23.207 -20.542   6.362  0.00  0.00    +0.277 C 
ATOM     18  O   LIG    1       23.493 -21.358   7.492  0.00  0.00    -0.495 OA
ENDBRANCH  11  18
ENDBRANCH   7  14
ENDBRANCH   1   8
BRANCH   2  19
ATOM     19  C   LIG    1       24.981 -29.284   9.083  0.00  0.00    +0.038 C 
BRANCH  19  20
ATOM     20  C   LIG    1       26.256 -28.982   9.908  0.00  0.00    +0.023 C 
BRANCH  20  21
ATOM     21  C   LIG    1       26.331 -29.740  11.278  0.00  0.00    +0.057 C 
ATOM     22  N   LIG    1       27.333 -29.226  12.239  0.00  0.00    -0.302 NA
ATOM     23  C   LIG    1       28.721 -29.437  11.858  0.00  0.00    +0.105 C 
ATOM     24  C   LIG    1       27.087 -27.845  12.658  0.00  0.00    +0.084 C 
ATOM     25  C   LIG    1       25.734 -27.743  13.364  0.00  0.00    +0.015 C 
ATOM     26  C   LIG    1       24.604 -28.369  12.552  0.00  0.00    +0.003 C 
ATOM     27  C   LIG    1       24.991 -29.756  12.044  0.00  0.00    +0.019 C 
ENDBRANCH  20  21
ENDBRANCH  19  20
ENDBRANCH   2  19
TORSDOF 6
ENDMDL
MODEL 8
REMARK VINA RESULT:      -8.3      2.897      7.614
REMARK  Name = *****
REMARK                            x       y       z     vdW  Elec       q    Type
REMARK                         _______ _______ _______ _____ _____    ______ ____
ROOT
ATOM      1  C   LIG    1       25.285 -22.645   5.825  0.00  0.00    +0.037 A 
ATOM      2  C   LIG    1       26.223 -21.738   6.381  0.00  0.00    -0.026 A 
ATOM      3  C   LIG    1       26.203 -20.409   5.909  0.00  0.00    +0.005 A 
ATOM      4  C   LIG    1       25.265 -19.979   4.963  0.00  0.00    +0.000 A 
ATOM      5  C   LIG    1       24.324 -20.865   4.463  0.00  0.00    +0.002 A 
ATOM      6  C   LIG    1       24.343 -22.190   4.885  0.00  0.00    +0.023 A 
ENDROOT
BRANCH   1   8
ATOM      7  C   LIG    1       25.163 -25.103   5.391  0.00  0.00    +0.248 C 
ATOM      8  N   LIG    1       25.280 -24.000   6.216  0.00  0.00    -0.281 N 
ATOM      9  H   LIG    1       25.489 -24.169   7.192  0.00  0.00    +0.155 HD
ATOM     10  O   LIG    1       25.110 -25.120   4.159  0.00  0.00    -0.270 OA
BRANCH   7  14
ATOM     11  C   LIG    1       25.163 -28.892   7.396  0.00  0.00    +0.120 A 
ATOM     12  C   LIG    1       24.292 -28.657   6.330  0.00  0.00    +0.046 A 
ATOM     13  C   LIG    1       24.300 -27.421   5.680  0.00  0.00    +0.016 A 
ATOM     14  C   LIG    1       25.168 -26.408   6.102  0.00  0.00    +0.037 A 
ATOM     15  C   LIG    1       26.012 -26.636   7.199  0.00  0.00    +0.016 A 
ATOM     16  C   LIG    1       26.011 -27.877   7.836  0.00  0.00    +0.046 A 
BRANCH  11  18
ATOM     17  C   LIG    1       24.265 -30.181   9.146  0.00  0.00    +0.277 C 
ATOM     18  O   LIG    1       25.230 -30.058   8.109  0.00  0.00    -0.495 OA
ENDBRANCH  11  18
ENDBRANCH   7  14
ENDBRANCH   1   8
BRANCH   2  19
ATOM     19  C   LIG    1       27.299 -22.110   7.404  0.00  0.00    +0.038 C 
BRANCH  19  20
ATOM     20  C   LIG    1       28.670 -21.414   7.218  0.00  0.00    +0.023 C 
BRANCH  20  21
ATOM     21  C   LIG    1       29.125 -20.552   8.446  0.00  0.00    +0.057 C 
ATOM     22  N   LIG    1       30.537 -20.725   8.860  0.00  0.00    -0.302 NA
ATOM     23  C   LIG    1       30.858 -22.020   9.440  0.00  0.00    +0.105 C 
ATOM     24  C   LIG    1       31.500 -20.335   7.829  0.00  0.00    +0.084 C 
ATOM     25  C   LIG    1       31.338 -18.853   7.491  0.00  0.00    +0.015 C 
ATOM     26  C   LIG    1       29.891 -18.480   7.178  0.00  0.00    +0.003 C 
ATOM     27  C   LIG    1       28.937 -19.035   8.234  0.00  0.00    +0.019 C 
ENDBRANCH  20  21
ENDBRANCH  19  20
ENDBRANCH   2  19
TORSDOF 6
ENDMDL
MODEL 9
REMARK VINA RESULT:      -8.1      1.766      4.749
REMARK  Name = *****
REMARK                            x       y       z     vdW  Elec       q    Type
REMARK                         _______ _______ _______ _____ _____    ______ ____
ROOT
ATOM      1  C   LIG    1       24.231 -20.714   5.718  0.00  0.00    +0.037 A 
ATOM      2  C   LIG    1       23.359 -21.757   6.121  0.00  0.00    -0.026 A 
ATOM      3  C   LIG    1       22.038 -21.730   5.628  0.00  0.00    +0.005 A 
ATOM      4  C   LIG    1       21.608 -20.741   4.735  0.00  0.00    +0.000 A 
ATOM      5  C   LIG    1       22.484 -19.754   4.314  0.00  0.00    +0.002 A 
ATOM      6  C   LIG    1       23.782 -19.738   4.812  0.00  0.00    +0.023 A 
ENDROOT
BRANCH   1   8
ATOM      7  C   LIG    1       26.643 -20.070   5.595  0.00  0.00    +0.248 C 
ATOM      8  N   LIG    1       25.551 -20.653   6.211  0.00  0.00    -0.281 N 
ATOM      9  H   LIG    1       25.674 -20.982   7.161  0.00  0.00    +0.155 HD
ATOM     10  O   LIG    1       26.661 -19.436   4.538  0.00  0.00    -0.270 OA
BRANCH   7  14
ATOM     11  C   LIG    1       30.322 -20.353   7.777  0.00  0.00    +0.120 A 
ATOM     12  C   LIG    1       30.198 -19.455   6.716  0.00  0.00    +0.046 A 
ATOM     13  C   LIG    1       28.995 -19.366   6.012  0.00  0.00    +0.016 A 
ATOM     14  C   LIG    1       27.915 -20.186   6.355  0.00  0.00    +0.037 A 
ATOM     15  C   LIG    1       28.059 -21.115   7.396  0.00  0.00    +0.016 A 
ATOM     16  C   LIG    1       29.256 -21.190   8.106  0.00  0.00    +0.046 A 
BRANCH  11  18
ATOM     17  C   LIG    1       31.567 -21.803   9.148  0.00  0.00    +0.277 C 
ATOM     18  O   LIG    1       31.454 -20.530   8.525  0.00  0.00    -0.495 OA
ENDBRANCH  11  18
ENDBRANCH   7  14
ENDBRANCH   1   8
BRANCH   2  19
ATOM     19  C   LIG    1       23.724 -22.872   7.105  0.00  0.00    +0.038 C 
BRANCH  19  20
ATOM     20  C   LIG    1       23.528 -24.318   6.584  0.00  0.00    +0.023 C 
BRANCH  20  21
ATOM     21  C   LIG    1       24.666 -24.817   5.629  0.00  0.00    +0.057 C 
ATOM     22  N   LIG    1       25.978 -25.060   6.270  0.00  0.00    -0.302 NA
ATOM     23  C   LIG    1       26.668 -23.868   6.739  0.00  0.00    +0.105 C 
ATOM     24  C   LIG    1       25.944 -26.108   7.293  0.00  0.00    +0.084 C 
ATOM     25  C   LIG    1       25.527 -27.440   6.667  0.00  0.00    +0.015 C 
ATOM     26  C   LIG    1       24.250 -27.322   5.840  0.00  0.00    +0.003 C 
ATOM     27  C   LIG    1       24.315 -26.127   4.890  0.00  0.00    +0.019 C 
ENDBRANCH  20  21
ENDBRANCH  19  20
ENDBRANCH   2  19
TORSDOF 6
ENDMDL
