MODEL 1
REMARK VINA RESULT:       1.1      0.000      0.000
REMARK  Name = *****
REMARK                            x       y       z     vdW  Elec       q    Type
REMARK                         _______ _______ _______ _____ _____    ______ ____
ROOT
ATOM      1  C   LIG    1       25.817 -17.642   3.375  0.00  0.00    -0.011 A 
ATOM      2  C   LIG    1       24.417 -17.790   3.509  0.00  0.00    -0.012 A 
ATOM      3  C   LIG    1       23.615 -16.623   3.698  0.00  0.00    -0.009 A 
ATOM      4  C   LIG    1       22.208 -16.779   3.625  0.00  0.00    +0.021 A 
ATOM      5  C   LIG    1       21.574 -18.019   3.461  0.00  0.00    +0.055 A 
ATOM      6  C   LIG    1       22.369 -19.160   3.441  0.00  0.00    +0.013 A 
ATOM      7  C   LIG    1       24.249 -15.352   3.932  0.00  0.00    -0.007 A 
ATOM      8  C   LIG    1       25.642 -15.206   3.776  0.00  0.00    +0.002 A 
ATOM      9  C   LIG    1       26.245 -13.929   3.957  0.00  0.00    +0.050 A 
ATOM     10  C   LIG    1       25.499 -12.827   4.372  0.00  0.00    +0.040 A 
ATOM     11  C   LIG    1       24.147 -12.977   4.593  0.00  0.00    +0.043 A 
ATOM     12 CL   LIG    1       23.220 -11.650   5.178  0.00  0.00    -0.084 Cl
ATOM     13 CL   LIG    1       27.936 -13.652   3.695  0.00  0.00    -0.083 Cl
ATOM     14  C   LIG    1       23.525 -14.204   4.362  0.00  0.00    +0.029 A 
ATOM     15  C   LIG    1       23.757 -19.042   3.458  0.00  0.00    +0.009 A 
ATOM     16  C   LIG    1       26.392 -16.357   3.461  0.00  0.00    +0.016 A 
ENDROOT
BRANCH   5  17
ATOM     17  C   LIG    1       20.082 -18.132   3.278  0.00  0.00    +0.417 C 
ATOM     18  F   LIG    1       19.634 -19.413   3.376  0.00  0.00    -0.166 F 
ATOM     19  F   LIG    1       19.679 -17.687   2.053  0.00  0.00    -0.166 F 
ATOM     20  F   LIG    1       19.365 -17.412   4.185  0.00  0.00    -0.166 F 
ENDBRANCH   5  17
BRANCH   1  21
ATOM     21  C   LIG    1       26.774 -18.807   3.134  0.00  0.00    +0.146 C 
BRANCH  21  22
ATOM     22  O   LIG    1       28.085 -18.414   3.554  0.00  0.00    -0.387 OA
ATOM     23  H   LIG    1       28.693 -18.601   2.817  0.00  0.00    +0.210 HD
ENDBRANCH  21  22
BRANCH  21  24
ATOM     24  C   LIG    1       26.369 -20.093   3.889  0.00  0.00    +0.051 C 
BRANCH  24  25
ATOM     25  C   LIG    1       26.617 -19.969   5.411  0.00  0.00    +0.087 C 
BRANCH  25  26
ATOM     26  N   LIG    1       26.804 -21.239   6.143  0.00  0.00    -0.302 NA
BRANCH  26  27
ATOM     27  C   LIG    1       28.088 -21.262   6.883  0.00  0.00    +0.084 C 
BRANCH  27  28
ATOM     28  C   LIG    1       29.215 -20.352   6.344  0.00  0.00    +0.015 C 
BRANCH  28  30
ATOM     29  C   LIG    1       29.326 -17.828   6.029  0.00  0.00    +0.004 C 
ATOM     30  C   LIG    1       29.249 -18.979   7.017  0.00  0.00    -0.002 C 
ENDBRANCH  28  30
ENDBRANCH  27  28
ENDBRANCH  26  27
BRANCH  26  31
ATOM     31  C   LIG    1       25.681 -21.570   7.058  0.00  0.00    +0.084 C 
BRANCH  31  32
ATOM     32  C   LIG    1       24.268 -21.534   6.444  0.00  0.00    +0.015 C 
BRANCH  32  33
ATOM     33  C   LIG    1       23.509 -20.246   6.805  0.00  0.00    -0.002 C 
ATOM     34  C   LIG    1       22.282 -20.039   5.921  0.00  0.00    +0.004 C 
ENDBRANCH  32  33
ENDBRANCH  31  32
ENDBRANCH  26  31
ENDBRANCH  25  26
ENDBRANCH  24  25
ENDBRANCH  21  24
ENDBRANCH   1  21
TORSDOF 12
ENDMDL
