MODEL 1
REMARK VINA RESULT:       4.0      0.000      0.000
REMARK  Name = *****
REMARK                            x       y       z     vdW  Elec       q    Type
REMARK                         _______ _______ _______ _____ _____    ______ ____
ROOT
ATOM      1  C   LIG    1       23.152 -20.044   4.290  0.00  0.00    +0.044 C 
ATOM      2  C   LIG    1       21.877 -20.470   5.058  0.00  0.00    +0.122 C 
ATOM      3  C   LIG    1       22.382 -20.911   6.441  0.00  0.00    +0.036 C 
ATOM      4  C   LIG    1       23.818 -21.403   6.221  0.00  0.00    -0.001 C 
ATOM      5  C   LIG    1       24.906 -20.589   6.930  0.00  0.00    +0.034 C 
ATOM      6  C   LIG    1       26.021 -20.511   5.921  0.00  0.00    -0.073 C 
ATOM      7  C   LIG    1       27.225 -19.979   6.176  0.00  0.00    -0.027 C 
ATOM      8  C   LIG    1       25.589 -21.070   4.597  0.00  0.00    +0.035 C 
ATOM      9  C   LIG    1       24.087 -21.208   4.725  0.00  0.00    +0.006 C 
ENDROOT
BRANCH   1  11
ATOM     10  C   LIG    1       22.742 -17.655   5.066  0.00  0.00    +0.000 C 
ATOM     11  C   LIG    1       23.574 -18.608   4.593  0.00  0.00    -0.022 C 
BRANCH  10  12
ATOM     12  C   LIG    1       23.061 -16.215   5.402  0.00  0.00    +0.141 C 
BRANCH  12  13
ATOM     13  C   LIG    1       23.379 -15.368   4.137  0.00  0.00    +0.030 C 
ATOM     14  C   LIG    1       24.507 -15.988   3.294  0.00  0.00    +0.011 C 
BRANCH  13  15
ATOM     15  C   LIG    1       22.144 -15.197   3.233  0.00  0.00    +0.095 C 
BRANCH  15  18
ATOM     16  C   LIG    1       19.769 -18.599   3.048  0.00  0.00    +0.106 C 
ATOM     17  C   LIG    1       20.628 -17.432   3.138  0.00  0.00    -0.106 C 
ATOM     18  C   LIG    1       21.328 -16.426   3.184  0.00  0.00    -0.102 C 
ENDBRANCH  15  18
ENDBRANCH  13  15
ENDBRANCH  12  13
BRANCH  12  19
ATOM     19  O   LIG    1       21.986 -15.625   6.121  0.00  0.00    -0.388 OA
ATOM     20  H   LIG    1       21.481 -16.349   6.528  0.00  0.00    +0.210 HD
ENDBRANCH  12  19
ENDBRANCH  10  12
ENDBRANCH   1  11
BRANCH   2  21
ATOM     21  O   LIG    1       21.257 -21.571   4.391  0.00  0.00    -0.391 OA
ATOM     22  H   LIG    1       20.607 -21.196   3.771  0.00  0.00    +0.210 HD
ENDBRANCH   2  21
BRANCH   7  23
ATOM     23  C   LIG    1       28.311 -19.777   5.159  0.00  0.00    +0.028 C 
BRANCH  23  24
ATOM     24  C   LIG    1       28.960 -18.388   5.228  0.00  0.00    +0.015 C 
BRANCH  24  25
ATOM     25  C   LIG    1       27.939 -17.248   5.207  0.00  0.00    +0.121 C 
BRANCH  25  26
ATOM     26  C   LIG    1       27.309 -17.119   3.852  0.00  0.00    +0.307 C 
ATOM     27  O   LIG    1       26.831 -18.070   3.247  0.00  0.00    -0.251 OA
BRANCH  26  28
ATOM     28  O   LIG    1       27.301 -15.830   3.424  0.00  0.00    -0.457 OA
BRANCH  28  29
ATOM     29  C   LIG    1       27.873 -14.900   4.347  0.00  0.00    +0.311 C 
BRANCH  29  30
ATOM     30  C   LIG    1       27.724 -13.472   3.830  0.00  0.00    +0.200 C 
ATOM     31  O   LIG    1       28.710 -12.765   3.619  0.00  0.00    -0.288 OA
BRANCH  30  32
ATOM     32  C   LIG    1       26.362 -12.935   3.568  0.00  0.00    +0.021 A 
ATOM     33  C   LIG    1       25.894 -12.734   2.265  0.00  0.00    +0.011 A 
ATOM     34  C   LIG    1       24.612 -12.250   2.031  0.00  0.00    +0.001 A 
ATOM     35  C   LIG    1       23.790 -11.937   3.105  0.00  0.00    +0.000 A 
ATOM     36  C   LIG    1       24.243 -12.131   4.412  0.00  0.00    +0.001 A 
ATOM     37  C   LIG    1       25.522 -12.643   4.648  0.00  0.00    +0.011 A 
ENDBRANCH  30  32
ENDBRANCH  29  30
ENDBRANCH  28  29
ENDBRANCH  26  28
ENDBRANCH  25  26
ENDBRANCH  24  25
ENDBRANCH  23  24
ENDBRANCH   7  23
TORSDOF 15
ENDMDL
MODEL 2
REMARK VINA RESULT:       5.2      2.018      4.733
REMARK  Name = *****
REMARK                            x       y       z     vdW  Elec       q    Type
REMARK                         _______ _______ _______ _____ _____    ______ ____
ROOT
ATOM      1  C   LIG    1       27.570 -20.186   5.298  0.00  0.00    +0.044 C 
ATOM      2  C   LIG    1       28.422 -20.634   6.511  0.00  0.00    +0.122 C 
ATOM      3  C   LIG    1       29.034 -19.335   7.061  0.00  0.00    +0.036 C 
ATOM      4  C   LIG    1       29.139 -18.385   5.861  0.00  0.00    -0.001 C 
ATOM      5  C   LIG    1       28.282 -17.118   5.952  0.00  0.00    +0.034 C 
ATOM      6  C   LIG    1       27.743 -16.940   4.556  0.00  0.00    -0.073 C 
ATOM      7  C   LIG    1       27.029 -15.877   4.160  0.00  0.00    -0.027 C 
ATOM      8  C   LIG    1       28.078 -18.122   3.695  0.00  0.00    +0.035 C 
ATOM      9  C   LIG    1       28.567 -19.168   4.675  0.00  0.00    +0.006 C 
ENDROOT
BRANCH   1  11
ATOM     10  C   LIG    1       25.040 -20.043   5.060  0.00  0.00    +0.000 C 
ATOM     11  C   LIG    1       26.178 -19.701   5.700  0.00  0.00    -0.022 C 
BRANCH  10  12
ATOM     12  C   LIG    1       23.622 -19.625   5.380  0.00  0.00    +0.141 C 
BRANCH  12  13
ATOM     13  C   LIG    1       22.603 -20.126   4.318  0.00  0.00    +0.030 C 
ATOM     14  C   LIG    1       21.599 -21.132   4.908  0.00  0.00    +0.011 C 
BRANCH  13  15
ATOM     15  C   LIG    1       21.807 -18.966   3.691  0.00  0.00    +0.095 C 
BRANCH  15  18
ATOM     16  C   LIG    1       22.260 -15.442   5.840  0.00  0.00    +0.106 C 
ATOM     17  C   LIG    1       22.133 -16.660   5.061  0.00  0.00    -0.106 C 
ATOM     18  C   LIG    1       21.999 -17.706   4.434  0.00  0.00    -0.102 C 
ENDBRANCH  15  18
ENDBRANCH  13  15
ENDBRANCH  12  13
BRANCH  12  19
ATOM     19  O   LIG    1       23.246 -20.094   6.668  0.00  0.00    -0.388 OA
ATOM     20  H   LIG    1       23.374 -21.058   6.671  0.00  0.00    +0.210 HD
ENDBRANCH  12  19
ENDBRANCH  10  12
ENDBRANCH   1  11
BRANCH   2  21
ATOM     21  O   LIG    1       29.459 -21.514   6.073  0.00  0.00    -0.391 OA
ATOM     22  H   LIG    1       29.119 -22.421   6.169  0.00  0.00    +0.210 HD
ENDBRANCH   2  21
BRANCH   7  23
ATOM     23  C   LIG    1       26.377 -15.730   2.815  0.00  0.00    +0.028 C 
BRANCH  23  24
ATOM     24  C   LIG    1       26.677 -14.387   2.136  0.00  0.00    +0.015 C 
BRANCH  24  25
ATOM     25  C   LIG    1       25.446 -13.484   2.024  0.00  0.00    +0.121 C 
BRANCH  25  26
ATOM     26  C   LIG    1       24.304 -14.036   2.822  0.00  0.00    +0.307 C 
ATOM     27  O   LIG    1       24.227 -15.213   3.150  0.00  0.00    -0.251 OA
BRANCH  26  28
ATOM     28  O   LIG    1       23.414 -13.066   3.161  0.00  0.00    -0.457 OA
BRANCH  28  29
ATOM     29  C   LIG    1       24.014 -11.813   3.500  0.00  0.00    +0.311 C 
BRANCH  29  30
ATOM     30  C   LIG    1       24.511 -11.832   4.943  0.00  0.00    +0.200 C 
ATOM     31  O   LIG    1       23.796 -11.447   5.869  0.00  0.00    -0.288 OA
BRANCH  30  32
ATOM     32  C   LIG    1       25.882 -12.334   5.230  0.00  0.00    +0.021 A 
ATOM     33  C   LIG    1       27.000 -11.833   4.554  0.00  0.00    +0.011 A 
ATOM     34  C   LIG    1       28.278 -12.294   4.843  0.00  0.00    +0.001 A 
ATOM     35  C   LIG    1       28.450 -13.287   5.799  0.00  0.00    +0.000 A 
ATOM     36  C   LIG    1       27.343 -13.798   6.481  0.00  0.00    +0.001 A 
ATOM     37  C   LIG    1       26.060 -13.315   6.210  0.00  0.00    +0.011 A 
ENDBRANCH  30  32
ENDBRANCH  29  30
ENDBRANCH  28  29
ENDBRANCH  26  28
ENDBRANCH  25  26
ENDBRANCH  24  25
ENDBRANCH  23  24
ENDBRANCH   7  23
TORSDOF 15
ENDMDL
MODEL 3
REMARK VINA RESULT:       5.8      1.237      2.580
REMARK  Name = *****
REMARK                            x       y       z     vdW  Elec       q    Type
REMARK                         _______ _______ _______ _____ _____    ______ ____
ROOT
ATOM      1  C   LIG    1       22.729 -19.864   3.867  0.00  0.00    +0.044 C 
ATOM      2  C   LIG    1       21.354 -20.364   4.375  0.00  0.00    +0.122 C 
ATOM      3  C   LIG    1       21.640 -20.943   5.770  0.00  0.00    +0.036 C 
ATOM      4  C   LIG    1       23.100 -21.412   5.734  0.00  0.00    -0.001 C 
ATOM      5  C   LIG    1       24.049 -20.675   6.685  0.00  0.00    +0.034 C 
ATOM      6  C   LIG    1       25.309 -20.497   5.881  0.00  0.00    -0.073 C 
ATOM      7  C   LIG    1       26.449 -19.994   6.377  0.00  0.00    -0.027 C 
ATOM      8  C   LIG    1       25.102 -20.918   4.455  0.00  0.00    +0.035 C 
ATOM      9  C   LIG    1       23.600 -21.067   4.327  0.00  0.00    +0.006 C 
ENDROOT
BRANCH   1  11
ATOM     10  C   LIG    1       22.315 -17.761   5.240  0.00  0.00    +0.000 C 
ATOM     11  C   LIG    1       23.076 -18.466   4.376  0.00  0.00    -0.022 C 
BRANCH  10  12
ATOM     12  C   LIG    1       22.572 -16.382   5.805  0.00  0.00    +0.141 C 
BRANCH  12  13
ATOM     13  C   LIG    1       23.296 -15.452   4.791  0.00  0.00    +0.030 C 
ATOM     14  C   LIG    1       22.546 -15.361   3.451  0.00  0.00    +0.011 C 
BRANCH  13  15
ATOM     15  C   LIG    1       23.470 -14.024   5.341  0.00  0.00    +0.095 C 
BRANCH  15  18
ATOM     16  C   LIG    1       27.379 -13.170   6.455  0.00  0.00    +0.106 C 
ATOM     17  C   LIG    1       26.028 -13.496   6.035  0.00  0.00    -0.106 C 
ATOM     18  C   LIG    1       24.872 -13.749   5.715  0.00  0.00    -0.102 C 
ENDBRANCH  15  18
ENDBRANCH  13  15
ENDBRANCH  12  13
BRANCH  12  19
ATOM     19  O   LIG    1       21.352 -15.783   6.223  0.00  0.00    -0.388 OA
ATOM     20  H   LIG    1       21.424 -14.830   6.044  0.00  0.00    +0.210 HD
ENDBRANCH  12  19
ENDBRANCH  10  12
ENDBRANCH   1  11
BRANCH   2  21
ATOM     21  O   LIG    1       20.865 -21.392   3.511  0.00  0.00    -0.391 OA
ATOM     22  H   LIG    1       21.627 -21.947   3.273  0.00  0.00    +0.210 HD
ENDBRANCH   2  21
BRANCH   7  23
ATOM     23  C   LIG    1       27.680 -19.692   5.571  0.00  0.00    +0.028 C 
BRANCH  23  24
ATOM     24  C   LIG    1       27.656 -18.301   4.922  0.00  0.00    +0.015 C 
BRANCH  24  25
ATOM     25  C   LIG    1       26.251 -17.857   4.508  0.00  0.00    +0.121 C 
BRANCH  25  26
ATOM     26  C   LIG    1       26.183 -17.603   3.032  0.00  0.00    +0.307 C 
ATOM     27  O   LIG    1       25.808 -18.447   2.228  0.00  0.00    -0.251 OA
BRANCH  26  28
ATOM     28  O   LIG    1       26.540 -16.329   2.725  0.00  0.00    -0.457 OA
BRANCH  28  29
ATOM     29  C   LIG    1       27.530 -15.771   3.593  0.00  0.00    +0.311 C 
BRANCH  29  30
ATOM     30  C   LIG    1       27.631 -14.262   3.388  0.00  0.00    +0.200 C 
ATOM     31  O   LIG    1       28.664 -13.649   3.663  0.00  0.00    -0.288 OA
BRANCH  30  32
ATOM     32  C   LIG    1       26.462 -13.526   2.836  0.00  0.00    +0.021 A 
ATOM     33  C   LIG    1       25.262 -14.180   2.535  0.00  0.00    +0.011 A 
ATOM     34  C   LIG    1       24.170 -13.480   2.039  0.00  0.00    +0.001 A 
ATOM     35  C   LIG    1       24.275 -12.114   1.812  0.00  0.00    +0.000 A 
ATOM     36  C   LIG    1       25.466 -11.447   2.106  0.00  0.00    +0.001 A 
ATOM     37  C   LIG    1       26.557 -12.146   2.631  0.00  0.00    +0.011 A 
ENDBRANCH  30  32
ENDBRANCH  29  30
ENDBRANCH  28  29
ENDBRANCH  26  28
ENDBRANCH  25  26
ENDBRANCH  24  25
ENDBRANCH  23  24
ENDBRANCH   7  23
TORSDOF 15
ENDMDL
MODEL 4
REMARK VINA RESULT:       6.9      1.863      7.074
REMARK  Name = *****
REMARK                            x       y       z     vdW  Elec       q    Type
REMARK                         _______ _______ _______ _____ _____    ______ ____
ROOT
ATOM      1  C   LIG    1       24.472 -12.997   2.950  0.00  0.00    +0.044 C 
ATOM      2  C   LIG    1       23.727 -11.958   3.823  0.00  0.00    +0.122 C 
ATOM      3  C   LIG    1       23.255 -12.747   5.055  0.00  0.00    +0.036 C 
ATOM      4  C   LIG    1       23.081 -14.195   4.577  0.00  0.00    -0.001 C 
ATOM      5  C   LIG    1       24.016 -15.218   5.231  0.00  0.00    +0.034 C 
ATOM      6  C   LIG    1       24.414 -16.127   4.098  0.00  0.00    -0.073 C 
ATOM      7  C   LIG    1       25.145 -17.241   4.254  0.00  0.00    -0.027 C 
ATOM      8  C   LIG    1       23.921 -15.596   2.784  0.00  0.00    +0.035 C 
ATOM      9  C   LIG    1       23.478 -14.183   3.097  0.00  0.00    +0.006 C 
ENDROOT
BRANCH   1  11
ATOM     10  C   LIG    1       26.992 -12.945   2.590  0.00  0.00    +0.000 C 
ATOM     11  C   LIG    1       25.925 -13.198   3.378  0.00  0.00    -0.022 C 
BRANCH  10  12
ATOM     12  C   LIG    1       28.459 -13.104   2.920  0.00  0.00    +0.141 C 
BRANCH  12  13
ATOM     13  C   LIG    1       28.709 -13.269   4.446  0.00  0.00    +0.030 C 
ATOM     14  C   LIG    1       28.619 -11.928   5.195  0.00  0.00    +0.011 C 
BRANCH  13  15
ATOM     15  C   LIG    1       27.708 -14.246   5.091  0.00  0.00    +0.095 C 
BRANCH  15  18
ATOM     16  C   LIG    1       28.911 -18.214   4.848  0.00  0.00    +0.106 C 
ATOM     17  C   LIG    1       28.525 -16.816   4.908  0.00  0.00    -0.106 C 
ATOM     18  C   LIG    1       28.161 -15.647   4.979  0.00  0.00    -0.102 C 
ENDBRANCH  15  18
ENDBRANCH  13  15
ENDBRANCH  12  13
BRANCH  12  19
ATOM     19  O   LIG    1       29.007 -14.213   2.219  0.00  0.00    -0.388 OA
ATOM     20  H   LIG    1       29.663 -14.627   2.805  0.00  0.00    +0.210 HD
ENDBRANCH  12  19
ENDBRANCH  10  12
ENDBRANCH   1  11
BRANCH   2  21
ATOM     21  O   LIG    1       22.600 -11.447   3.109  0.00  0.00    -0.391 OA
ATOM     22  H   LIG    1       21.818 -11.923   3.439  0.00  0.00    +0.210 HD
ENDBRANCH   2  21
BRANCH   7  23
ATOM     23  C   LIG    1       25.659 -18.096   3.132  0.00  0.00    +0.028 C 
BRANCH  23  24
ATOM     24  C   LIG    1       25.485 -19.600   3.385  0.00  0.00    +0.015 C 
BRANCH  24  25
ATOM     25  C   LIG    1       26.358 -20.121   4.528  0.00  0.00    +0.121 C 
BRANCH  25  26
ATOM     26  C   LIG    1       25.527 -20.829   5.556  0.00  0.00    +0.307 C 
ATOM     27  O   LIG    1       25.708 -20.703   6.761  0.00  0.00    -0.251 OA
BRANCH  26  28
ATOM     28  O   LIG    1       24.544 -21.571   4.981  0.00  0.00    -0.457 OA
BRANCH  28  29
ATOM     29  C   LIG    1       23.285 -21.497   5.654  0.00  0.00    +0.311 C 
BRANCH  29  30
ATOM     30  C   LIG    1       22.830 -20.046   5.779  0.00  0.00    +0.200 C 
ATOM     31  O   LIG    1       23.307 -19.300   6.636  0.00  0.00    -0.288 OA
BRANCH  30  32
ATOM     32  C   LIG    1       21.800 -19.526   4.840  0.00  0.00    +0.021 A 
ATOM     33  C   LIG    1       20.841 -20.369   4.267  0.00  0.00    +0.011 A 
ATOM     34  C   LIG    1       19.871 -19.871   3.407  0.00  0.00    +0.001 A 
ATOM     35  C   LIG    1       19.865 -18.519   3.088  0.00  0.00    +0.000 A 
ATOM     36  C   LIG    1       20.817 -17.665   3.650  0.00  0.00    +0.001 A 
ATOM     37  C   LIG    1       21.777 -18.161   4.537  0.00  0.00    +0.011 A 
ENDBRANCH  30  32
ENDBRANCH  29  30
ENDBRANCH  28  29
ENDBRANCH  26  28
ENDBRANCH  25  26
ENDBRANCH  24  25
ENDBRANCH  23  24
ENDBRANCH   7  23
TORSDOF 15
ENDMDL
