MODEL 1
REMARK VINA RESULT:      34.4      0.000      0.000
REMARK  Name = *****
REMARK                            x       y       z     vdW  Elec       q    Type
REMARK                         _______ _______ _______ _____ _____    ______ ____
ROOT
ATOM      1  C   LIG    1       22.358 -15.303   3.036  0.00  0.00    +0.048 C 
ATOM      2  C   LIG    1       23.630 -15.852   3.577  0.00  0.00    +0.008 A 
ATOM      3  C   LIG    1       23.910 -17.149   4.030  0.00  0.00    +0.078 A 
ATOM      4  N   LIG    1       25.296 -17.155   4.270  0.00  0.00    -0.230 N 
ATOM      5  N   LIG    1       25.812 -15.900   4.280  0.00  0.00    -0.161 NA
ATOM      6  C   LIG    1       24.810 -15.100   3.858  0.00  0.00    +0.152 A 
ENDROOT
BRANCH   4   7
ATOM      7  C   LIG    1       26.179 -18.269   4.458  0.00  0.00    +0.084 A 
ATOM      8  C   LIG    1       26.284 -19.324   3.527  0.00  0.00    +0.068 A 
ATOM      9 CL   LIG    1       25.415 -19.428   2.030  0.00  0.00    -0.081 Cl
ATOM     10  C   LIG    1       27.218 -20.351   3.735  0.00  0.00    +0.042 A 
ATOM     11  C   LIG    1       28.039 -20.341   4.858  0.00  0.00    +0.043 A 
ATOM     12 CL   LIG    1       29.225 -21.570   5.064  0.00  0.00    -0.084 Cl
ATOM     13  C   LIG    1       27.914 -19.335   5.808  0.00  0.00    +0.022 A 
ATOM     14  C   LIG    1       26.976 -18.315   5.618  0.00  0.00    +0.031 A 
ENDBRANCH   4   7
BRANCH   3  15
ATOM     15  C   LIG    1       22.972 -18.260   4.336  0.00  0.00    +0.001 A 
ATOM     16  C   LIG    1       22.114 -18.790   3.360  0.00  0.00    +0.011 A 
ATOM     17  C   LIG    1       21.186 -19.795   3.668  0.00  0.00    +0.020 A 
ATOM     18  C   LIG    1       21.130 -20.318   4.955  0.00  0.00    +0.041 A 
ATOM     19 CL   LIG    1       20.012 -21.568   5.328  0.00  0.00    -0.084 Cl
ATOM     20  C   LIG    1       21.977 -19.825   5.941  0.00  0.00    +0.020 A 
ATOM     21  C   LIG    1       22.865 -18.785   5.639  0.00  0.00    +0.011 A 
ENDBRANCH   3  15
BRANCH   6  22
ATOM     22  C   LIG    1       25.015 -13.635   3.789  0.00  0.00    +0.278 C 
ATOM     23  N   LIG    1       26.357 -13.290   3.844  0.00  0.00    -0.243 N 
ATOM     24  H   LIG    1       27.010 -14.063   3.942  0.00  0.00    +0.170 HD
ATOM     25  O   LIG    1       24.088 -12.827   3.743  0.00  0.00    -0.267 OA
BRANCH  23  26
ATOM     26  N   LIG    1       26.788 -11.943   3.862  0.00  0.00    -0.227 NA
ATOM     27  C   LIG    1       27.009 -11.456   5.233  0.00  0.00    +0.105 C 
ATOM     28  C   LIG    1       28.207 -12.116   5.919  0.00  0.00    +0.017 C 
ATOM     29  C   LIG    1       29.475 -12.010   5.076  0.00  0.00    +0.003 C 
ATOM     30  C   LIG    1       29.233 -12.426   3.627  0.00  0.00    +0.017 C 
ATOM     31  C   LIG    1       27.992 -11.749   3.042  0.00  0.00    +0.105 C 
ENDBRANCH  23  26
ENDBRANCH   6  22
TORSDOF 4
ENDMDL
