MODEL 1
REMARK VINA RESULT:      -5.5      0.000      0.000
REMARK  Name = *****
REMARK                            x       y       z     vdW  Elec       q    Type
REMARK                         _______ _______ _______ _____ _____    ______ ____
ROOT
ATOM      1  C   LIG    1       24.462 -14.979   4.214  0.00  0.00    -0.034 A 
ATOM      2  C   LIG    1       25.155 -16.065   3.654  0.00  0.00    +0.009 A 
ATOM      3  C   LIG    1       24.553 -17.332   3.555  0.00  0.00    -0.026 A 
ATOM      4  C   LIG    1       25.334 -18.505   3.026  0.00  0.00    +0.115 C 
ATOM      5  C   LIG    1       25.862 -19.393   4.128  0.00  0.00    +0.169 C 
ATOM      6  C   LIG    1       24.945 -20.076   5.105  0.00  0.00    +0.031 A 
ATOM      7  C   LIG    1       23.537 -20.021   5.111  0.00  0.00    +0.023 A 
ATOM      8  S   LIG    1       22.485 -19.121   3.973  0.00  0.00    -0.088 S 
ATOM      9  C   LIG    1       22.833 -20.749   6.093  0.00  0.00    +0.016 A 
ATOM     10  C   LIG    1       23.497 -21.507   7.059  0.00  0.00    +0.001 A 
ATOM     11  C   LIG    1       24.882 -21.554   7.062  0.00  0.00    +0.001 A 
ATOM     12  C   LIG    1       25.596 -20.848   6.095  0.00  0.00    +0.012 A 
ATOM     13  O   LIG    1       27.080 -19.578   4.223  0.00  0.00    -0.292 OA
ATOM     14  C   LIG    1       23.243 -17.512   4.011  0.00  0.00    +0.016 A 
ATOM     15  C   LIG    1       22.528 -16.424   4.515  0.00  0.00    +0.015 A 
ATOM     16  C   LIG    1       23.133 -15.168   4.621  0.00  0.00    +0.005 A 
ENDROOT
BRANCH   1  18
ATOM     17  C   LIG    1       24.949 -12.721   3.208  0.00  0.00    +0.024 C 
ATOM     18  C   LIG    1       25.137 -13.629   4.426  0.00  0.00    +0.124 C 
BRANCH  18  19
ATOM     19  C   LIG    1       26.619 -13.711   4.796  0.00  0.00    +0.312 C 
ATOM     20  O   LIG    1       27.526 -13.732   3.971  0.00  0.00    -0.250 OA
BRANCH  19  21
ATOM     21  O   LIG    1       26.891 -13.677   6.121  0.00  0.00    -0.480 OA
ATOM     22  H   LIG    1       27.829 -13.822   6.350  0.00  0.00    +0.295 HD
ENDBRANCH  19  21
ENDBRANCH  18  19
ENDBRANCH   1  18
TORSDOF 3
ENDMDL
MODEL 2
REMARK VINA RESULT:      -4.7      1.168      1.556
REMARK  Name = *****
REMARK                            x       y       z     vdW  Elec       q    Type
REMARK                         _______ _______ _______ _____ _____    ______ ____
ROOT
ATOM      1  C   LIG    1       24.820 -15.025   4.028  0.00  0.00    -0.034 A 
ATOM      2  C   LIG    1       25.501 -16.156   3.548  0.00  0.00    +0.009 A 
ATOM      3  C   LIG    1       24.852 -17.398   3.437  0.00  0.00    -0.026 A 
ATOM      4  C   LIG    1       25.614 -18.618   2.995  0.00  0.00    +0.115 C 
ATOM      5  C   LIG    1       26.021 -19.496   4.154  0.00  0.00    +0.169 C 
ATOM      6  C   LIG    1       25.006 -20.111   5.079  0.00  0.00    +0.031 A 
ATOM      7  C   LIG    1       23.606 -19.994   4.981  0.00  0.00    +0.023 A 
ATOM      8  S   LIG    1       22.679 -19.083   3.747  0.00  0.00    -0.088 S 
ATOM      9  C   LIG    1       22.800 -20.663   5.927  0.00  0.00    +0.016 A 
ATOM     10  C   LIG    1       23.358 -21.422   6.957  0.00  0.00    +0.001 A 
ATOM     11  C   LIG    1       24.736 -21.530   7.062  0.00  0.00    +0.001 A 
ATOM     12  C   LIG    1       25.549 -20.882   6.132  0.00  0.00    +0.012 A 
ATOM     13  O   LIG    1       27.219 -19.732   4.342  0.00  0.00    -0.292 OA
ATOM     14  C   LIG    1       23.505 -17.508   3.800  0.00  0.00    +0.016 A 
ATOM     15  C   LIG    1       22.806 -16.375   4.223  0.00  0.00    +0.015 A 
ATOM     16  C   LIG    1       23.459 -15.145   4.341  0.00  0.00    +0.005 A 
ENDROOT
BRANCH   1  18
ATOM     17  C   LIG    1       26.304 -13.709   5.581  0.00  0.00    +0.024 C 
ATOM     18  C   LIG    1       25.539 -13.700   4.255  0.00  0.00    +0.124 C 
BRANCH  18  19
ATOM     19  C   LIG    1       24.636 -12.467   4.178  0.00  0.00    +0.312 C 
ATOM     20  O   LIG    1       24.256 -11.840   5.161  0.00  0.00    -0.250 OA
BRANCH  19  21
ATOM     21  O   LIG    1       24.336 -12.044   2.929  0.00  0.00    -0.480 OA
ATOM     22  H   LIG    1       23.586 -11.419   2.878  0.00  0.00    +0.295 HD
ENDBRANCH  19  21
ENDBRANCH  18  19
ENDBRANCH   1  18
TORSDOF 3
ENDMDL
