MODEL 1
REMARK VINA RESULT:      -6.7      0.000      0.000
REMARK  Name = *****
REMARK                            x       y       z     vdW  Elec       q    Type
REMARK                         _______ _______ _______ _____ _____    ______ ____
ROOT
ATOM      1  N   LIG    1       24.800 -20.549   5.471  0.00  0.00    -0.277 N 
ATOM      2  C   LIG    1       25.598 -20.159   4.396  0.00  0.00    +0.331 C 
ATOM      3  O   LIG    1       25.175 -19.998   3.251  0.00  0.00    -0.246 OA
ATOM      4  N   LIG    1       26.942 -19.940   4.651  0.00  0.00    -0.273 N 
ATOM      5  H   LIG    1       27.500 -19.661   3.860  0.00  0.00    +0.173 HD
ATOM      6  C   LIG    1       27.587 -20.038   5.863  0.00  0.00    +0.280 C 
ATOM      7  O   LIG    1       28.783 -19.814   6.006  0.00  0.00    -0.265 OA
ATOM      8  C   LIG    1       26.710 -20.420   6.906  0.00  0.00    +0.149 A 
ATOM      9  N   LIG    1       26.933 -20.625   8.235  0.00  0.00    -0.339 N 
ATOM     10  H   LIG    1       27.818 -20.533   8.718  0.00  0.00    +0.167 HD
ATOM     11  C   LIG    1       25.726 -20.977   8.784  0.00  0.00    +0.199 A 
ATOM     12  N   LIG    1       24.766 -21.004   7.881  0.00  0.00    -0.218 NA
ATOM     13  C   LIG    1       25.381 -20.661   6.717  0.00  0.00    +0.168 A 
ENDROOT
BRANCH   1  14
ATOM     14  C   LIG    1       23.373 -20.773   5.277  0.00  0.00    +0.128 C 
BRANCH  14  16
ATOM     15  C   LIG    1       22.187 -18.744   4.358  0.00  0.00    +0.005 C 
ATOM     16  C   LIG    1       22.552 -19.526   5.610  0.00  0.00    +0.018 C 
ENDBRANCH  14  16
ENDBRANCH   1  14
TORSDOF 2
ENDMDL
MODEL 2
REMARK VINA RESULT:      -6.7      1.908      2.899
REMARK  Name = *****
REMARK                            x       y       z     vdW  Elec       q    Type
REMARK                         _______ _______ _______ _____ _____    ______ ____
ROOT
ATOM      1  N   LIG    1       24.828 -20.677   5.605  0.00  0.00    -0.277 N 
ATOM      2  C   LIG    1       23.899 -21.045   6.578  0.00  0.00    +0.331 C 
ATOM      3  O   LIG    1       22.730 -21.341   6.332  0.00  0.00    -0.246 OA
ATOM      4  N   LIG    1       24.336 -21.076   7.892  0.00  0.00    -0.273 N 
ATOM      5  H   LIG    1       23.649 -21.343   8.579  0.00  0.00    +0.173 HD
ATOM      6  C   LIG    1       25.605 -20.811   8.355  0.00  0.00    +0.280 C 
ATOM      7  O   LIG    1       25.915 -20.875   9.539  0.00  0.00    -0.265 OA
ATOM      8  C   LIG    1       26.494 -20.464   7.309  0.00  0.00    +0.149 A 
ATOM      9  N   LIG    1       27.817 -20.136   7.328  0.00  0.00    -0.339 N 
ATOM     10  H   LIG    1       28.411 -20.082   8.146  0.00  0.00    +0.167 HD
ATOM     11  C   LIG    1       28.178 -19.896   6.027  0.00  0.00    +0.199 A 
ATOM     12  N   LIG    1       27.165 -20.054   5.199  0.00  0.00    -0.218 NA
ATOM     13  C   LIG    1       26.121 -20.403   5.999  0.00  0.00    +0.168 A 
ENDROOT
BRANCH   1  14
ATOM     14  C   LIG    1       24.440 -20.646   4.201  0.00  0.00    +0.128 C 
BRANCH  14  16
ATOM     15  C   LIG    1       22.771 -18.755   4.150  0.00  0.00    +0.005 C 
ATOM     16  C   LIG    1       24.153 -19.223   3.721  0.00  0.00    +0.018 C 
ENDBRANCH  14  16
ENDBRANCH   1  14
TORSDOF 2
ENDMDL
MODEL 3
REMARK VINA RESULT:      -6.4      1.963      3.534
REMARK  Name = *****
REMARK                            x       y       z     vdW  Elec       q    Type
REMARK                         _______ _______ _______ _____ _____    ______ ____
ROOT
ATOM      1  N   LIG    1       24.749 -21.112   7.125  0.00  0.00    -0.277 N 
ATOM      2  C   LIG    1       25.753 -21.185   8.089  0.00  0.00    +0.331 C 
ATOM      3  O   LIG    1       25.572 -21.590   9.237  0.00  0.00    -0.246 OA
ATOM      4  N   LIG    1       27.022 -20.777   7.715  0.00  0.00    -0.273 N 
ATOM      5  H   LIG    1       27.732 -20.836   8.427  0.00  0.00    +0.173 HD
ATOM      6  C   LIG    1       27.422 -20.327   6.476  0.00  0.00    +0.280 C 
ATOM      7  O   LIG    1       28.574 -19.996   6.223  0.00  0.00    -0.265 OA
ATOM      8  C   LIG    1       26.354 -20.298   5.548  0.00  0.00    +0.149 A 
ATOM      9  N   LIG    1       26.315 -19.929   4.236  0.00  0.00    -0.339 N 
ATOM     10  H   LIG    1       27.094 -19.593   3.683  0.00  0.00    +0.167 HD
ATOM     11  C   LIG    1       25.021 -20.104   3.819  0.00  0.00    +0.199 A 
ATOM     12  N   LIG    1       24.250 -20.560   4.787  0.00  0.00    -0.218 NA
ATOM     13  C   LIG    1       25.081 -20.675   5.859  0.00  0.00    +0.168 A 
ENDROOT
BRANCH   1  14
ATOM     14  C   LIG    1       23.396 -21.548   7.446  0.00  0.00    +0.128 C 
BRANCH  14  16
ATOM     15  C   LIG    1       23.834 -23.944   6.790  0.00  0.00    +0.005 C 
ATOM     16  C   LIG    1       22.954 -22.723   6.572  0.00  0.00    +0.018 C 
ENDBRANCH  14  16
ENDBRANCH   1  14
TORSDOF 2
ENDMDL
MODEL 4
REMARK VINA RESULT:      -6.2      2.590      3.650
REMARK  Name = *****
REMARK                            x       y       z     vdW  Elec       q    Type
REMARK                         _______ _______ _______ _____ _____    ______ ____
ROOT
ATOM      1  N   LIG    1       27.711 -21.089   6.870  0.00  0.00    -0.277 N 
ATOM      2  C   LIG    1       27.280 -20.275   5.824  0.00  0.00    +0.331 C 
ATOM      3  O   LIG    1       26.181 -20.382   5.279  0.00  0.00    -0.246 OA
ATOM      4  N   LIG    1       28.152 -19.291   5.386  0.00  0.00    -0.273 N 
ATOM      5  H   LIG    1       27.822 -18.715   4.628  0.00  0.00    +0.173 HD
ATOM      6  C   LIG    1       29.400 -19.000   5.888  0.00  0.00    +0.280 C 
ATOM      7  O   LIG    1       30.106 -18.099   5.451  0.00  0.00    -0.265 OA
ATOM      8  C   LIG    1       29.759 -19.855   6.957  0.00  0.00    +0.149 A 
ATOM      9  N   LIG    1       30.884 -19.908   7.726  0.00  0.00    -0.339 N 
ATOM     10  H   LIG    1       31.695 -19.307   7.646  0.00  0.00    +0.167 HD
ATOM     11  C   LIG    1       30.698 -20.930   8.621  0.00  0.00    +0.199 A 
ATOM     12  N   LIG    1       29.529 -21.517   8.460  0.00  0.00    -0.218 NA
ATOM     13  C   LIG    1       28.950 -20.849   7.425  0.00  0.00    +0.168 A 
ENDROOT
BRANCH   1  14
ATOM     14  C   LIG    1       26.834 -22.129   7.394  0.00  0.00    +0.128 C 
BRANCH  14  16
ATOM     15  C   LIG    1       24.387 -21.720   7.850  0.00  0.00    +0.005 C 
ATOM     16  C   LIG    1       25.805 -21.564   8.374  0.00  0.00    +0.018 C 
ENDBRANCH  14  16
ENDBRANCH   1  14
TORSDOF 2
ENDMDL
MODEL 5
REMARK VINA RESULT:      -6.1      1.458      2.049
REMARK  Name = *****
REMARK                            x       y       z     vdW  Elec       q    Type
REMARK                         _______ _______ _______ _____ _____    ______ ____
ROOT
ATOM      1  N   LIG    1       24.345 -21.220   5.916  0.00  0.00    -0.277 N 
ATOM      2  C   LIG    1       24.821 -20.977   4.628  0.00  0.00    +0.331 C 
ATOM      3  O   LIG    1       24.164 -21.177   3.606  0.00  0.00    -0.246 OA
ATOM      4  N   LIG    1       26.108 -20.480   4.511  0.00  0.00    -0.273 N 
ATOM      5  H   LIG    1       26.433 -20.314   3.571  0.00  0.00    +0.173 HD
ATOM      6  C   LIG    1       26.977 -20.167   5.532  0.00  0.00    +0.280 C 
ATOM      7  O   LIG    1       28.100 -19.716   5.342  0.00  0.00    -0.265 OA
ATOM      8  C   LIG    1       26.418 -20.422   6.806  0.00  0.00    +0.149 A 
ATOM      9  N   LIG    1       26.927 -20.253   8.060  0.00  0.00    -0.339 N 
ATOM     10  H   LIG    1       27.846 -19.897   8.292  0.00  0.00    +0.167 HD
ATOM     11  C   LIG    1       25.952 -20.657   8.935  0.00  0.00    +0.199 A 
ATOM     12  N   LIG    1       24.867 -21.067   8.308  0.00  0.00    -0.218 NA
ATOM     13  C   LIG    1       25.162 -20.922   6.987  0.00  0.00    +0.168 A 
ENDROOT
BRANCH   1  14
ATOM     14  C   LIG    1       22.991 -21.721   6.111  0.00  0.00    +0.128 C 
BRANCH  14  16
ATOM     15  C   LIG    1       23.881 -24.076   6.272  0.00  0.00    +0.005 C 
ATOM     16  C   LIG    1       22.977 -23.030   6.903  0.00  0.00    +0.018 C 
ENDBRANCH  14  16
ENDBRANCH   1  14
TORSDOF 2
ENDMDL
MODEL 6
REMARK VINA RESULT:      -6.1      1.541      4.091
REMARK  Name = *****
REMARK                            x       y       z     vdW  Elec       q    Type
REMARK                         _______ _______ _______ _____ _____    ______ ____
ROOT
ATOM      1  N   LIG    1       26.408 -20.386   6.663  0.00  0.00    -0.277 N 
ATOM      2  C   LIG    1       26.939 -19.985   5.438  0.00  0.00    +0.331 C 
ATOM      3  O   LIG    1       28.084 -19.558   5.293  0.00  0.00    -0.246 OA
ATOM      4  N   LIG    1       26.115 -20.083   4.328  0.00  0.00    -0.273 N 
ATOM      5  H   LIG    1       26.518 -19.786   3.453  0.00  0.00    +0.173 HD
ATOM      6  C   LIG    1       24.825 -20.562   4.287  0.00  0.00    +0.280 C 
ATOM      7  O   LIG    1       24.166 -20.628   3.256  0.00  0.00    -0.265 OA
ATOM      8  C   LIG    1       24.364 -20.965   5.563  0.00  0.00    +0.149 A 
ATOM      9  N   LIG    1       23.171 -21.491   5.961  0.00  0.00    -0.339 N 
ATOM     10  H   LIG    1       22.373 -21.686   5.369  0.00  0.00    +0.167 HD
ATOM     11  C   LIG    1       23.268 -21.702   7.313  0.00  0.00    +0.199 A 
ATOM     12  N   LIG    1       24.446 -21.342   7.782  0.00  0.00    -0.218 NA
ATOM     13  C   LIG    1       25.122 -20.883   6.694  0.00  0.00    +0.168 A 
ENDROOT
BRANCH   1  14
ATOM     14  C   LIG    1       27.229 -20.331   7.866  0.00  0.00    +0.128 C 
BRANCH  14  16
ATOM     15  C   LIG    1       29.627 -21.104   7.992  0.00  0.00    +0.005 C 
ATOM     16  C   LIG    1       28.169 -21.533   7.969  0.00  0.00    +0.018 C 
ENDBRANCH  14  16
ENDBRANCH   1  14
TORSDOF 2
ENDMDL
MODEL 7
REMARK VINA RESULT:      -6.1      2.411      4.850
REMARK  Name = *****
REMARK                            x       y       z     vdW  Elec       q    Type
REMARK                         _______ _______ _______ _____ _____    ______ ____
ROOT
ATOM      1  N   LIG    1       28.946 -19.765   7.173  0.00  0.00    -0.277 N 
ATOM      2  C   LIG    1       29.035 -19.122   5.940  0.00  0.00    +0.331 C 
ATOM      3  O   LIG    1       30.010 -18.461   5.580  0.00  0.00    -0.246 OA
ATOM      4  N   LIG    1       27.956 -19.246   5.081  0.00  0.00    -0.273 N 
ATOM      5  H   LIG    1       28.040 -18.771   4.196  0.00  0.00    +0.173 HD
ATOM      6  C   LIG    1       26.800 -19.963   5.292  0.00  0.00    +0.280 C 
ATOM      7  O   LIG    1       25.893 -20.033   4.471  0.00  0.00    -0.265 OA
ATOM      8  C   LIG    1       26.791 -20.602   6.555  0.00  0.00    +0.149 A 
ATOM      9  N   LIG    1       25.858 -21.398   7.151  0.00  0.00    -0.339 N 
ATOM     10  H   LIG    1       24.966 -21.674   6.761  0.00  0.00    +0.167 HD
ATOM     11  C   LIG    1       26.369 -21.748   8.375  0.00  0.00    +0.199 A 
ATOM     12  N   LIG    1       27.560 -21.221   8.580  0.00  0.00    -0.218 NA
ATOM     13  C   LIG    1       27.817 -20.508   7.449  0.00  0.00    +0.168 A 
ENDROOT
BRANCH   1  14
ATOM     14  C   LIG    1       30.056 -19.695   8.115  0.00  0.00    +0.128 C 
BRANCH  14  16
ATOM     15  C   LIG    1       31.439 -17.739   8.907  0.00  0.00    +0.005 C 
ATOM     16  C   LIG    1       30.059 -18.378   8.892  0.00  0.00    +0.018 C 
ENDBRANCH  14  16
ENDBRANCH   1  14
TORSDOF 2
ENDMDL
MODEL 8
REMARK VINA RESULT:      -6.0      2.079      3.285
REMARK  Name = *****
REMARK                            x       y       z     vdW  Elec       q    Type
REMARK                         _______ _______ _______ _____ _____    ______ ____
ROOT
ATOM      1  N   LIG    1       23.839 -21.428   6.160  0.00  0.00    -0.277 N 
ATOM      2  C   LIG    1       23.048 -20.893   5.144  0.00  0.00    +0.331 C 
ATOM      3  O   LIG    1       21.835 -21.081   5.047  0.00  0.00    -0.246 OA
ATOM      4  N   LIG    1       23.680 -20.103   4.198  0.00  0.00    -0.273 N 
ATOM      5  H   LIG    1       23.091 -19.728   3.472  0.00  0.00    +0.173 HD
ATOM      6  C   LIG    1       25.012 -19.756   4.158  0.00  0.00    +0.280 C 
ATOM      7  O   LIG    1       25.492 -19.037   3.289  0.00  0.00    -0.265 OA
ATOM      8  C   LIG    1       25.744 -20.320   5.229  0.00  0.00    +0.149 A 
ATOM      9  N   LIG    1       27.064 -20.229   5.561  0.00  0.00    -0.339 N 
ATOM     10  H   LIG    1       27.775 -19.711   5.059  0.00  0.00    +0.167 HD
ATOM     11  C   LIG    1       27.232 -20.971   6.701  0.00  0.00    +0.199 A 
ATOM     12  N   LIG    1       26.101 -21.519   7.102  0.00  0.00    -0.218 NA
ATOM     13  C   LIG    1       25.182 -21.115   6.184  0.00  0.00    +0.168 A 
ENDROOT
BRANCH   1  14
ATOM     14  C   LIG    1       23.232 -22.249   7.200  0.00  0.00    +0.128 C 
BRANCH  14  16
ATOM     15  C   LIG    1       23.993 -24.559   6.529  0.00  0.00    +0.005 C 
ATOM     16  C   LIG    1       22.807 -23.618   6.669  0.00  0.00    +0.018 C 
ENDBRANCH  14  16
ENDBRANCH   1  14
TORSDOF 2
ENDMDL
MODEL 9
REMARK VINA RESULT:      -6.0      2.365      5.016
REMARK  Name = *****
REMARK                            x       y       z     vdW  Elec       q    Type
REMARK                         _______ _______ _______ _____ _____    ______ ____
ROOT
ATOM      1  N   LIG    1       26.001 -20.785   7.008  0.00  0.00    -0.277 N 
ATOM      2  C   LIG    1       25.470 -21.421   8.130  0.00  0.00    +0.331 C 
ATOM      3  O   LIG    1       25.998 -21.404   9.242  0.00  0.00    -0.246 OA
ATOM      4  N   LIG    1       24.277 -22.105   7.965  0.00  0.00    -0.273 N 
ATOM      5  H   LIG    1       23.912 -22.559   8.788  0.00  0.00    +0.173 HD
ATOM      6  C   LIG    1       23.527 -22.210   6.815  0.00  0.00    +0.280 C 
ATOM      7  O   LIG    1       22.470 -22.826   6.757  0.00  0.00    -0.265 OA
ATOM      8  C   LIG    1       24.119 -21.525   5.728  0.00  0.00    +0.149 A 
ATOM      9  N   LIG    1       23.714 -21.374   4.434  0.00  0.00    -0.339 N 
ATOM     10  H   LIG    1       22.873 -21.755   4.020  0.00  0.00    +0.167 HD
ATOM     11  C   LIG    1       24.667 -20.608   3.814  0.00  0.00    +0.199 A 
ATOM     12  N   LIG    1       25.640 -20.271   4.637  0.00  0.00    -0.218 NA
ATOM     13  C   LIG    1       25.297 -20.844   5.823  0.00  0.00    +0.168 A 
ENDROOT
BRANCH   1  14
ATOM     14  C   LIG    1       27.241 -20.029   7.117  0.00  0.00    +0.128 C 
BRANCH  14  16
ATOM     15  C   LIG    1       29.371 -21.139   7.890  0.00  0.00    +0.005 C 
ATOM     16  C   LIG    1       28.455 -20.865   6.708  0.00  0.00    +0.018 C 
ENDBRANCH  14  16
ENDBRANCH   1  14
TORSDOF 2
ENDMDL
