MODEL 1
REMARK VINA RESULT:      -5.1      0.000      0.000
REMARK  Name = *****
REMARK                            x       y       z     vdW  Elec       q    Type
REMARK                         _______ _______ _______ _____ _____    ______ ____
ROOT
ATOM      1  N   LIG    1       25.649 -15.928   3.377  0.00  0.00    -0.179 NA
ATOM      2  C   LIG    1       26.185 -17.107   3.345  0.00  0.00    +0.177 C 
ENDROOT
BRANCH   1   5
ATOM      3  O   LIG    1       25.293 -13.383   1.812  0.00  0.00    -0.224 OA
ATOM      4  C   LIG    1       26.248 -13.669   2.521  0.00  0.00    +0.423 C 
ATOM      5  N   LIG    1       26.481 -14.850   3.226  0.00  0.00    -0.155 N 
ATOM      6  C   LIG    1       27.568 -14.647   4.126  0.00  0.00    +0.179 C 
ATOM      7  C   LIG    1       28.288 -13.493   3.477  0.00  0.00    +0.255 C 
ATOM      8  O   LIG    1       27.277 -12.790   2.751  0.00  0.00    -0.448 OA
ENDBRANCH   1   5
BRANCH   2   9
ATOM      9  C   LIG    1       25.393 -18.292   3.505  0.00  0.00    +0.154 A 
ATOM     10  O   LIG    1       24.102 -18.120   3.922  0.00  0.00    -0.399 OA
ATOM     11  C   LIG    1       23.539 -19.354   3.950  0.00  0.00    +0.438 A 
ATOM     12  C   LIG    1       24.437 -20.328   3.581  0.00  0.00    +0.132 A 
ATOM     13  C   LIG    1       25.644 -19.637   3.295  0.00  0.00    +0.058 A 
BRANCH  11  14
ATOM     14  N   LIG    1       22.163 -19.410   4.326  0.00  0.00    +0.119 N 
ATOM     15  O   LIG    1       21.742 -20.459   4.830  0.00  0.00    -0.574 OA
ATOM     16  O   LIG    1       21.498 -18.387   4.119  0.00  0.00    +0.045 OA
ENDBRANCH  11  14
ENDBRANCH   2   9
TORSDOF 3
ENDMDL
MODEL 2
REMARK VINA RESULT:      -5.1      2.355      6.382
REMARK  Name = *****
REMARK                            x       y       z     vdW  Elec       q    Type
REMARK                         _______ _______ _______ _____ _____    ______ ____
ROOT
ATOM      1  N   LIG    1       25.817 -17.793   3.308  0.00  0.00    -0.179 NA
ATOM      2  C   LIG    1       25.147 -16.748   3.677  0.00  0.00    +0.177 C 
ENDROOT
BRANCH   1   5
ATOM      3  O   LIG    1       26.957 -19.858   5.176  0.00  0.00    -0.224 OA
ATOM      4  C   LIG    1       25.885 -19.924   4.592  0.00  0.00    +0.423 C 
ATOM      5  N   LIG    1       25.335 -19.020   3.683  0.00  0.00    -0.155 N 
ATOM      6  C   LIG    1       23.967 -19.354   3.465  0.00  0.00    +0.179 C 
ATOM      7  C   LIG    1       23.946 -20.812   3.844  0.00  0.00    +0.255 C 
ATOM      8  O   LIG    1       25.008 -20.961   4.790  0.00  0.00    -0.448 OA
ENDBRANCH   1   5
BRANCH   2   9
ATOM      9  C   LIG    1       25.583 -15.424   3.339  0.00  0.00    +0.154 A 
ATOM     10  O   LIG    1       24.617 -14.459   3.253  0.00  0.00    -0.399 OA
ATOM     11  C   LIG    1       25.260 -13.296   2.978  0.00  0.00    +0.438 A 
ATOM     12  C   LIG    1       26.617 -13.483   2.864  0.00  0.00    +0.132 A 
ATOM     13  C   LIG    1       26.827 -14.868   3.095  0.00  0.00    +0.058 A 
BRANCH  11  14
ATOM     14  N   LIG    1       24.440 -12.131   2.881  0.00  0.00    +0.119 N 
ATOM     15  O   LIG    1       24.458 -11.496   1.819  0.00  0.00    -0.574 OA
ATOM     16  O   LIG    1       23.765 -11.854   3.881  0.00  0.00    +0.045 OA
ENDBRANCH  11  14
ENDBRANCH   2   9
TORSDOF 3
ENDMDL
MODEL 3
REMARK VINA RESULT:      -4.9      2.272      6.777
REMARK  Name = *****
REMARK                            x       y       z     vdW  Elec       q    Type
REMARK                         _______ _______ _______ _____ _____    ______ ____
ROOT
ATOM      1  N   LIG    1       25.969 -17.560   3.311  0.00  0.00    -0.179 NA
ATOM      2  C   LIG    1       25.344 -16.489   3.686  0.00  0.00    +0.177 C 
ENDROOT
BRANCH   1   5
ATOM      3  O   LIG    1       27.005 -19.752   5.093  0.00  0.00    -0.224 OA
ATOM      4  C   LIG    1       25.923 -19.733   4.524  0.00  0.00    +0.423 C 
ATOM      5  N   LIG    1       25.418 -18.767   3.653  0.00  0.00    -0.155 N 
ATOM      6  C   LIG    1       24.028 -19.010   3.445  0.00  0.00    +0.179 C 
ATOM      7  C   LIG    1       23.924 -20.476   3.776  0.00  0.00    +0.255 C 
ATOM      8  O   LIG    1       24.986 -20.721   4.700  0.00  0.00    -0.448 OA
ENDBRANCH   1   5
BRANCH   2   9
ATOM      9  C   LIG    1       25.852 -15.183   3.382  0.00  0.00    +0.154 A 
ATOM     10  O   LIG    1       26.978 -14.788   4.050  0.00  0.00    -0.399 OA
ATOM     11  C   LIG    1       27.300 -13.561   3.568  0.00  0.00    +0.438 A 
ATOM     12  C   LIG    1       26.402 -13.139   2.617  0.00  0.00    +0.132 A 
ATOM     13  C   LIG    1       25.457 -14.193   2.498  0.00  0.00    +0.058 A 
BRANCH  11  14
ATOM     14  N   LIG    1       28.481 -12.963   4.105  0.00  0.00    +0.119 N 
ATOM     15  O   LIG    1       28.429 -12.505   5.253  0.00  0.00    -0.574 OA
ATOM     16  O   LIG    1       29.475 -12.961   3.367  0.00  0.00    +0.045 OA
ENDBRANCH  11  14
ENDBRANCH   2   9
TORSDOF 3
ENDMDL
MODEL 4
REMARK VINA RESULT:      -4.8      4.309      5.178
REMARK  Name = *****
REMARK                            x       y       z     vdW  Elec       q    Type
REMARK                         _______ _______ _______ _____ _____    ______ ____
ROOT
ATOM      1  N   LIG    1       26.078 -20.092   5.427  0.00  0.00    -0.179 NA
ATOM      2  C   LIG    1       25.122 -20.794   5.949  0.00  0.00    +0.177 C 
ENDROOT
BRANCH   1   5
ATOM      3  O   LIG    1       28.551 -18.399   5.162  0.00  0.00    -0.224 OA
ATOM      4  C   LIG    1       28.448 -19.433   5.806  0.00  0.00    +0.423 C 
ATOM      5  N   LIG    1       27.342 -20.276   5.922  0.00  0.00    -0.155 N 
ATOM      6  C   LIG    1       27.574 -21.206   6.978  0.00  0.00    +0.179 C 
ATOM      7  C   LIG    1       29.079 -21.210   7.052  0.00  0.00    +0.255 C 
ATOM      8  O   LIG    1       29.475 -19.922   6.575  0.00  0.00    -0.448 OA
ENDBRANCH   1   5
BRANCH   2   9
ATOM      9  C   LIG    1       23.766 -20.659   5.501  0.00  0.00    +0.154 A 
ATOM     10  O   LIG    1       23.382 -19.423   5.061  0.00  0.00    -0.399 OA
ATOM     11  C   LIG    1       22.096 -19.546   4.644  0.00  0.00    +0.438 A 
ATOM     12  C   LIG    1       21.628 -20.827   4.819  0.00  0.00    +0.132 A 
ATOM     13  C   LIG    1       22.714 -21.551   5.380  0.00  0.00    +0.058 A 
BRANCH  11  14
ATOM     14  N   LIG    1       21.494 -18.370   4.102  0.00  0.00    +0.119 N 
ATOM     15  O   LIG    1       21.965 -17.274   4.431  0.00  0.00    -0.574 OA
ATOM     16  O   LIG    1       20.543 -18.550   3.331  0.00  0.00    +0.045 OA
ENDBRANCH  11  14
ENDBRANCH   2   9
TORSDOF 3
ENDMDL
MODEL 5
REMARK VINA RESULT:      -4.5      2.153      2.436
REMARK  Name = *****
REMARK                            x       y       z     vdW  Elec       q    Type
REMARK                         _______ _______ _______ _____ _____    ______ ____
ROOT
ATOM      1  N   LIG    1       25.135 -16.578   3.713  0.00  0.00    -0.179 NA
ATOM      2  C   LIG    1       25.730 -17.659   3.316  0.00  0.00    +0.177 C 
ENDROOT
BRANCH   1   5
ATOM      3  O   LIG    1       23.884 -13.854   3.457  0.00  0.00    -0.224 OA
ATOM      4  C   LIG    1       25.061 -14.130   3.272  0.00  0.00    +0.423 C 
ATOM      5  N   LIG    1       25.678 -15.380   3.331  0.00  0.00    -0.155 N 
ATOM      6  C   LIG    1       27.093 -15.201   3.317  0.00  0.00    +0.179 C 
ATOM      7  C   LIG    1       27.221 -13.846   2.670  0.00  0.00    +0.255 C 
ATOM      8  O   LIG    1       26.001 -13.171   2.985  0.00  0.00    -0.448 OA
ENDBRANCH   1   5
BRANCH   2   9
ATOM      9  C   LIG    1       25.238 -18.957   3.677  0.00  0.00    +0.154 A 
ATOM     10  O   LIG    1       25.591 -19.430   4.911  0.00  0.00    -0.399 OA
ATOM     11  C   LIG    1       24.978 -20.632   5.051  0.00  0.00    +0.438 A 
ATOM     12  C   LIG    1       24.249 -20.962   3.934  0.00  0.00    +0.132 A 
ATOM     13  C   LIG    1       24.421 -19.873   3.037  0.00  0.00    +0.058 A 
BRANCH  11  14
ATOM     14  N   LIG    1       25.178 -21.299   6.298  0.00  0.00    +0.119 N 
ATOM     15  O   LIG    1       24.181 -21.560   6.983  0.00  0.00    -0.574 OA
ATOM     16  O   LIG    1       26.350 -21.572   6.589  0.00  0.00    +0.045 OA
ENDBRANCH  11  14
ENDBRANCH   2   9
TORSDOF 3
ENDMDL
MODEL 6
REMARK VINA RESULT:      -4.5      1.514      2.060
REMARK  Name = *****
REMARK                            x       y       z     vdW  Elec       q    Type
REMARK                         _______ _______ _______ _____ _____    ______ ____
ROOT
ATOM      1  N   LIG    1       25.338 -16.253   3.664  0.00  0.00    -0.179 NA
ATOM      2  C   LIG    1       24.249 -16.954   3.719  0.00  0.00    +0.177 C 
ENDROOT
BRANCH   1   5
ATOM      3  O   LIG    1       26.844 -14.341   1.895  0.00  0.00    -0.224 OA
ATOM      4  C   LIG    1       25.910 -14.062   2.631  0.00  0.00    +0.423 C 
ATOM      5  N   LIG    1       25.212 -14.898   3.503  0.00  0.00    -0.155 N 
ATOM      6  C   LIG    1       24.038 -14.225   3.954  0.00  0.00    +0.179 C 
ATOM      7  C   LIG    1       24.419 -12.782   3.749  0.00  0.00    +0.255 C 
ATOM      8  O   LIG    1       25.370 -12.800   2.682  0.00  0.00    -0.448 OA
ENDBRANCH   1   5
BRANCH   2   9
ATOM      9  C   LIG    1       24.286 -18.379   3.874  0.00  0.00    +0.154 A 
ATOM     10  O   LIG    1       23.282 -18.946   4.609  0.00  0.00    -0.399 OA
ATOM     11  C   LIG    1       23.491 -20.286   4.576  0.00  0.00    +0.438 A 
ATOM     12  C   LIG    1       24.617 -20.604   3.853  0.00  0.00    +0.132 A 
ATOM     13  C   LIG    1       25.136 -19.363   3.400  0.00  0.00    +0.058 A 
BRANCH  11  14
ATOM     14  N   LIG    1       22.527 -21.091   5.255  0.00  0.00    +0.119 N 
ATOM     15  O   LIG    1       21.425 -21.254   4.717  0.00  0.00    -0.574 OA
ATOM     16  O   LIG    1       22.884 -21.572   6.339  0.00  0.00    +0.045 OA
ENDBRANCH  11  14
ENDBRANCH   2   9
TORSDOF 3
ENDMDL
MODEL 7
REMARK VINA RESULT:      -4.3      1.701      6.727
REMARK  Name = *****
REMARK                            x       y       z     vdW  Elec       q    Type
REMARK                         _______ _______ _______ _____ _____    ______ ____
ROOT
ATOM      1  N   LIG    1       24.592 -17.251   3.689  0.00  0.00    -0.179 NA
ATOM      2  C   LIG    1       25.818 -16.869   3.514  0.00  0.00    +0.177 C 
ENDROOT
BRANCH   1   5
ATOM      3  O   LIG    1       22.083 -18.719   4.465  0.00  0.00    -0.224 OA
ATOM      4  C   LIG    1       23.168 -19.223   4.216  0.00  0.00    +0.423 C 
ATOM      5  N   LIG    1       24.368 -18.587   3.899  0.00  0.00    -0.155 N 
ATOM      6  C   LIG    1       25.298 -19.557   3.422  0.00  0.00    +0.179 C 
ATOM      7  C   LIG    1       24.754 -20.823   4.031  0.00  0.00    +0.255 C 
ATOM      8  O   LIG    1       23.354 -20.584   4.189  0.00  0.00    -0.448 OA
ENDBRANCH   1   5
BRANCH   2   9
ATOM      9  C   LIG    1       26.144 -15.493   3.277  0.00  0.00    +0.154 A 
ATOM     10  O   LIG    1       27.231 -14.993   3.939  0.00  0.00    -0.399 OA
ATOM     11  C   LIG    1       27.376 -13.709   3.525  0.00  0.00    +0.438 A 
ATOM     12  C   LIG    1       26.400 -13.355   2.624  0.00  0.00    +0.132 A 
ATOM     13  C   LIG    1       25.596 -14.515   2.465  0.00  0.00    +0.058 A 
BRANCH  11  14
ATOM     14  N   LIG    1       28.487 -12.995   4.067  0.00  0.00    +0.119 N 
ATOM     15  O   LIG    1       29.475 -12.823   3.341  0.00  0.00    -0.574 OA
ATOM     16  O   LIG    1       28.364 -12.594   5.232  0.00  0.00    +0.045 OA
ENDBRANCH  11  14
ENDBRANCH   2   9
TORSDOF 3
ENDMDL
MODEL 8
REMARK VINA RESULT:      -4.0      2.050      2.731
REMARK  Name = *****
REMARK                            x       y       z     vdW  Elec       q    Type
REMARK                         _______ _______ _______ _____ _____    ______ ____
ROOT
ATOM      1  N   LIG    1       24.692 -15.615   3.689  0.00  0.00    -0.179 NA
ATOM      2  C   LIG    1       23.483 -15.988   3.971  0.00  0.00    +0.177 C 
ENDROOT
BRANCH   1   5
ATOM      3  O   LIG    1       26.734 -14.236   1.962  0.00  0.00    -0.224 OA
ATOM      4  C   LIG    1       25.843 -13.695   2.601  0.00  0.00    +0.423 C 
ATOM      5  N   LIG    1       24.905 -14.283   3.450  0.00  0.00    -0.155 N 
ATOM      6  C   LIG    1       23.896 -13.325   3.763  0.00  0.00    +0.179 C 
ATOM      7  C   LIG    1       24.624 -12.028   3.519  0.00  0.00    +0.255 C 
ATOM      8  O   LIG    1       25.617 -12.342   2.541  0.00  0.00    -0.448 OA
ENDBRANCH   1   5
BRANCH   2   9
ATOM      9  C   LIG    1       23.167 -17.363   4.224  0.00  0.00    +0.154 A 
ATOM     10  O   LIG    1       24.127 -18.286   3.913  0.00  0.00    -0.399 OA
ATOM     11  C   LIG    1       23.632 -19.494   4.282  0.00  0.00    +0.438 A 
ATOM     12  C   LIG    1       22.368 -19.384   4.809  0.00  0.00    +0.132 A 
ATOM     13  C   LIG    1       22.063 -17.997   4.768  0.00  0.00    +0.058 A 
BRANCH  11  14
ATOM     14  N   LIG    1       24.494 -20.615   4.081  0.00  0.00    +0.119 N 
ATOM     15  O   LIG    1       25.566 -20.640   4.699  0.00  0.00    -0.574 OA
ATOM     16  O   LIG    1       24.086 -21.484   3.300  0.00  0.00    +0.045 OA
ENDBRANCH  11  14
ENDBRANCH   2   9
TORSDOF 3
ENDMDL
MODEL 9
REMARK VINA RESULT:      -3.9      2.127      6.695
REMARK  Name = *****
REMARK                            x       y       z     vdW  Elec       q    Type
REMARK                         _______ _______ _______ _____ _____    ______ ____
ROOT
ATOM      1  N   LIG    1       24.004 -17.966   3.749  0.00  0.00    -0.179 NA
ATOM      2  C   LIG    1       23.517 -16.927   4.349  0.00  0.00    +0.177 C 
ENDROOT
BRANCH   1   5
ATOM      3  O   LIG    1       25.342 -20.657   3.889  0.00  0.00    -0.224 OA
ATOM      4  C   LIG    1       24.185 -20.409   4.193  0.00  0.00    +0.423 C 
ATOM      5  N   LIG    1       23.506 -19.193   4.102  0.00  0.00    -0.155 N 
ATOM      6  C   LIG    1       22.274 -19.293   4.814  0.00  0.00    +0.179 C 
ATOM      7  C   LIG    1       22.042 -20.782   4.810  0.00  0.00    +0.255 C 
ATOM      8  O   LIG    1       23.348 -21.358   4.727  0.00  0.00    -0.448 OA
ENDBRANCH   1   5
BRANCH   2   9
ATOM      9  C   LIG    1       23.986 -15.605   4.050  0.00  0.00    +0.154 A 
ATOM     10  O   LIG    1       25.296 -15.484   3.677  0.00  0.00    -0.399 OA
ATOM     11  C   LIG    1       25.496 -14.171   3.398  0.00  0.00    +0.438 A 
ATOM     12  C   LIG    1       24.354 -13.431   3.598  0.00  0.00    +0.132 A 
ATOM     13  C   LIG    1       23.372 -14.364   4.026  0.00  0.00    +0.058 A 
BRANCH  11  14
ATOM     14  N   LIG    1       26.803 -13.816   2.945  0.00  0.00    +0.119 N 
ATOM     15  O   LIG    1       27.520 -13.154   3.706  0.00  0.00    -0.574 OA
ATOM     16  O   LIG    1       27.115 -14.212   1.814  0.00  0.00    +0.045 OA
ENDBRANCH  11  14
ENDBRANCH   2   9
TORSDOF 3
ENDMDL
