MODEL 1
REMARK VINA RESULT:      -7.8      0.000      0.000
REMARK  Name = *****
REMARK                            x       y       z     vdW  Elec       q    Type
REMARK                         _______ _______ _______ _____ _____    ______ ____
ROOT
ATOM      1  N   LIG    1       25.814 -20.748   6.728  0.00  0.00    -0.298 N 
ATOM      2  C   LIG    1       27.213 -20.444   6.692  0.00  0.00    +0.049 A 
ATOM      3  C   LIG    1       27.779 -19.650   5.681  0.00  0.00    +0.034 A 
ATOM      4  C   LIG    1       29.154 -19.327   5.685  0.00  0.00    +0.018 A 
ATOM      5  C   LIG    1       30.006 -19.803   6.678  0.00  0.00    +0.018 A 
ATOM      6  C   LIG    1       29.498 -20.628   7.665  0.00  0.00    +0.040 A 
ATOM      7  S   LIG    1       26.865 -18.962   4.326  0.00  0.00    -0.086 S 
ATOM      8  C   LIG    1       25.241 -19.626   4.584  0.00  0.00    +0.034 A 
ATOM      9  C   LIG    1       24.308 -19.302   3.574  0.00  0.00    +0.017 A 
ATOM     10  C   LIG    1       22.986 -19.720   3.659  0.00  0.00    +0.001 A 
ATOM     11  C   LIG    1       22.591 -20.469   4.749  0.00  0.00    +0.002 A 
ATOM     12  C   LIG    1       23.519 -20.806   5.749  0.00  0.00    +0.024 A 
ATOM     13  C   LIG    1       28.123 -20.921   7.666  0.00  0.00    +0.041 A 
ATOM     14  C   LIG    1       24.873 -20.396   5.707  0.00  0.00    +0.048 A 
ENDROOT
BRANCH   6  15
ATOM     15  S   LIG    1       30.594 -21.222   8.978  0.00  0.00    +0.051 S 
ATOM     16  C   LIG    1       31.415 -19.658   9.391  0.00  0.00    +0.127 C 
ATOM     17  O   LIG    1       31.619 -22.091   8.316  0.00  0.00    -0.252 OA
ENDBRANCH   6  15
BRANCH   1  18
ATOM     18  C   LIG    1       25.272 -21.398   7.960  0.00  0.00    +0.112 C 
BRANCH  18  19
ATOM     19  C   LIG    1       25.779 -22.846   8.109  0.00  0.00    +0.038 C 
BRANCH  19  22
ATOM     20  C   LIG    1       23.332 -24.042   6.788  0.00  0.00    +0.105 C 
ATOM     21  N   LIG    1       24.506 -23.605   6.030  0.00  0.00    -0.302 NA
ATOM     22  C   LIG    1       25.774 -23.667   6.791  0.00  0.00    +0.058 C 
ATOM     23  C   LIG    1       26.205 -25.125   7.073  0.00  0.00    +0.019 C 
ATOM     24  C   LIG    1       26.238 -25.980   5.805  0.00  0.00    +0.003 C 
ATOM     25  C   LIG    1       24.952 -25.848   5.000  0.00  0.00    +0.015 C 
ATOM     26  C   LIG    1       24.600 -24.377   4.777  0.00  0.00    +0.084 C 
ENDBRANCH  19  22
ENDBRANCH  18  19
ENDBRANCH   1  18
TORSDOF 4
ENDMDL
MODEL 2
REMARK VINA RESULT:      -7.3      2.403      5.236
REMARK  Name = *****
REMARK                            x       y       z     vdW  Elec       q    Type
REMARK                         _______ _______ _______ _____ _____    ______ ____
ROOT
ATOM      1  N   LIG    1       27.565 -21.085   6.897  0.00  0.00    -0.298 N 
ATOM      2  C   LIG    1       26.807 -20.377   5.909  0.00  0.00    +0.049 A 
ATOM      3  C   LIG    1       27.364 -19.342   5.140  0.00  0.00    +0.034 A 
ATOM      4  C   LIG    1       26.613 -18.684   4.142  0.00  0.00    +0.018 A 
ATOM      5  C   LIG    1       25.283 -19.016   3.899  0.00  0.00    +0.018 A 
ATOM      6  C   LIG    1       24.682 -19.997   4.667  0.00  0.00    +0.040 A 
ATOM      7  S   LIG    1       29.033 -18.764   5.308  0.00  0.00    -0.086 S 
ATOM      8  C   LIG    1       29.635 -19.725   6.672  0.00  0.00    +0.034 A 
ATOM      9  C   LIG    1       30.945 -19.398   7.086  0.00  0.00    +0.017 A 
ATOM     10  C   LIG    1       31.564 -20.091   8.118  0.00  0.00    +0.001 A 
ATOM     11  C   LIG    1       30.877 -21.111   8.744  0.00  0.00    +0.002 A 
ATOM     12  C   LIG    1       29.568 -21.431   8.345  0.00  0.00    +0.024 A 
ATOM     13  C   LIG    1       25.448 -20.665   5.639  0.00  0.00    +0.041 A 
ATOM     14  C   LIG    1       28.902 -20.756   7.295  0.00  0.00    +0.048 A 
ENDROOT
BRANCH   6  15
ATOM     15  S   LIG    1       22.964 -20.459   4.333  0.00  0.00    +0.051 S 
ATOM     16  C   LIG    1       22.218 -18.806   4.351  0.00  0.00    +0.127 C 
ATOM     17  O   LIG    1       22.470 -21.174   5.554  0.00  0.00    -0.252 OA
ENDBRANCH   6  15
BRANCH   1  18
ATOM     18  C   LIG    1       26.960 -22.314   7.493  0.00  0.00    +0.112 C 
BRANCH  18  19
ATOM     19  C   LIG    1       25.614 -22.666   6.828  0.00  0.00    +0.038 C 
BRANCH  19  22
ATOM     20  C   LIG    1       23.099 -24.340   6.639  0.00  0.00    +0.105 C 
ATOM     21  N   LIG    1       24.217 -24.484   5.704  0.00  0.00    -0.302 NA
ATOM     22  C   LIG    1       25.532 -24.114   6.274  0.00  0.00    +0.058 C 
ATOM     23  C   LIG    1       25.996 -25.121   7.353  0.00  0.00    +0.019 C 
ATOM     24  C   LIG    1       25.955 -26.568   6.857  0.00  0.00    +0.003 C 
ATOM     25  C   LIG    1       24.618 -26.908   6.211  0.00  0.00    +0.015 C 
ATOM     26  C   LIG    1       24.238 -25.857   5.167  0.00  0.00    +0.084 C 
ENDBRANCH  19  22
ENDBRANCH  18  19
ENDBRANCH   1  18
TORSDOF 4
ENDMDL
MODEL 3
REMARK VINA RESULT:      -6.7      9.142     11.364
REMARK  Name = *****
REMARK                            x       y       z     vdW  Elec       q    Type
REMARK                         _______ _______ _______ _____ _____    ______ ____
ROOT
ATOM      1  N   LIG    1       24.077 -27.676  13.204  0.00  0.00    -0.298 N 
ATOM      2  C   LIG    1       24.342 -28.671  12.209  0.00  0.00    +0.049 A 
ATOM      3  C   LIG    1       25.596 -28.790  11.587  0.00  0.00    +0.034 A 
ATOM      4  C   LIG    1       25.851 -29.803  10.638  0.00  0.00    +0.018 A 
ATOM      5  C   LIG    1       24.863 -30.709  10.263  0.00  0.00    +0.018 A 
ATOM      6  C   LIG    1       23.600 -30.598  10.816  0.00  0.00    +0.040 A 
ATOM      7  S   LIG    1       26.977 -27.726  11.918  0.00  0.00    -0.086 S 
ATOM      8  C   LIG    1       26.290 -26.552  13.057  0.00  0.00    +0.034 A 
ATOM      9  C   LIG    1       27.170 -25.512  13.427  0.00  0.00    +0.017 A 
ATOM     10  C   LIG    1       26.786 -24.539  14.341  0.00  0.00    +0.001 A 
ATOM     11  C   LIG    1       25.519 -24.597  14.885  0.00  0.00    +0.002 A 
ATOM     12  C   LIG    1       24.634 -25.622  14.508  0.00  0.00    +0.024 A 
ATOM     13  C   LIG    1       23.365 -29.601  11.780  0.00  0.00    +0.041 A 
ATOM     14  C   LIG    1       24.986 -26.637  13.587  0.00  0.00    +0.048 A 
ENDROOT
BRANCH   6  15
ATOM     15  S   LIG    1       22.320 -31.793  10.359  0.00  0.00    +0.051 S 
ATOM     16  C   LIG    1       23.024 -32.376   8.791  0.00  0.00    +0.127 C 
ATOM     17  O   LIG    1       21.097 -30.998  10.018  0.00  0.00    -0.252 OA
ENDBRANCH   6  15
BRANCH   1  18
ATOM     18  C   LIG    1       22.798 -27.778  13.970  0.00  0.00    +0.112 C 
BRANCH  18  19
ATOM     19  C   LIG    1       21.644 -27.053  13.250  0.00  0.00    +0.038 C 
BRANCH  19  22
ATOM     20  C   LIG    1       19.626 -29.263  13.709  0.00  0.00    +0.105 C 
ATOM     21  N   LIG    1       19.868 -28.198  14.685  0.00  0.00    -0.302 NA
ATOM     22  C   LIG    1       20.342 -26.929  14.089  0.00  0.00    +0.058 C 
ATOM     23  C   LIG    1       19.238 -26.237  13.254  0.00  0.00    +0.019 C 
ATOM     24  C   LIG    1       17.935 -26.069  14.036  0.00  0.00    +0.003 C 
ATOM     25  C   LIG    1       17.501 -27.370  14.700  0.00  0.00    +0.015 C 
ATOM     26  C   LIG    1       18.654 -27.984  15.494  0.00  0.00    +0.084 C 
ENDBRANCH  19  22
ENDBRANCH  18  19
ENDBRANCH   1  18
TORSDOF 4
ENDMDL
MODEL 4
REMARK VINA RESULT:      -6.7      6.336      9.920
REMARK  Name = *****
REMARK                            x       y       z     vdW  Elec       q    Type
REMARK                         _______ _______ _______ _____ _____    ______ ____
ROOT
ATOM      1  N   LIG    1       26.057 -29.527   8.338  0.00  0.00    -0.298 N 
ATOM      2  C   LIG    1       25.462 -28.695   7.335  0.00  0.00    +0.049 A 
ATOM      3  C   LIG    1       24.698 -29.225   6.282  0.00  0.00    +0.034 A 
ATOM      4  C   LIG    1       24.086 -28.386   5.326  0.00  0.00    +0.018 A 
ATOM      5  C   LIG    1       24.236 -27.002   5.375  0.00  0.00    +0.018 A 
ATOM      6  C   LIG    1       25.020 -26.443   6.368  0.00  0.00    +0.040 A 
ATOM      7  S   LIG    1       24.401 -30.957   6.040  0.00  0.00    -0.086 S 
ATOM      8  C   LIG    1       25.365 -31.694   7.334  0.00  0.00    +0.034 A 
ATOM      9  C   LIG    1       25.381 -33.106   7.320  0.00  0.00    +0.017 A 
ATOM     10  C   LIG    1       26.063 -33.825   8.293  0.00  0.00    +0.001 A 
ATOM     11  C   LIG    1       26.736 -33.137   9.282  0.00  0.00    +0.002 A 
ATOM     12  C   LIG    1       26.736 -31.731   9.292  0.00  0.00    +0.024 A 
ATOM     13  C   LIG    1       25.603 -27.287   7.330  0.00  0.00    +0.041 A 
ATOM     14  C   LIG    1       26.049 -30.960   8.324  0.00  0.00    +0.048 A 
ENDROOT
BRANCH   6  15
ATOM     15  S   LIG    1       25.192 -24.644   6.457  0.00  0.00    +0.051 S 
ATOM     16  C   LIG    1       23.457 -24.209   6.762  0.00  0.00    +0.127 C 
ATOM     17  O   LIG    1       25.521 -24.178   5.072  0.00  0.00    -0.252 OA
ENDBRANCH   6  15
BRANCH   1  18
ATOM     18  C   LIG    1       26.648 -28.860   9.538  0.00  0.00    +0.112 C 
BRANCH  18  19
ATOM     19  C   LIG    1       25.683 -28.891  10.739  0.00  0.00    +0.038 C 
BRANCH  19  22
ATOM     20  C   LIG    1       26.594 -26.647  12.557  0.00  0.00    +0.105 C 
ATOM     21  N   LIG    1       26.167 -27.953  13.065  0.00  0.00    -0.302 NA
ATOM     22  C   LIG    1       26.379 -29.069  12.117  0.00  0.00    +0.058 C 
ATOM     23  C   LIG    1       27.882 -29.375  11.914  0.00  0.00    +0.019 C 
ATOM     24  C   LIG    1       28.619 -29.581  13.239  0.00  0.00    +0.003 C 
ATOM     25  C   LIG    1       28.332 -28.457  14.227  0.00  0.00    +0.015 C 
ATOM     26  C   LIG    1       26.828 -28.220  14.356  0.00  0.00    +0.084 C 
ENDBRANCH  19  22
ENDBRANCH  18  19
ENDBRANCH   1  18
TORSDOF 4
ENDMDL
MODEL 5
REMARK VINA RESULT:      -6.7      8.430     10.738
REMARK  Name = *****
REMARK                            x       y       z     vdW  Elec       q    Type
REMARK                         _______ _______ _______ _____ _____    ______ ____
ROOT
ATOM      1  N   LIG    1       25.068 -28.344  12.557  0.00  0.00    -0.298 N 
ATOM      2  C   LIG    1       23.708 -28.782  12.466  0.00  0.00    +0.049 A 
ATOM      3  C   LIG    1       22.632 -27.967  12.854  0.00  0.00    +0.034 A 
ATOM      4  C   LIG    1       21.296 -28.401  12.717  0.00  0.00    +0.018 A 
ATOM      5  C   LIG    1       20.992 -29.664  12.217  0.00  0.00    +0.018 A 
ATOM      6  C   LIG    1       22.024 -30.517  11.868  0.00  0.00    +0.040 A 
ATOM      7  S   LIG    1       22.811 -26.334  13.525  0.00  0.00    -0.086 S 
ATOM      8  C   LIG    1       24.573 -26.158  13.634  0.00  0.00    +0.034 A 
ATOM      9  C   LIG    1       25.004 -24.954  14.234  0.00  0.00    +0.017 A 
ATOM     10  C   LIG    1       26.356 -24.658  14.354  0.00  0.00    +0.001 A 
ATOM     11  C   LIG    1       27.283 -25.565  13.882  0.00  0.00    +0.002 A 
ATOM     12  C   LIG    1       26.858 -26.771  13.299  0.00  0.00    +0.024 A 
ATOM     13  C   LIG    1       23.350 -30.064  11.983  0.00  0.00    +0.041 A 
ATOM     14  C   LIG    1       25.493 -27.110  13.149  0.00  0.00    +0.048 A 
ENDROOT
BRANCH   6  15
ATOM     15  S   LIG    1       21.636 -32.148  11.184  0.00  0.00    +0.051 S 
ATOM     16  C   LIG    1       23.316 -32.830  11.111  0.00  0.00    +0.127 C 
ATOM     17  O   LIG    1       21.196 -31.923   9.770  0.00  0.00    -0.252 OA
ENDBRANCH   6  15
BRANCH   1  18
ATOM     18  C   LIG    1       26.118 -29.184  11.907  0.00  0.00    +0.112 C 
BRANCH  18  19
ATOM     19  C   LIG    1       26.491 -28.649  10.510  0.00  0.00    +0.038 C 
BRANCH  19  22
ATOM     20  C   LIG    1       26.762 -31.188   8.883  0.00  0.00    +0.105 C 
ATOM     21  N   LIG    1       25.468 -30.564   9.167  0.00  0.00    -0.302 NA
ATOM     22  C   LIG    1       25.534 -29.100   9.373  0.00  0.00    +0.058 C 
ATOM     23  C   LIG    1       25.875 -28.350   8.065  0.00  0.00    +0.019 C 
ATOM     24  C   LIG    1       24.950 -28.740   6.910  0.00  0.00    +0.003 C 
ATOM     25  C   LIG    1       24.840 -30.251   6.759  0.00  0.00    +0.015 C 
ATOM     26  C   LIG    1       24.510 -30.908   8.100  0.00  0.00    +0.084 C 
ENDBRANCH  19  22
ENDBRANCH  18  19
ENDBRANCH   1  18
TORSDOF 4
ENDMDL
MODEL 6
REMARK VINA RESULT:      -6.6      3.026      6.140
REMARK  Name = *****
REMARK                            x       y       z     vdW  Elec       q    Type
REMARK                         _______ _______ _______ _____ _____    ______ ____
ROOT
ATOM      1  N   LIG    1       25.780 -21.196   5.637  0.00  0.00    -0.298 N 
ATOM      2  C   LIG    1       25.053 -20.183   4.933  0.00  0.00    +0.049 A 
ATOM      3  C   LIG    1       23.668 -20.272   4.716  0.00  0.00    +0.034 A 
ATOM      4  C   LIG    1       22.962 -19.243   4.055  0.00  0.00    +0.018 A 
ATOM      5  C   LIG    1       23.614 -18.112   3.571  0.00  0.00    +0.018 A 
ATOM      6  C   LIG    1       24.985 -18.008   3.722  0.00  0.00    +0.040 A 
ATOM      7  S   LIG    1       22.663 -21.635   5.242  0.00  0.00    -0.086 S 
ATOM      8  C   LIG    1       23.859 -22.747   5.935  0.00  0.00    +0.034 A 
ATOM      9  C   LIG    1       23.330 -23.984   6.362  0.00  0.00    +0.017 A 
ATOM     10  C   LIG    1       24.140 -24.942   6.959  0.00  0.00    +0.001 A 
ATOM     11  C   LIG    1       25.482 -24.670   7.128  0.00  0.00    +0.002 A 
ATOM     12  C   LIG    1       26.016 -23.446   6.691  0.00  0.00    +0.024 A 
ATOM     13  C   LIG    1       25.674 -19.025   4.405  0.00  0.00    +0.041 A 
ATOM     14  C   LIG    1       25.227 -22.440   6.085  0.00  0.00    +0.048 A 
ENDROOT
BRANCH   6  15
ATOM     15  S   LIG    1       25.834 -16.524   3.126  0.00  0.00    +0.051 S 
ATOM     16  C   LIG    1       27.427 -16.755   3.963  0.00  0.00    +0.127 C 
ATOM     17  O   LIG    1       25.162 -15.357   3.782  0.00  0.00    -0.252 OA
ENDBRANCH   6  15
BRANCH   1  18
ATOM     18  C   LIG    1       27.194 -20.902   6.020  0.00  0.00    +0.112 C 
BRANCH  18  19
ATOM     19  C   LIG    1       27.270 -19.949   7.230  0.00  0.00    +0.038 C 
BRANCH  19  22
ATOM     20  C   LIG    1       29.962 -18.781   6.483  0.00  0.00    +0.105 C 
ATOM     21  N   LIG    1       29.540 -18.972   7.873  0.00  0.00    -0.302 NA
ATOM     22  C   LIG    1       28.574 -20.076   8.065  0.00  0.00    +0.058 C 
ATOM     23  C   LIG    1       29.224 -21.458   7.825  0.00  0.00    +0.019 C 
ATOM     24  C   LIG    1       30.505 -21.650   8.638  0.00  0.00    +0.003 C 
ATOM     25  C   LIG    1       31.457 -20.470   8.482  0.00  0.00    +0.015 C 
ATOM     26  C   LIG    1       30.728 -19.149   8.729  0.00  0.00    +0.084 C 
ENDBRANCH  19  22
ENDBRANCH  18  19
ENDBRANCH   1  18
TORSDOF 4
ENDMDL
MODEL 7
REMARK VINA RESULT:      -6.5      8.145     10.249
REMARK  Name = *****
REMARK                            x       y       z     vdW  Elec       q    Type
REMARK                         _______ _______ _______ _____ _____    ______ ____
ROOT
ATOM      1  N   LIG    1       23.718 -30.064  11.552  0.00  0.00    -0.298 N 
ATOM      2  C   LIG    1       23.829 -28.838  12.284  0.00  0.00    +0.049 A 
ATOM      3  C   LIG    1       22.707 -28.187  12.824  0.00  0.00    +0.034 A 
ATOM      4  C   LIG    1       22.840 -27.001  13.578  0.00  0.00    +0.018 A 
ATOM      5  C   LIG    1       24.085 -26.417  13.795  0.00  0.00    +0.018 A 
ATOM      6  C   LIG    1       25.210 -26.999  13.240  0.00  0.00    +0.040 A 
ATOM      7  S   LIG    1       21.039 -28.765  12.647  0.00  0.00    -0.086 S 
ATOM      8  C   LIG    1       21.235 -30.183  11.599  0.00  0.00    +0.034 A 
ATOM      9  C   LIG    1       20.024 -30.800  11.217  0.00  0.00    +0.017 A 
ATOM     10  C   LIG    1       20.020 -31.943  10.428  0.00  0.00    +0.001 A 
ATOM     11  C   LIG    1       21.225 -32.472  10.013  0.00  0.00    +0.002 A 
ATOM     12  C   LIG    1       22.432 -31.853  10.379  0.00  0.00    +0.024 A 
ATOM     13  C   LIG    1       25.069 -28.195  12.513  0.00  0.00    +0.041 A 
ATOM     14  C   LIG    1       22.483 -30.692  11.187  0.00  0.00    +0.048 A 
ENDROOT
BRANCH   6  15
ATOM     15  S   LIG    1       26.836 -26.264  13.546  0.00  0.00    +0.051 S 
ATOM     16  C   LIG    1       26.861 -26.378  15.357  0.00  0.00    +0.127 C 
ATOM     17  O   LIG    1       26.717 -24.811  13.203  0.00  0.00    -0.252 OA
ENDBRANCH   6  15
BRANCH   1  18
ATOM     18  C   LIG    1       24.979 -30.797  11.222  0.00  0.00    +0.112 C 
BRANCH  18  19
ATOM     19  C   LIG    1       25.764 -30.098  10.094  0.00  0.00    +0.038 C 
BRANCH  19  22
ATOM     20  C   LIG    1       26.337 -31.732   7.610  0.00  0.00    +0.105 C 
ATOM     21  N   LIG    1       24.999 -31.235   7.939  0.00  0.00    -0.302 NA
ATOM     22  C   LIG    1       24.996 -29.996   8.747  0.00  0.00    +0.058 C 
ATOM     23  C   LIG    1       25.507 -28.780   7.938  0.00  0.00    +0.019 C 
ATOM     24  C   LIG    1       24.772 -28.615   6.607  0.00  0.00    +0.003 C 
ATOM     25  C   LIG    1       24.725 -29.919   5.821  0.00  0.00    +0.015 C 
ATOM     26  C   LIG    1       24.218 -31.063   6.700  0.00  0.00    +0.084 C 
ENDBRANCH  19  22
ENDBRANCH  18  19
ENDBRANCH   1  18
TORSDOF 4
ENDMDL
MODEL 8
REMARK VINA RESULT:      -6.5      6.820     10.543
REMARK  Name = *****
REMARK                            x       y       z     vdW  Elec       q    Type
REMARK                         _______ _______ _______ _____ _____    ______ ____
ROOT
ATOM      1  N   LIG    1       24.901 -30.798   7.562  0.00  0.00    -0.298 N 
ATOM      2  C   LIG    1       24.763 -31.065   8.962  0.00  0.00    +0.049 A 
ATOM      3  C   LIG    1       25.384 -32.164   9.577  0.00  0.00    +0.034 A 
ATOM      4  C   LIG    1       25.270 -32.388  10.966  0.00  0.00    +0.018 A 
ATOM      5  C   LIG    1       24.517 -31.543  11.777  0.00  0.00    +0.018 A 
ATOM      6  C   LIG    1       23.849 -30.476  11.203  0.00  0.00    +0.040 A 
ATOM      7  S   LIG    1       26.373 -33.359   8.717  0.00  0.00    -0.086 S 
ATOM      8  C   LIG    1       26.229 -32.831   7.030  0.00  0.00    +0.034 A 
ATOM      9  C   LIG    1       26.864 -33.679   6.095  0.00  0.00    +0.017 A 
ATOM     10  C   LIG    1       26.868 -33.374   4.740  0.00  0.00    +0.001 A 
ATOM     11  C   LIG    1       26.234 -32.226   4.311  0.00  0.00    +0.002 A 
ATOM     12  C   LIG    1       25.588 -31.387   5.236  0.00  0.00    +0.024 A 
ATOM     13  C   LIG    1       23.992 -30.248   9.823  0.00  0.00    +0.041 A 
ATOM     14  C   LIG    1       25.565 -31.655   6.625  0.00  0.00    +0.048 A 
ENDROOT
BRANCH   6  15
ATOM     15  S   LIG    1       22.896 -29.354  12.255  0.00  0.00    +0.051 S 
ATOM     16  C   LIG    1       24.252 -28.311  12.858  0.00  0.00    +0.127 C 
ATOM     17  O   LIG    1       22.419 -30.165  13.421  0.00  0.00    -0.252 OA
ENDBRANCH   6  15
BRANCH   1  18
ATOM     18  C   LIG    1       24.401 -29.486   7.048  0.00  0.00    +0.112 C 
BRANCH  18  19
ATOM     19  C   LIG    1       25.465 -28.380   7.181  0.00  0.00    +0.038 C 
BRANCH  19  22
ATOM     20  C   LIG    1       25.940 -27.129   4.465  0.00  0.00    +0.105 C 
ATOM     21  N   LIG    1       24.764 -26.823   5.282  0.00  0.00    -0.302 NA
ATOM     22  C   LIG    1       24.984 -26.970   6.738  0.00  0.00    +0.058 C 
ATOM     23  C   LIG    1       25.942 -25.887   7.288  0.00  0.00    +0.019 C 
ATOM     24  C   LIG    1       25.507 -24.473   6.899  0.00  0.00    +0.003 C 
ATOM     25  C   LIG    1       25.217 -24.359   5.409  0.00  0.00    +0.015 C 
ATOM     26  C   LIG    1       24.273 -25.471   4.953  0.00  0.00    +0.084 C 
ENDBRANCH  19  22
ENDBRANCH  18  19
ENDBRANCH   1  18
TORSDOF 4
ENDMDL
MODEL 9
REMARK VINA RESULT:      -6.5      2.496      5.560
REMARK  Name = *****
REMARK                            x       y       z     vdW  Elec       q    Type
REMARK                         _______ _______ _______ _____ _____    ______ ____
ROOT
ATOM      1  N   LIG    1       28.019 -20.826   6.564  0.00  0.00    -0.298 N 
ATOM      2  C   LIG    1       27.444 -19.944   5.593  0.00  0.00    +0.049 A 
ATOM      3  C   LIG    1       28.096 -18.776   5.166  0.00  0.00    +0.034 A 
ATOM      4  C   LIG    1       27.532 -17.940   4.178  0.00  0.00    +0.018 A 
ATOM      5  C   LIG    1       26.295 -18.228   3.606  0.00  0.00    +0.018 A 
ATOM      6  C   LIG    1       25.597 -19.343   4.033  0.00  0.00    +0.040 A 
ATOM      7  S   LIG    1       29.668 -18.231   5.782  0.00  0.00    -0.086 S 
ATOM      8  C   LIG    1       30.026 -19.436   7.034  0.00  0.00    +0.034 A 
ATOM      9  C   LIG    1       31.208 -19.186   7.764  0.00  0.00    +0.017 A 
ATOM     10  C   LIG    1       31.639 -20.064   8.752  0.00  0.00    +0.001 A 
ATOM     11  C   LIG    1       30.888 -21.191   9.017  0.00  0.00    +0.002 A 
ATOM     12  C   LIG    1       29.702 -21.435   8.303  0.00  0.00    +0.024 A 
ATOM     13  C   LIG    1       26.181 -20.182   4.999  0.00  0.00    +0.041 A 
ATOM     14  C   LIG    1       29.231 -20.572   7.285  0.00  0.00    +0.048 A 
ENDROOT
BRANCH   6  15
ATOM     15  S   LIG    1       24.005 -19.742   3.270  0.00  0.00    +0.051 S 
ATOM     16  C   LIG    1       22.918 -18.793   4.369  0.00  0.00    +0.127 C 
ATOM     17  O   LIG    1       23.750 -21.192   3.550  0.00  0.00    -0.252 OA
ENDBRANCH   6  15
BRANCH   1  18
ATOM     18  C   LIG    1       27.363 -22.152   6.778  0.00  0.00    +0.112 C 
BRANCH  18  19
ATOM     19  C   LIG    1       26.538 -22.175   8.080  0.00  0.00    +0.038 C 
BRANCH  19  22
ATOM     20  C   LIG    1       25.216 -23.573   5.742  0.00  0.00    +0.105 C 
ATOM     21  N   LIG    1       24.609 -23.512   7.074  0.00  0.00    -0.302 NA
ATOM     22  C   LIG    1       25.007 -22.328   7.866  0.00  0.00    +0.058 C 
ATOM     23  C   LIG    1       24.422 -21.021   7.281  0.00  0.00    +0.019 C 
ATOM     24  C   LIG    1       22.910 -21.104   7.065  0.00  0.00    +0.003 C 
ATOM     25  C   LIG    1       22.513 -22.366   6.310  0.00  0.00    +0.015 C 
ATOM     26  C   LIG    1       23.142 -23.602   6.952  0.00  0.00    +0.084 C 
ENDBRANCH  19  22
ENDBRANCH  18  19
ENDBRANCH   1  18
TORSDOF 4
ENDMDL
