MODEL 1
REMARK VINA RESULT:      13.1      0.000      0.000
REMARK  Name = *****
REMARK                            x       y       z     vdW  Elec       q    Type
REMARK                         _______ _______ _______ _____ _____    ______ ____
ROOT
ATOM      1  C   LIG    1       27.675 -15.517   4.216  0.00  0.00    +0.221 A 
ATOM      2  N   LIG    1       27.097 -14.508   4.901  0.00  0.00    -0.198 NA
ATOM      3  C   LIG    1       27.159 -13.233   4.435  0.00  0.00    +0.146 A 
ATOM      4  C   LIG    1       27.902 -12.966   3.292  0.00  0.00    +0.099 A 
ATOM      5 CL   LIG    1       28.464 -11.456   2.694  0.00  0.00    -0.078 Cl
ATOM      6  C   LIG    1       28.343 -14.071   2.591  0.00  0.00    +0.138 A 
ATOM      7  N   LIG    1       28.226 -15.342   3.012  0.00  0.00    -0.221 NA
ENDROOT
BRANCH   1   8
ATOM      8  N   LIG    1       27.779 -16.808   4.731  0.00  0.00    -0.281 N 
ATOM      9  H   LIG    1       28.492 -16.869   5.445  0.00  0.00    +0.155 HD
BRANCH   8  15
ATOM     10  C   LIG    1       23.289 -18.637   3.881  0.00  0.00    +0.044 C 
ATOM     11  C   LIG    1       24.703 -18.905   4.317  0.00  0.00    -0.045 A 
ATOM     12  C   LIG    1       25.199 -20.197   4.558  0.00  0.00    -0.038 A 
ATOM     13  C   LIG    1       26.566 -20.314   4.829  0.00  0.00    +0.051 A 
ATOM     14  C   LIG    1       27.448 -19.229   4.785  0.00  0.00    +0.142 A 
ATOM     15  C   LIG    1       26.935 -17.926   4.645  0.00  0.00    +0.076 A 
ATOM     16  C   LIG    1       25.557 -17.794   4.456  0.00  0.00    +0.030 A 
BRANCH  12  17
ATOM     17  C   LIG    1       24.297 -21.432   4.580  0.00  0.00    +0.022 C 
ATOM     18  C   LIG    1       23.338 -21.571   5.787  0.00  0.00    +0.023 C 
ATOM     19  C   LIG    1       21.982 -20.871   5.643  0.00  0.00    +0.081 C 
ATOM     20  N   LIG    1       21.354 -21.091   4.343  0.00  0.00    -0.316 NA
ATOM     21  H   LIG    1       21.103 -22.076   4.257  0.00  0.00    +0.122 HD
ATOM     22  C   LIG    1       22.249 -20.727   3.244  0.00  0.00    +0.081 C 
ATOM     23  C   LIG    1       23.520 -21.571   3.262  0.00  0.00    +0.023 C 
ENDBRANCH  12  17
BRANCH  14  24
ATOM     24  O   LIG    1       28.812 -19.394   4.934  0.00  0.00    -0.487 OA
BRANCH  24  25
ATOM     25  C   LIG    1       29.283 -19.635   6.279  0.00  0.00    +0.167 C 
ATOM     26  C   LIG    1       28.291 -20.548   6.991  0.00  0.00    +0.051 C 
ATOM     27  C   LIG    1       29.444 -18.315   7.025  0.00  0.00    +0.051 C 
ENDBRANCH  24  25
ENDBRANCH  14  24
ENDBRANCH   8  15
ENDBRANCH   1   8
BRANCH   3  28
ATOM     28  N   LIG    1       26.481 -12.337   5.279  0.00  0.00    -0.297 N 
ATOM     29  H   LIG    1       27.150 -11.952   5.947  0.00  0.00    +0.154 HD
BRANCH  28  30
ATOM     30  C   LIG    1       25.156 -11.904   5.454  0.00  0.00    +0.058 A 
ATOM     31  C   LIG    1       24.197 -11.911   4.418  0.00  0.00    +0.110 A 
ATOM     32  C   LIG    1       22.828 -11.714   4.691  0.00  0.00    +0.029 A 
ATOM     33  C   LIG    1       22.389 -11.545   5.999  0.00  0.00    +0.002 A 
ATOM     34  C   LIG    1       23.323 -11.450   7.017  0.00  0.00    +0.002 A 
ATOM     35  C   LIG    1       24.685 -11.559   6.725  0.00  0.00    +0.025 A 
BRANCH  31  36
ATOM     36  S   LIG    1       24.634 -12.098   2.698  0.00  0.00    +0.001 S 
ATOM     37  O   LIG    1       26.033 -11.662   2.608  0.00  0.00    -0.169 OA
ATOM     38  O   LIG    1       23.624 -11.449   1.903  0.00  0.00    -0.169 OA
BRANCH  36  39
ATOM     39  C   LIG    1       24.595 -13.843   2.320  0.00  0.00    +0.130 C 
ATOM     40  C   LIG    1       24.121 -14.625   3.543  0.00  0.00    +0.032 C 
ATOM     41  C   LIG    1       25.946 -14.354   1.844  0.00  0.00    +0.032 C 
ENDBRANCH  36  39
ENDBRANCH  31  36
ENDBRANCH  28  30
ENDBRANCH   3  28
TORSDOF 9
ENDMDL
