MODEL 1
REMARK VINA RESULT:      -5.5      0.000      0.000
REMARK  Name = *****
REMARK                            x       y       z     vdW  Elec       q    Type
REMARK                         _______ _______ _______ _____ _____    ______ ____
ROOT
ATOM      1  C   LIG    1       24.837 -17.142   3.436  0.00  0.00    +0.008 C 
ATOM      2  C   LIG    1       24.593 -15.887   3.851  0.00  0.00    +0.009 C 
ENDROOT
BRANCH   1   6
ATOM      3  C   LIG    1       22.574 -20.487   4.817  0.00  0.00    +0.117 A 
ATOM      4  C   LIG    1       23.903 -20.673   4.458  0.00  0.00    +0.046 A 
ATOM      5  C   LIG    1       24.656 -19.589   4.000  0.00  0.00    +0.011 A 
ATOM      6  C   LIG    1       24.076 -18.318   3.886  0.00  0.00    -0.025 A 
ATOM      7  C   LIG    1       22.737 -18.149   4.269  0.00  0.00    +0.011 A 
ATOM      8  C   LIG    1       21.982 -19.233   4.729  0.00  0.00    +0.046 A 
BRANCH   3   9
ATOM      9  O   LIG    1       21.877 -21.572   5.260  0.00  0.00    -0.507 OA
ATOM     10  H   LIG    1       21.405 -21.327   6.072  0.00  0.00    +0.292 HD
ENDBRANCH   3   9
ENDBRANCH   1   6
BRANCH   2  11
ATOM     11  C   LIG    1       25.368 -14.715   3.416  0.00  0.00    -0.018 A 
ATOM     12  C   LIG    1       24.769 -13.600   2.818  0.00  0.00    +0.053 A 
ATOM     13  C   LIG    1       25.542 -12.502   2.446  0.00  0.00    +0.121 A 
ATOM     14  C   LIG    1       26.913 -12.484   2.672  0.00  0.00    +0.090 A 
ATOM     15  C   LIG    1       27.505 -13.582   3.282  0.00  0.00    +0.121 A 
ATOM     16  C   LIG    1       26.750 -14.691   3.661  0.00  0.00    +0.053 A 
BRANCH  13  17
ATOM     17  O   LIG    1       24.906 -11.447   1.859  0.00  0.00    -0.507 OA
ATOM     18  H   LIG    1       24.054 -11.313   2.307  0.00  0.00    +0.292 HD
ENDBRANCH  13  17
BRANCH  15  19
ATOM     19  O   LIG    1       28.852 -13.534   3.498  0.00  0.00    -0.507 OA
ATOM     20  H   LIG    1       29.243 -14.379   3.219  0.00  0.00    +0.292 HD
ENDBRANCH  15  19
ENDBRANCH   2  11
TORSDOF 5
ENDMDL
MODEL 2
REMARK VINA RESULT:      -5.4      0.177      2.009
REMARK  Name = *****
REMARK                            x       y       z     vdW  Elec       q    Type
REMARK                         _______ _______ _______ _____ _____    ______ ____
ROOT
ATOM      1  C   LIG    1       24.781 -17.025   3.384  0.00  0.00    +0.008 C 
ATOM      2  C   LIG    1       24.755 -15.844   4.025  0.00  0.00    +0.009 C 
ENDROOT
BRANCH   1   6
ATOM      3  C   LIG    1       22.701 -20.459   4.830  0.00  0.00    +0.117 A 
ATOM      4  C   LIG    1       24.010 -20.600   4.390  0.00  0.00    +0.046 A 
ATOM      5  C   LIG    1       24.704 -19.486   3.909  0.00  0.00    +0.011 A 
ATOM      6  C   LIG    1       24.083 -18.230   3.854  0.00  0.00    -0.025 A 
ATOM      7  C   LIG    1       22.764 -18.108   4.319  0.00  0.00    +0.011 A 
ATOM      8  C   LIG    1       22.070 -19.222   4.802  0.00  0.00    +0.046 A 
BRANCH   3   9
ATOM      9  O   LIG    1       22.062 -21.572   5.292  0.00  0.00    -0.507 OA
ATOM     10  H   LIG    1       22.282 -22.319   4.714  0.00  0.00    +0.292 HD
ENDBRANCH   3   9
ENDBRANCH   1   6
BRANCH   2  11
ATOM     11  C   LIG    1       25.472 -14.645   3.563  0.00  0.00    -0.018 A 
ATOM     12  C   LIG    1       26.860 -14.507   3.687  0.00  0.00    +0.053 A 
ATOM     13  C   LIG    1       27.497 -13.363   3.210  0.00  0.00    +0.121 A 
ATOM     14  C   LIG    1       26.776 -12.348   2.594  0.00  0.00    +0.090 A 
ATOM     15  C   LIG    1       25.401 -12.492   2.455  0.00  0.00    +0.121 A 
ATOM     16  C   LIG    1       24.744 -13.628   2.926  0.00  0.00    +0.053 A 
BRANCH  13  17
ATOM     17  O   LIG    1       28.850 -13.278   3.365  0.00  0.00    -0.507 OA
ATOM     18  H   LIG    1       29.145 -12.414   3.032  0.00  0.00    +0.292 HD
ENDBRANCH  13  17
BRANCH  15  19
ATOM     19  O   LIG    1       24.719 -11.482   1.840  0.00  0.00    -0.507 OA
ATOM     20  H   LIG    1       24.334 -10.906   2.522  0.00  0.00    +0.292 HD
ENDBRANCH  15  19
ENDBRANCH   2  11
TORSDOF 5
ENDMDL
MODEL 3
REMARK VINA RESULT:      -5.0      1.484      7.444
REMARK  Name = *****
REMARK                            x       y       z     vdW  Elec       q    Type
REMARK                         _______ _______ _______ _____ _____    ______ ____
ROOT
ATOM      1  C   LIG    1       24.624 -16.519   4.187  0.00  0.00    +0.008 C 
ATOM      2  C   LIG    1       24.765 -17.677   3.518  0.00  0.00    +0.009 C 
ENDROOT
BRANCH   1   6
ATOM      3  C   LIG    1       25.110 -12.667   2.415  0.00  0.00    +0.117 A 
ATOM      4  C   LIG    1       26.126 -13.604   2.282  0.00  0.00    +0.046 A 
ATOM      5  C   LIG    1       25.984 -14.868   2.861  0.00  0.00    +0.011 A 
ATOM      6  C   LIG    1       24.830 -15.193   3.586  0.00  0.00    -0.025 A 
ATOM      7  C   LIG    1       23.809 -14.237   3.694  0.00  0.00    +0.011 A 
ATOM      8  C   LIG    1       23.948 -12.972   3.114  0.00  0.00    +0.046 A 
BRANCH   3   9
ATOM      9  O   LIG    1       25.289 -11.447   1.834  0.00  0.00    -0.507 OA
ATOM     10  H   LIG    1       25.069 -11.516   0.892  0.00  0.00    +0.292 HD
ENDBRANCH   3   9
ENDBRANCH   1   6
BRANCH   2  11
ATOM     11  C   LIG    1       24.579 -19.003   4.127  0.00  0.00    -0.018 A 
ATOM     12  C   LIG    1       25.624 -19.695   4.750  0.00  0.00    +0.053 A 
ATOM     13  C   LIG    1       25.393 -20.938   5.336  0.00  0.00    +0.121 A 
ATOM     14  C   LIG    1       24.125 -21.507   5.327  0.00  0.00    +0.090 A 
ATOM     15  C   LIG    1       23.083 -20.812   4.725  0.00  0.00    +0.121 A 
ATOM     16  C   LIG    1       23.294 -19.568   4.132  0.00  0.00    +0.053 A 
BRANCH  13  17
ATOM     17  O   LIG    1       26.450 -21.572   5.921  0.00  0.00    -0.507 OA
ATOM     18  H   LIG    1       26.505 -21.287   6.849  0.00  0.00    +0.292 HD
ENDBRANCH  13  17
BRANCH  15  19
ATOM     19  O   LIG    1       21.848 -21.392   4.737  0.00  0.00    -0.507 OA
ATOM     20  H   LIG    1       21.862 -22.169   4.152  0.00  0.00    +0.292 HD
ENDBRANCH  15  19
ENDBRANCH   2  11
TORSDOF 5
ENDMDL
MODEL 4
REMARK VINA RESULT:      -4.7      1.500      7.304
REMARK  Name = *****
REMARK                            x       y       z     vdW  Elec       q    Type
REMARK                         _______ _______ _______ _____ _____    ______ ____
ROOT
ATOM      1  C   LIG    1       24.565 -16.521   4.246  0.00  0.00    +0.008 C 
ATOM      2  C   LIG    1       24.645 -17.692   3.590  0.00  0.00    +0.009 C 
ENDROOT
BRANCH   1   6
ATOM      3  C   LIG    1       25.271 -12.720   2.437  0.00  0.00    +0.117 A 
ATOM      4  C   LIG    1       24.064 -12.945   3.087  0.00  0.00    +0.046 A 
ATOM      5  C   LIG    1       23.816 -14.186   3.680  0.00  0.00    +0.011 A 
ATOM      6  C   LIG    1       24.770 -15.210   3.612  0.00  0.00    -0.025 A 
ATOM      7  C   LIG    1       25.989 -14.956   2.965  0.00  0.00    +0.011 A 
ATOM      8  C   LIG    1       26.239 -13.714   2.373  0.00  0.00    +0.046 A 
BRANCH   3   9
ATOM      9  O   LIG    1       25.471 -11.495   1.874  0.00  0.00    -0.507 OA
ATOM     10  H   LIG    1       26.395 -11.435   1.583  0.00  0.00    +0.292 HD
ENDBRANCH   3   9
ENDBRANCH   1   6
BRANCH   2  11
ATOM     11  C   LIG    1       24.460 -19.003   4.230  0.00  0.00    -0.018 A 
ATOM     12  C   LIG    1       23.217 -19.648   4.273  0.00  0.00    +0.053 A 
ATOM     13  C   LIG    1       23.097 -20.903   4.868  0.00  0.00    +0.121 A 
ATOM     14  C   LIG    1       24.203 -21.543   5.415  0.00  0.00    +0.090 A 
ATOM     15  C   LIG    1       25.439 -20.912   5.357  0.00  0.00    +0.121 A 
ATOM     16  C   LIG    1       25.580 -19.656   4.767  0.00  0.00    +0.053 A 
BRANCH  13  17
ATOM     17  O   LIG    1       21.861 -21.480   4.889  0.00  0.00    -0.507 OA
ATOM     18  H   LIG    1       21.281 -20.945   5.456  0.00  0.00    +0.292 HD
ENDBRANCH  13  17
BRANCH  15  19
ATOM     19  O   LIG    1       26.508 -21.566   5.897  0.00  0.00    -0.507 OA
ATOM     20  H   LIG    1       27.315 -21.061   5.700  0.00  0.00    +0.292 HD
ENDBRANCH  15  19
ENDBRANCH   2  11
TORSDOF 5
ENDMDL
MODEL 5
REMARK VINA RESULT:      -3.9      1.829      7.648
REMARK  Name = *****
REMARK                            x       y       z     vdW  Elec       q    Type
REMARK                         _______ _______ _______ _____ _____    ______ ____
ROOT
ATOM      1  C   LIG    1       25.479 -16.632   3.685  0.00  0.00    +0.008 C 
ATOM      2  C   LIG    1       26.150 -17.795   3.634  0.00  0.00    +0.009 C 
ENDROOT
BRANCH   1   6
ATOM      3  C   LIG    1       27.297 -12.840   2.953  0.00  0.00    +0.117 A 
ATOM      4  C   LIG    1       25.963 -13.026   2.613  0.00  0.00    +0.046 A 
ATOM      5  C   LIG    1       25.355 -14.263   2.842  0.00  0.00    +0.011 A 
ATOM      6  C   LIG    1       26.084 -15.322   3.400  0.00  0.00    -0.025 A 
ATOM      7  C   LIG    1       27.426 -15.107   3.751  0.00  0.00    +0.011 A 
ATOM      8  C   LIG    1       28.036 -13.870   3.524  0.00  0.00    +0.046 A 
BRANCH   3   9
ATOM      9  O   LIG    1       27.850 -11.617   2.714  0.00  0.00    -0.507 OA
ATOM     10  H   LIG    1       28.363 -11.664   1.891  0.00  0.00    +0.292 HD
ENDBRANCH   3   9
ENDBRANCH   1   6
BRANCH   2  11
ATOM     11  C   LIG    1       25.548 -19.102   3.941  0.00  0.00    -0.018 A 
ATOM     12  C   LIG    1       25.743 -19.748   5.168  0.00  0.00    +0.053 A 
ATOM     13  C   LIG    1       25.130 -20.974   5.422  0.00  0.00    +0.121 A 
ATOM     14  C   LIG    1       24.307 -21.570   4.475  0.00  0.00    +0.090 A 
ATOM     15  C   LIG    1       24.098 -20.921   3.264  0.00  0.00    +0.121 A 
ATOM     16  C   LIG    1       24.703 -19.695   2.990  0.00  0.00    +0.053 A 
BRANCH  13  17
ATOM     17  O   LIG    1       25.363 -21.562   6.630  0.00  0.00    -0.507 OA
ATOM     18  H   LIG    1       26.170 -21.176   7.011  0.00  0.00    +0.292 HD
ENDBRANCH  13  17
BRANCH  15  19
ATOM     19  O   LIG    1       23.279 -21.527   2.356  0.00  0.00    -0.507 OA
ATOM     20  H   LIG    1       23.486 -22.477   2.333  0.00  0.00    +0.292 HD
ENDBRANCH  15  19
ENDBRANCH   2  11
TORSDOF 5
ENDMDL
MODEL 6
REMARK VINA RESULT:      -3.3      0.746      2.434
REMARK  Name = *****
REMARK                            x       y       z     vdW  Elec       q    Type
REMARK                         _______ _______ _______ _____ _____    ______ ____
ROOT
ATOM      1  C   LIG    1       23.498 -16.373   3.711  0.00  0.00    +0.008 C 
ATOM      2  C   LIG    1       24.750 -15.931   3.916  0.00  0.00    +0.009 C 
ENDROOT
BRANCH   1   6
ATOM      3  C   LIG    1       22.215 -20.306   4.760  0.00  0.00    +0.117 A 
ATOM      4  C   LIG    1       21.263 -19.310   4.586  0.00  0.00    +0.046 A 
ATOM      5  C   LIG    1       21.668 -18.016   4.247  0.00  0.00    +0.011 A 
ATOM      6  C   LIG    1       23.027 -17.713   4.095  0.00  0.00    -0.025 A 
ATOM      7  C   LIG    1       23.971 -18.739   4.259  0.00  0.00    +0.011 A 
ATOM      8  C   LIG    1       23.568 -20.034   4.597  0.00  0.00    +0.046 A 
BRANCH   3   9
ATOM      9  O   LIG    1       21.776 -21.555   5.089  0.00  0.00    -0.507 OA
ATOM     10  H   LIG    1       21.687 -22.077   4.276  0.00  0.00    +0.292 HD
ENDBRANCH   3   9
ENDBRANCH   1   6
BRANCH   2  11
ATOM     11  C   LIG    1       25.225 -14.598   3.512  0.00  0.00    -0.018 A 
ATOM     12  C   LIG    1       26.579 -14.242   3.549  0.00  0.00    +0.053 A 
ATOM     13  C   LIG    1       26.983 -12.975   3.131  0.00  0.00    +0.121 A 
ATOM     14  C   LIG    1       26.060 -12.050   2.660  0.00  0.00    +0.090 A 
ATOM     15  C   LIG    1       24.719 -12.409   2.607  0.00  0.00    +0.121 A 
ATOM     16  C   LIG    1       24.293 -13.671   3.021  0.00  0.00    +0.053 A 
BRANCH  13  17
ATOM     17  O   LIG    1       28.313 -12.679   3.197  0.00  0.00    -0.507 OA
ATOM     18  H   LIG    1       28.539 -12.475   4.120  0.00  0.00    +0.292 HD
ENDBRANCH  13  17
BRANCH  15  19
ATOM     19  O   LIG    1       23.835 -11.482   2.133  0.00  0.00    -0.507 OA
ATOM     20  H   LIG    1       23.351 -11.867   1.384  0.00  0.00    +0.292 HD
ENDBRANCH  15  19
ENDBRANCH   2  11
TORSDOF 5
ENDMDL
MODEL 7
REMARK VINA RESULT:      -3.1      1.307      7.563
REMARK  Name = *****
REMARK                            x       y       z     vdW  Elec       q    Type
REMARK                         _______ _______ _______ _____ _____    ______ ____
ROOT
ATOM      1  C   LIG    1       24.322 -16.076   3.862  0.00  0.00    +0.008 C 
ATOM      2  C   LIG    1       24.463 -17.407   3.738  0.00  0.00    +0.009 C 
ENDROOT
BRANCH   1   6
ATOM      3  C   LIG    1       27.538 -13.320   3.333  0.00  0.00    +0.117 A 
ATOM      4  C   LIG    1       26.242 -12.906   3.055  0.00  0.00    +0.046 A 
ATOM      5  C   LIG    1       25.179 -13.798   3.219  0.00  0.00    +0.011 A 
ATOM      6  C   LIG    1       25.412 -15.111   3.648  0.00  0.00    -0.025 A 
ATOM      7  C   LIG    1       26.727 -15.504   3.939  0.00  0.00    +0.011 A 
ATOM      8  C   LIG    1       27.792 -14.612   3.777  0.00  0.00    +0.046 A 
BRANCH   3   9
ATOM      9  O   LIG    1       28.545 -12.418   3.160  0.00  0.00    -0.507 OA
ATOM     10  H   LIG    1       29.393 -12.869   3.296  0.00  0.00    +0.292 HD
ENDBRANCH   3   9
ENDBRANCH   1   6
BRANCH   2  11
ATOM     11  C   LIG    1       23.377 -18.371   3.973  0.00  0.00    -0.018 A 
ATOM     12  C   LIG    1       23.570 -19.557   4.692  0.00  0.00    +0.053 A 
ATOM     13  C   LIG    1       22.504 -20.427   4.912  0.00  0.00    +0.121 A 
ATOM     14  C   LIG    1       21.232 -20.132   4.436  0.00  0.00    +0.090 A 
ATOM     15  C   LIG    1       21.035 -18.947   3.739  0.00  0.00    +0.121 A 
ATOM     16  C   LIG    1       22.089 -18.063   3.508  0.00  0.00    +0.053 A 
BRANCH  13  17
ATOM     17  O   LIG    1       22.752 -21.572   5.611  0.00  0.00    -0.507 OA
ATOM     18  H   LIG    1       22.467 -21.438   6.531  0.00  0.00    +0.292 HD
ENDBRANCH  13  17
BRANCH  15  19
ATOM     19  O   LIG    1       19.774 -18.680   3.289  0.00  0.00    -0.507 OA
ATOM     20  H   LIG    1       19.826 -17.991   2.606  0.00  0.00    +0.292 HD
ENDBRANCH  15  19
ENDBRANCH   2  11
TORSDOF 5
ENDMDL
MODEL 8
REMARK VINA RESULT:      -2.8      1.279      7.302
REMARK  Name = *****
REMARK                            x       y       z     vdW  Elec       q    Type
REMARK                         _______ _______ _______ _____ _____    ______ ____
ROOT
ATOM      1  C   LIG    1       24.709 -15.845   3.949  0.00  0.00    +0.008 C 
ATOM      2  C   LIG    1       24.853 -17.155   3.687  0.00  0.00    +0.009 C 
ENDROOT
BRANCH   1   6
ATOM      3  C   LIG    1       27.735 -12.919   3.239  0.00  0.00    +0.117 A 
ATOM      4  C   LIG    1       26.492 -12.764   2.638  0.00  0.00    +0.046 A 
ATOM      5  C   LIG    1       25.492 -13.716   2.858  0.00  0.00    +0.011 A 
ATOM      6  C   LIG    1       25.739 -14.833   3.667  0.00  0.00    -0.025 A 
ATOM      7  C   LIG    1       26.996 -14.961   4.277  0.00  0.00    +0.011 A 
ATOM      8  C   LIG    1       27.997 -14.009   4.060  0.00  0.00    +0.046 A 
BRANCH   3   9
ATOM      9  O   LIG    1       28.680 -11.967   2.999  0.00  0.00    -0.507 OA
ATOM     10  H   LIG    1       29.470 -12.398   2.637  0.00  0.00    +0.292 HD
ENDBRANCH   3   9
ENDBRANCH   1   6
BRANCH   2  11
ATOM     11  C   LIG    1       23.830 -18.168   3.989  0.00  0.00    -0.018 A 
ATOM     12  C   LIG    1       22.475 -17.979   3.686  0.00  0.00    +0.053 A 
ATOM     13  C   LIG    1       21.547 -18.980   3.968  0.00  0.00    +0.121 A 
ATOM     14  C   LIG    1       21.944 -20.183   4.538  0.00  0.00    +0.090 A 
ATOM     15  C   LIG    1       23.290 -20.378   4.822  0.00  0.00    +0.121 A 
ATOM     16  C   LIG    1       24.235 -19.389   4.549  0.00  0.00    +0.053 A 
BRANCH  13  17
ATOM     17  O   LIG    1       20.240 -18.738   3.660  0.00  0.00    -0.507 OA
ATOM     18  H   LIG    1       20.209 -18.147   2.889  0.00  0.00    +0.292 HD
ENDBRANCH  13  17
BRANCH  15  19
ATOM     19  O   LIG    1       23.652 -21.572   5.376  0.00  0.00    -0.507 OA
ATOM     20  H   LIG    1       23.145 -22.281   4.946  0.00  0.00    +0.292 HD
ENDBRANCH  15  19
ENDBRANCH   2  11
TORSDOF 5
ENDMDL
