MODEL 1
REMARK VINA RESULT:      -7.2      0.000      0.000
REMARK  Name = *****
REMARK                            x       y       z     vdW  Elec       q    Type
REMARK                         _______ _______ _______ _____ _____    ______ ____
ROOT
ATOM      1  C   LIG    1       29.488 -19.762   6.537  0.00  0.00    +0.044 C 
ATOM      2  C   LIG    1       28.037 -20.101   6.690  0.00  0.00    -0.047 A 
ATOM      3  C   LIG    1       27.489 -20.315   7.958  0.00  0.00    +0.049 A 
ATOM      4  C   LIG    1       26.129 -20.600   8.115  0.00  0.00    +0.120 A 
ATOM      5  C   LIG    1       25.268 -20.671   7.010  0.00  0.00    -0.003 A 
ATOM      6  C   LIG    1       25.833 -20.438   5.740  0.00  0.00    +0.008 A 
ATOM      7  C   LIG    1       27.193 -20.152   5.581  0.00  0.00    +0.004 A 
ENDROOT
BRANCH   5   8
ATOM      8  C   LIG    1       23.779 -20.973   7.064  0.00  0.00    +0.016 C 
ATOM      9  C   LIG    1       23.478 -22.474   7.105  0.00  0.00    +0.012 C 
ATOM     10  C   LIG    1       22.987 -20.256   5.968  0.00  0.00    +0.012 C 
ENDBRANCH   5   8
BRANCH   4  11
ATOM     11  O   LIG    1       25.738 -20.793   9.409  0.00  0.00    -0.506 OA
ATOM     12  H   LIG    1       25.716 -21.739   9.604  0.00  0.00    +0.292 HD
ENDBRANCH   4  11
TORSDOF 2
ENDMDL
MODEL 2
REMARK VINA RESULT:      -6.9      3.006      4.664
REMARK  Name = *****
REMARK                            x       y       z     vdW  Elec       q    Type
REMARK                         _______ _______ _______ _____ _____    ______ ____
ROOT
ATOM      1  C   LIG    1       25.760 -26.831   5.789  0.00  0.00    +0.044 C 
ATOM      2  C   LIG    1       25.280 -25.467   6.182  0.00  0.00    -0.047 A 
ATOM      3  C   LIG    1       23.911 -25.197   6.274  0.00  0.00    +0.049 A 
ATOM      4  C   LIG    1       23.452 -23.938   6.671  0.00  0.00    +0.120 A 
ATOM      5  C   LIG    1       24.345 -22.908   7.000  0.00  0.00    -0.003 A 
ATOM      6  C   LIG    1       25.721 -23.201   6.917  0.00  0.00    +0.008 A 
ATOM      7  C   LIG    1       26.183 -24.460   6.521  0.00  0.00    +0.004 A 
ENDROOT
BRANCH   5   8
ATOM      8  C   LIG    1       23.957 -21.505   7.442  0.00  0.00    +0.016 C 
ATOM      9  C   LIG    1       23.212 -20.724   6.356  0.00  0.00    +0.012 C 
ATOM     10  C   LIG    1       25.138 -20.716   8.014  0.00  0.00    +0.012 C 
ENDBRANCH   5   8
BRANCH   4  11
ATOM     11  O   LIG    1       22.092 -23.818   6.707  0.00  0.00    -0.506 OA
ATOM     12  H   LIG    1       21.735 -24.386   7.402  0.00  0.00    +0.292 HD
ENDBRANCH   4  11
TORSDOF 2
ENDMDL
MODEL 3
REMARK VINA RESULT:      -6.9      2.297      4.393
REMARK  Name = *****
REMARK                            x       y       z     vdW  Elec       q    Type
REMARK                         _______ _______ _______ _____ _____    ______ ____
ROOT
ATOM      1  C   LIG    1       21.922 -18.748   4.159  0.00  0.00    +0.044 C 
ATOM      2  C   LIG    1       23.013 -19.521   4.836  0.00  0.00    -0.047 A 
ATOM      3  C   LIG    1       24.284 -19.603   4.261  0.00  0.00    +0.049 A 
ATOM      4  C   LIG    1       25.318 -20.295   4.899  0.00  0.00    +0.120 A 
ATOM      5  C   LIG    1       25.120 -20.919   6.139  0.00  0.00    -0.003 A 
ATOM      6  C   LIG    1       23.837 -20.814   6.712  0.00  0.00    +0.008 A 
ATOM      7  C   LIG    1       22.801 -20.122   6.076  0.00  0.00    +0.004 A 
ENDROOT
BRANCH   5   8
ATOM      8  C   LIG    1       26.169 -21.696   6.919  0.00  0.00    +0.016 C 
ATOM      9  C   LIG    1       25.828 -23.181   7.059  0.00  0.00    +0.012 C 
ATOM     10  C   LIG    1       26.503 -21.051   8.267  0.00  0.00    +0.012 C 
ENDBRANCH   5   8
BRANCH   4  11
ATOM     11  O   LIG    1       26.501 -20.297   4.217  0.00  0.00    -0.506 OA
ATOM     12  H   LIG    1       26.625 -21.153   3.786  0.00  0.00    +0.292 HD
ENDBRANCH   4  11
TORSDOF 2
ENDMDL
MODEL 4
REMARK VINA RESULT:      -6.8      0.937      4.091
REMARK  Name = *****
REMARK                            x       y       z     vdW  Elec       q    Type
REMARK                         _______ _______ _______ _____ _____    ______ ____
ROOT
ATOM      1  C   LIG    1       22.796 -20.992   5.713  0.00  0.00    +0.044 C 
ATOM      2  C   LIG    1       24.197 -20.747   6.183  0.00  0.00    -0.047 A 
ATOM      3  C   LIG    1       24.503 -20.781   7.547  0.00  0.00    +0.049 A 
ATOM      4  C   LIG    1       25.813 -20.586   7.996  0.00  0.00    +0.120 A 
ATOM      5  C   LIG    1       26.864 -20.361   7.095  0.00  0.00    -0.003 A 
ATOM      6  C   LIG    1       26.543 -20.345   5.724  0.00  0.00    +0.008 A 
ATOM      7  C   LIG    1       25.233 -20.540   5.273  0.00  0.00    +0.004 A 
ENDROOT
BRANCH   5   8
ATOM      8  C   LIG    1       28.321 -20.137   7.471  0.00  0.00    +0.016 C 
ATOM      9  C   LIG    1       29.080 -19.303   6.436  0.00  0.00    +0.012 C 
ATOM     10  C   LIG    1       29.052 -21.438   7.813  0.00  0.00    +0.012 C 
ENDBRANCH   5   8
BRANCH   4  11
ATOM     11  O   LIG    1       25.959 -20.639   9.352  0.00  0.00    -0.506 OA
ATOM     12  H   LIG    1       26.725 -21.184   9.575  0.00  0.00    +0.292 HD
ENDBRANCH   4  11
TORSDOF 2
ENDMDL
MODEL 5
REMARK VINA RESULT:      -6.8      1.730      2.471
REMARK  Name = *****
REMARK                            x       y       z     vdW  Elec       q    Type
REMARK                         _______ _______ _______ _____ _____    ______ ____
ROOT
ATOM      1  C   LIG    1       29.292 -19.741   7.511  0.00  0.00    +0.044 C 
ATOM      2  C   LIG    1       27.883 -20.076   7.128  0.00  0.00    -0.047 A 
ATOM      3  C   LIG    1       27.487 -20.047   5.788  0.00  0.00    +0.049 A 
ATOM      4  C   LIG    1       26.183 -20.388   5.416  0.00  0.00    +0.120 A 
ATOM      5  C   LIG    1       25.233 -20.779   6.370  0.00  0.00    -0.003 A 
ATOM      6  C   LIG    1       25.652 -20.817   7.715  0.00  0.00    +0.008 A 
ATOM      7  C   LIG    1       26.956 -20.477   8.089  0.00  0.00    +0.004 A 
ENDROOT
BRANCH   5   8
ATOM      8  C   LIG    1       23.792 -21.170   6.079  0.00  0.00    +0.016 C 
ATOM      9  C   LIG    1       22.905 -19.966   5.748  0.00  0.00    +0.012 C 
ATOM     10  C   LIG    1       23.183 -22.051   7.174  0.00  0.00    +0.012 C 
ENDBRANCH   5   8
BRANCH   4  11
ATOM     11  O   LIG    1       25.938 -20.307   4.075  0.00  0.00    -0.506 OA
ATOM     12  H   LIG    1       25.291 -20.978   3.822  0.00  0.00    +0.292 HD
ENDBRANCH   4  11
TORSDOF 2
ENDMDL
MODEL 6
REMARK VINA RESULT:      -6.7      2.879      4.097
REMARK  Name = *****
REMARK                            x       y       z     vdW  Elec       q    Type
REMARK                         _______ _______ _______ _____ _____    ______ ____
ROOT
ATOM      1  C   LIG    1       22.457 -18.476   4.316  0.00  0.00    +0.044 C 
ATOM      2  C   LIG    1       23.102 -19.730   4.824  0.00  0.00    -0.047 A 
ATOM      3  C   LIG    1       22.865 -20.170   6.129  0.00  0.00    +0.049 A 
ATOM      4  C   LIG    1       23.435 -21.355   6.604  0.00  0.00    +0.120 A 
ATOM      5  C   LIG    1       24.255 -22.146   5.787  0.00  0.00    -0.003 A 
ATOM      6  C   LIG    1       24.472 -21.697   4.469  0.00  0.00    +0.008 A 
ATOM      7  C   LIG    1       23.902 -20.512   3.992  0.00  0.00    +0.004 A 
ENDROOT
BRANCH   5   8
ATOM      8  C   LIG    1       24.926 -23.448   6.197  0.00  0.00    +0.016 C 
ATOM      9  C   LIG    1       23.922 -24.559   6.516  0.00  0.00    +0.012 C 
ATOM     10  C   LIG    1       25.952 -23.259   7.317  0.00  0.00    +0.012 C 
ENDBRANCH   5   8
BRANCH   4  11
ATOM     11  O   LIG    1       23.122 -21.654   7.899  0.00  0.00    -0.506 OA
ATOM     12  H   LIG    1       22.177 -21.515   8.044  0.00  0.00    +0.292 HD
ENDBRANCH   4  11
TORSDOF 2
ENDMDL
MODEL 7
REMARK VINA RESULT:      -6.6      1.803      4.588
REMARK  Name = *****
REMARK                            x       y       z     vdW  Elec       q    Type
REMARK                         _______ _______ _______ _____ _____    ______ ____
ROOT
ATOM      1  C   LIG    1       23.301 -21.088   7.621  0.00  0.00    +0.044 C 
ATOM      2  C   LIG    1       24.751 -20.868   7.314  0.00  0.00    -0.047 A 
ATOM      3  C   LIG    1       25.172 -20.652   5.999  0.00  0.00    +0.049 A 
ATOM      4  C   LIG    1       26.518 -20.414   5.704  0.00  0.00    +0.120 A 
ATOM      5  C   LIG    1       27.488 -20.373   6.716  0.00  0.00    -0.003 A 
ATOM      6  C   LIG    1       27.045 -20.577   8.038  0.00  0.00    +0.008 A 
ATOM      7  C   LIG    1       25.699 -20.815   8.335  0.00  0.00    +0.004 A 
ENDROOT
BRANCH   5   8
ATOM      8  C   LIG    1       28.974 -20.123   6.511  0.00  0.00    +0.016 C 
ATOM      9  C   LIG    1       29.815 -20.501   7.733  0.00  0.00    +0.012 C 
ATOM     10  C   LIG    1       29.275 -18.704   6.020  0.00  0.00    +0.012 C 
ENDBRANCH   5   8
BRANCH   4  11
ATOM     11  O   LIG    1       26.782 -20.229   4.377  0.00  0.00    -0.506 OA
ATOM     12  H   LIG    1       27.699 -20.468   4.193  0.00  0.00    +0.292 HD
ENDBRANCH   4  11
TORSDOF 2
ENDMDL
MODEL 8
REMARK VINA RESULT:      -6.6      3.215      4.562
REMARK  Name = *****
REMARK                            x       y       z     vdW  Elec       q    Type
REMARK                         _______ _______ _______ _____ _____    ______ ____
ROOT
ATOM      1  C   LIG    1       25.486 -20.745   8.357  0.00  0.00    +0.044 C 
ATOM      2  C   LIG    1       25.174 -22.058   7.708  0.00  0.00    -0.047 A 
ATOM      3  C   LIG    1       23.854 -22.402   7.402  0.00  0.00    +0.049 A 
ATOM      4  C   LIG    1       23.554 -23.612   6.768  0.00  0.00    +0.120 A 
ATOM      5  C   LIG    1       24.565 -24.514   6.408  0.00  0.00    -0.003 A 
ATOM      6  C   LIG    1       25.891 -24.147   6.709  0.00  0.00    +0.008 A 
ATOM      7  C   LIG    1       26.194 -22.937   7.343  0.00  0.00    +0.004 A 
ENDROOT
BRANCH   5   8
ATOM      8  C   LIG    1       24.353 -25.853   5.717  0.00  0.00    +0.016 C 
ATOM      9  C   LIG    1       24.529 -27.044   6.663  0.00  0.00    +0.012 C 
ATOM     10  C   LIG    1       25.187 -26.001   4.442  0.00  0.00    +0.012 C 
ENDBRANCH   5   8
BRANCH   4  11
ATOM     11  O   LIG    1       22.223 -23.815   6.540  0.00  0.00    -0.506 OA
ATOM     12  H   LIG    1       21.889 -24.486   7.149  0.00  0.00    +0.292 HD
ENDBRANCH   4  11
TORSDOF 2
ENDMDL
MODEL 9
REMARK VINA RESULT:      -6.6      2.167      3.142
REMARK  Name = *****
REMARK                            x       y       z     vdW  Elec       q    Type
REMARK                         _______ _______ _______ _____ _____    ______ ____
ROOT
ATOM      1  C   LIG    1       27.609 -20.910   8.050  0.00  0.00    +0.044 C 
ATOM      2  C   LIG    1       26.418 -20.693   7.168  0.00  0.00    -0.047 A 
ATOM      3  C   LIG    1       26.586 -20.352   5.823  0.00  0.00    +0.049 A 
ATOM      4  C   LIG    1       25.482 -20.178   4.982  0.00  0.00    +0.120 A 
ATOM      5  C   LIG    1       24.173 -20.349   5.455  0.00  0.00    -0.003 A 
ATOM      6  C   LIG    1       24.021 -20.708   6.809  0.00  0.00    +0.008 A 
ATOM      7  C   LIG    1       25.124 -20.883   7.652  0.00  0.00    +0.004 A 
ENDROOT
BRANCH   5   8
ATOM      8  C   LIG    1       22.904 -20.186   4.632  0.00  0.00    +0.016 C 
ATOM      9  C   LIG    1       22.354 -18.758   4.665  0.00  0.00    +0.012 C 
ATOM     10  C   LIG    1       21.835 -21.225   4.978  0.00  0.00    +0.012 C 
ENDBRANCH   5   8
BRANCH   4  11
ATOM     11  O   LIG    1       25.798 -19.839   3.697  0.00  0.00    -0.506 OA
ATOM     12  H   LIG    1       26.537 -20.381   3.392  0.00  0.00    +0.292 HD
ENDBRANCH   4  11
TORSDOF 2
ENDMDL
