MODEL 1
REMARK VINA RESULT:      -7.9      0.000      0.000
REMARK  Name = *****
REMARK                            x       y       z     vdW  Elec       q    Type
REMARK                         _______ _______ _______ _____ _____    ______ ____
ROOT
ATOM      1  C   LIG    1       31.283 -19.056   7.914  0.00  0.00    +0.044 C 
ATOM      2  C   LIG    1       30.067 -19.790   7.423  0.00  0.00    -0.045 A 
ATOM      3  C   LIG    1       29.752 -21.082   7.871  0.00  0.00    -0.045 A 
ATOM      4  C   LIG    1       30.650 -21.821   8.825  0.00  0.00    +0.044 C 
ATOM      5  C   LIG    1       28.563 -21.697   7.431  0.00  0.00    +0.031 A 
ATOM      6  C   LIG    1       27.650 -21.039   6.593  0.00  0.00    +0.069 A 
ATOM      7  C   LIG    1       28.044 -19.787   6.061  0.00  0.00    +0.089 A 
ATOM      8  N   LIG    1       27.307 -19.115   5.069  0.00  0.00    -0.237 NA
ATOM      9  C   LIG    1       26.140 -19.589   4.765  0.00  0.00    +0.171 A 
ATOM     10  C   LIG    1       25.515 -20.733   5.529  0.00  0.00    +0.171 A 
ATOM     11  N   LIG    1       24.224 -20.868   5.471  0.00  0.00    -0.173 NA
ATOM     12  C   LIG    1       23.448 -19.981   4.766  0.00  0.00    +0.350 C 
ATOM     13  O   LIG    1       22.272 -19.784   5.028  0.00  0.00    -0.245 OA
ATOM     14  N   LIG    1       24.014 -19.301   3.720  0.00  0.00    -0.272 N 
ATOM     15  H   LIG    1       23.387 -18.730   3.175  0.00  0.00    +0.173 HD
ATOM     16  C   LIG    1       25.328 -18.968   3.665  0.00  0.00    +0.282 C 
ATOM     17  O   LIG    1       25.808 -18.208   2.833  0.00  0.00    -0.265 OA
ATOM     18  N   LIG    1       26.361 -21.550   6.281  0.00  0.00    -0.320 N 
ATOM     19  C   LIG    1       29.224 -19.175   6.492  0.00  0.00    +0.033 A 
ENDROOT
BRANCH  18  20
ATOM     20  C   LIG    1       25.769 -22.578   7.172  0.00  0.00    +0.158 C 
BRANCH  20  21
ATOM     21  C   LIG    1       25.843 -23.999   6.570  0.00  0.00    +0.165 C 
BRANCH  21  22
ATOM     22  O   LIG    1       25.898 -24.976   7.634  0.00  0.00    -0.387 OA
ATOM     23  H   LIG    1       26.311 -25.777   7.256  0.00  0.00    +0.210 HD
ENDBRANCH  21  22
BRANCH  21  24
ATOM     24  C   LIG    1       24.644 -24.391   5.653  0.00  0.00    +0.175 C 
BRANCH  24  25
ATOM     25  O   LIG    1       24.693 -23.589   4.457  0.00  0.00    -0.387 OA
ATOM     26  H   LIG    1       25.629 -23.531   4.184  0.00  0.00    +0.210 HD
ENDBRANCH  24  25
BRANCH  24  27
ATOM     27  C   LIG    1       24.524 -25.893   5.336  0.00  0.00    +0.171 C 
BRANCH  27  28
ATOM     28  O   LIG    1       24.050 -26.600   6.492  0.00  0.00    -0.387 OA
ATOM     29  H   LIG    1       23.425 -25.980   6.928  0.00  0.00    +0.210 HD
ENDBRANCH  27  28
BRANCH  27  30
ATOM     30  C   LIG    1       25.846 -26.561   4.920  0.00  0.00    +0.189 C 
BRANCH  30  31
ATOM     31  O   LIG    1       26.233 -27.447   5.982  0.00  0.00    -0.392 OA
ATOM     32  H   LIG    1       25.705 -27.217   6.768  0.00  0.00    +0.209 HD
ENDBRANCH  30  31
ENDBRANCH  27  30
ENDBRANCH  24  27
ENDBRANCH  21  24
ENDBRANCH  20  21
ENDBRANCH  18  20
TORSDOF 9
ENDMDL
MODEL 2
REMARK VINA RESULT:      -7.1      2.516      5.964
REMARK  Name = *****
REMARK                            x       y       z     vdW  Elec       q    Type
REMARK                         _______ _______ _______ _____ _____    ______ ____
ROOT
ATOM      1  C   LIG    1       24.243 -27.820   5.930  0.00  0.00    +0.044 C 
ATOM      2  C   LIG    1       24.647 -26.401   6.216  0.00  0.00    -0.045 A 
ATOM      3  C   LIG    1       25.740 -26.094   7.042  0.00  0.00    -0.045 A 
ATOM      4  C   LIG    1       26.529 -27.175   7.729  0.00  0.00    +0.044 C 
ATOM      5  C   LIG    1       26.117 -24.750   7.221  0.00  0.00    +0.031 A 
ATOM      6  C   LIG    1       25.464 -23.698   6.558  0.00  0.00    +0.069 A 
ATOM      7  C   LIG    1       24.296 -24.019   5.827  0.00  0.00    +0.089 A 
ATOM      8  N   LIG    1       23.449 -23.040   5.275  0.00  0.00    -0.237 NA
ATOM      9  C   LIG    1       23.859 -21.811   5.299  0.00  0.00    +0.171 A 
ATOM     10  C   LIG    1       25.246 -21.437   5.769  0.00  0.00    +0.171 A 
ATOM     11  N   LIG    1       25.734 -20.300   5.373  0.00  0.00    -0.173 NA
ATOM     12  C   LIG    1       25.029 -19.479   4.528  0.00  0.00    +0.350 C 
ATOM     13  O   LIG    1       25.572 -18.670   3.794  0.00  0.00    -0.245 OA
ATOM     14  N   LIG    1       23.661 -19.563   4.523  0.00  0.00    -0.272 N 
ATOM     15  H   LIG    1       23.181 -18.882   3.956  0.00  0.00    +0.173 HD
ATOM     16  C   LIG    1       22.979 -20.704   4.795  0.00  0.00    +0.282 C 
ATOM     17  O   LIG    1       21.776 -20.842   4.616  0.00  0.00    -0.265 OA
ATOM     18  N   LIG    1       25.930 -22.356   6.567  0.00  0.00    -0.320 N 
ATOM     19  C   LIG    1       23.915 -25.352   5.649  0.00  0.00    +0.033 A 
ENDROOT
BRANCH  18  20
ATOM     20  C   LIG    1       27.351 -22.098   6.910  0.00  0.00    +0.158 C 
BRANCH  20  21
ATOM     21  C   LIG    1       27.548 -20.761   7.658  0.00  0.00    +0.165 C 
BRANCH  21  22
ATOM     22  O   LIG    1       26.901 -20.827   8.950  0.00  0.00    -0.387 OA
ATOM     23  H   LIG    1       26.036 -20.383   8.852  0.00  0.00    +0.210 HD
ENDBRANCH  21  22
BRANCH  21  24
ATOM     24  C   LIG    1       29.032 -20.358   7.912  0.00  0.00    +0.175 C 
BRANCH  24  25
ATOM     25  O   LIG    1       29.667 -21.389   8.693  0.00  0.00    -0.387 OA
ATOM     26  H   LIG    1       29.160 -22.213   8.553  0.00  0.00    +0.210 HD
ENDBRANCH  24  25
BRANCH  24  27
ATOM     27  C   LIG    1       29.843 -20.010   6.649  0.00  0.00    +0.171 C 
BRANCH  27  28
ATOM     28  O   LIG    1       31.242 -19.961   6.965  0.00  0.00    -0.387 OA
ATOM     29  H   LIG    1       31.542 -19.083   6.643  0.00  0.00    +0.210 HD
ENDBRANCH  27  28
BRANCH  27  30
ATOM     30  C   LIG    1       29.482 -18.653   6.019  0.00  0.00    +0.189 C 
BRANCH  30  31
ATOM     31  O   LIG    1       28.488 -18.898   5.011  0.00  0.00    -0.392 OA
ATOM     32  H   LIG    1       27.624 -18.968   5.456  0.00  0.00    +0.209 HD
ENDBRANCH  30  31
ENDBRANCH  27  30
ENDBRANCH  24  27
ENDBRANCH  21  24
ENDBRANCH  20  21
ENDBRANCH  18  20
TORSDOF 9
ENDMDL
MODEL 3
REMARK VINA RESULT:      -6.2      9.535     11.061
REMARK  Name = *****
REMARK                            x       y       z     vdW  Elec       q    Type
REMARK                         _______ _______ _______ _____ _____    ______ ____
ROOT
ATOM      1  C   LIG    1       21.129 -26.873  13.194  0.00  0.00    +0.044 C 
ATOM      2  C   LIG    1       22.253 -27.847  12.981  0.00  0.00    -0.045 A 
ATOM      3  C   LIG    1       22.073 -29.043  12.271  0.00  0.00    -0.045 A 
ATOM      4  C   LIG    1       20.725 -29.438  11.733  0.00  0.00    +0.044 C 
ATOM      5  C   LIG    1       23.177 -29.887  12.042  0.00  0.00    +0.031 A 
ATOM      6  C   LIG    1       24.473 -29.547  12.460  0.00  0.00    +0.069 A 
ATOM      7  C   LIG    1       24.611 -28.398  13.275  0.00  0.00    +0.089 A 
ATOM      8  N   LIG    1       25.818 -28.055  13.911  0.00  0.00    -0.237 NA
ATOM      9  C   LIG    1       26.877 -28.730  13.591  0.00  0.00    +0.171 A 
ATOM     10  C   LIG    1       26.869 -29.756  12.482  0.00  0.00    +0.171 A 
ATOM     11  N   LIG    1       28.006 -30.067  11.934  0.00  0.00    -0.173 NA
ATOM     12  C   LIG    1       29.173 -29.459  12.327  0.00  0.00    +0.350 C 
ATOM     13  O   LIG    1       30.144 -29.366  11.593  0.00  0.00    -0.245 OA
ATOM     14  N   LIG    1       29.253 -28.951  13.597  0.00  0.00    -0.272 N 
ATOM     15  H   LIG    1       30.155 -28.596  13.873  0.00  0.00    +0.173 HD
ATOM     16  C   LIG    1       28.185 -28.469  14.281  0.00  0.00    +0.282 C 
ATOM     17  O   LIG    1       28.268 -27.849  15.333  0.00  0.00    -0.265 OA
ATOM     18  N   LIG    1       25.635 -30.276  12.088  0.00  0.00    -0.320 N 
ATOM     19  C   LIG    1       23.517 -27.560  13.508  0.00  0.00    +0.033 A 
ENDROOT
BRANCH  18  20
ATOM     20  C   LIG    1       25.569 -31.158  10.896  0.00  0.00    +0.158 C 
BRANCH  20  21
ATOM     21  C   LIG    1       25.643 -30.371   9.569  0.00  0.00    +0.165 C 
BRANCH  21  22
ATOM     22  O   LIG    1       26.966 -30.497   9.001  0.00  0.00    -0.387 OA
ATOM     23  H   LIG    1       27.201 -29.619   8.643  0.00  0.00    +0.210 HD
ENDBRANCH  21  22
BRANCH  21  24
ATOM     24  C   LIG    1       24.632 -30.826   8.474  0.00  0.00    +0.175 C 
BRANCH  24  25
ATOM     25  O   LIG    1       23.380 -30.145   8.685  0.00  0.00    -0.387 OA
ATOM     26  H   LIG    1       23.513 -29.512   9.416  0.00  0.00    +0.210 HD
ENDBRANCH  24  25
BRANCH  24  27
ATOM     27  C   LIG    1       25.128 -30.685   7.022  0.00  0.00    +0.171 C 
BRANCH  27  28
ATOM     28  O   LIG    1       25.540 -29.333   6.776  0.00  0.00    -0.387 OA
ATOM     29  H   LIG    1       25.782 -28.978   7.659  0.00  0.00    +0.210 HD
ENDBRANCH  27  28
BRANCH  27  30
ATOM     30  C   LIG    1       24.073 -31.028   5.956  0.00  0.00    +0.189 C 
BRANCH  30  31
ATOM     31  O   LIG    1       23.290 -29.845   5.731  0.00  0.00    -0.392 OA
ATOM     32  H   LIG    1       23.632 -29.411   4.929  0.00  0.00    +0.209 HD
ENDBRANCH  30  31
ENDBRANCH  27  30
ENDBRANCH  24  27
ENDBRANCH  21  24
ENDBRANCH  20  21
ENDBRANCH  18  20
TORSDOF 9
ENDMDL
MODEL 4
REMARK VINA RESULT:      -5.9      9.937     11.829
REMARK  Name = *****
REMARK                            x       y       z     vdW  Elec       q    Type
REMARK                         _______ _______ _______ _____ _____    ______ ____
ROOT
ATOM      1  C   LIG    1       25.649 -25.523  13.855  0.00  0.00    +0.044 C 
ATOM      2  C   LIG    1       24.532 -26.465  13.505  0.00  0.00    -0.045 A 
ATOM      3  C   LIG    1       24.773 -27.702  12.887  0.00  0.00    -0.045 A 
ATOM      4  C   LIG    1       26.162 -28.122  12.491  0.00  0.00    +0.044 C 
ATOM      5  C   LIG    1       23.696 -28.576  12.644  0.00  0.00    +0.031 A 
ATOM      6  C   LIG    1       22.385 -28.274  13.046  0.00  0.00    +0.069 A 
ATOM      7  C   LIG    1       22.148 -26.976  13.558  0.00  0.00    +0.089 A 
ATOM      8  N   LIG    1       20.856 -26.485  13.821  0.00  0.00    -0.237 NA
ATOM      9  C   LIG    1       19.870 -27.323  13.749  0.00  0.00    +0.171 A 
ATOM     10  C   LIG    1       20.089 -28.802  13.529  0.00  0.00    +0.171 A 
ATOM     11  N   LIG    1       19.143 -29.616  13.890  0.00  0.00    -0.173 NA
ATOM     12  C   LIG    1       17.995 -29.152  14.484  0.00  0.00    +0.350 C 
ATOM     13  O   LIG    1       17.312 -29.843  15.222  0.00  0.00    -0.245 OA
ATOM     14  N   LIG    1       17.596 -27.867  14.225  0.00  0.00    -0.272 N 
ATOM     15  H   LIG    1       16.703 -27.598  14.607  0.00  0.00    +0.173 HD
ATOM     16  C   LIG    1       18.456 -26.856  13.945  0.00  0.00    +0.282 C 
ATOM     17  O   LIG    1       18.134 -25.676  13.893  0.00  0.00    -0.265 OA
ATOM     18  N   LIG    1       21.312 -29.203  12.987  0.00  0.00    -0.320 N 
ATOM     19  C   LIG    1       23.213 -26.103  13.798  0.00  0.00    +0.033 A 
ENDROOT
BRANCH  18  20
ATOM     20  C   LIG    1       21.628 -30.651  12.910  0.00  0.00    +0.158 C 
BRANCH  20  21
ATOM     21  C   LIG    1       21.370 -31.241  11.506  0.00  0.00    +0.165 C 
BRANCH  21  22
ATOM     22  O   LIG    1       22.521 -32.006  11.081  0.00  0.00    -0.387 OA
ATOM     23  H   LIG    1       22.760 -31.681  10.191  0.00  0.00    +0.210 HD
ENDBRANCH  21  22
BRANCH  21  24
ATOM     24  C   LIG    1       20.133 -32.183  11.402  0.00  0.00    +0.175 C 
BRANCH  24  25
ATOM     25  O   LIG    1       19.555 -32.338  12.713  0.00  0.00    -0.387 OA
ATOM     26  H   LIG    1       20.163 -31.915  13.350  0.00  0.00    +0.210 HD
ENDBRANCH  24  25
BRANCH  24  27
ATOM     27  C   LIG    1       19.081 -31.772  10.354  0.00  0.00    +0.171 C 
BRANCH  27  28
ATOM     28  O   LIG    1       19.282 -30.404   9.971  0.00  0.00    -0.387 OA
ATOM     29  H   LIG    1       18.392 -29.993  10.027  0.00  0.00    +0.210 HD
ENDBRANCH  27  28
BRANCH  27  30
ATOM     30  C   LIG    1       17.625 -31.889  10.837  0.00  0.00    +0.189 C 
BRANCH  30  31
ATOM     31  O   LIG    1       17.343 -30.726  11.634  0.00  0.00    -0.392 OA
ATOM     32  H   LIG    1       18.185 -30.411  12.008  0.00  0.00    +0.209 HD
ENDBRANCH  30  31
ENDBRANCH  27  30
ENDBRANCH  24  27
ENDBRANCH  21  24
ENDBRANCH  20  21
ENDBRANCH  18  20
TORSDOF 9
ENDMDL
MODEL 5
REMARK VINA RESULT:      -5.8      9.154     10.444
REMARK  Name = *****
REMARK                            x       y       z     vdW  Elec       q    Type
REMARK                         _______ _______ _______ _____ _____    ______ ____
ROOT
ATOM      1  C   LIG    1       27.822 -29.158  14.594  0.00  0.00    +0.044 C 
ATOM      2  C   LIG    1       26.861 -29.254  13.442  0.00  0.00    -0.045 A 
ATOM      3  C   LIG    1       27.304 -29.397  12.119  0.00  0.00    -0.045 A 
ATOM      4  C   LIG    1       28.770 -29.406  11.780  0.00  0.00    +0.044 C 
ATOM      5  C   LIG    1       26.360 -29.551  11.085  0.00  0.00    +0.031 A 
ATOM      6  C   LIG    1       24.981 -29.616  11.339  0.00  0.00    +0.069 A 
ATOM      7  C   LIG    1       24.552 -29.351  12.662  0.00  0.00    +0.089 A 
ATOM      8  N   LIG    1       23.197 -29.202  13.009  0.00  0.00    -0.237 NA
ATOM      9  C   LIG    1       22.313 -29.490  12.106  0.00  0.00    +0.171 A 
ATOM     10  C   LIG    1       22.693 -30.095  10.775  0.00  0.00    +0.171 A 
ATOM     11  N   LIG    1       21.777 -30.742  10.119  0.00  0.00    -0.173 NA
ATOM     12  C   LIG    1       20.513 -30.900  10.632  0.00  0.00    +0.350 C 
ATOM     13  O   LIG    1       19.785 -31.826  10.312  0.00  0.00    -0.245 OA
ATOM     14  N   LIG    1       20.049 -29.974  11.528  0.00  0.00    -0.272 N 
ATOM     15  H   LIG    1       19.086 -30.077  11.810  0.00  0.00    +0.173 HD
ATOM     16  C   LIG    1       20.851 -29.285  12.379  0.00  0.00    +0.282 C 
ATOM     17  O   LIG    1       20.438 -28.597  13.303  0.00  0.00    -0.265 OA
ATOM     18  N   LIG    1       24.017 -29.956  10.353  0.00  0.00    -0.320 N 
ATOM     19  C   LIG    1       25.486 -29.195  13.690  0.00  0.00    +0.033 A 
ENDROOT
BRANCH  18  20
ATOM     20  C   LIG    1       24.466 -30.675   9.135  0.00  0.00    +0.158 C 
BRANCH  20  21
ATOM     21  C   LIG    1       24.375 -29.803   7.863  0.00  0.00    +0.165 C 
BRANCH  21  22
ATOM     22  O   LIG    1       25.606 -29.067   7.688  0.00  0.00    -0.387 OA
ATOM     23  H   LIG    1       25.868 -29.179   6.753  0.00  0.00    +0.210 HD
ENDBRANCH  21  22
BRANCH  21  24
ATOM     24  C   LIG    1       24.122 -30.590   6.541  0.00  0.00    +0.175 C 
BRANCH  24  25
ATOM     25  O   LIG    1       23.323 -29.776   5.661  0.00  0.00    -0.387 OA
ATOM     26  H   LIG    1       23.667 -28.863   5.717  0.00  0.00    +0.210 HD
ENDBRANCH  24  25
BRANCH  24  27
ATOM     27  C   LIG    1       25.387 -31.124   5.842  0.00  0.00    +0.171 C 
BRANCH  27  28
ATOM     28  O   LIG    1       25.976 -30.089   5.041  0.00  0.00    -0.387 OA
ATOM     29  H   LIG    1       26.935 -30.122   5.251  0.00  0.00    +0.210 HD
ENDBRANCH  27  28
BRANCH  27  30
ATOM     30  C   LIG    1       25.138 -32.320   4.908  0.00  0.00    +0.189 C 
BRANCH  30  31
ATOM     31  O   LIG    1       23.738 -32.638   4.981  0.00  0.00    -0.392 OA
ATOM     32  H   LIG    1       23.448 -32.903   4.089  0.00  0.00    +0.209 HD
ENDBRANCH  30  31
ENDBRANCH  27  30
ENDBRANCH  24  27
ENDBRANCH  21  24
ENDBRANCH  20  21
ENDBRANCH  18  20
TORSDOF 9
ENDMDL
MODEL 6
REMARK VINA RESULT:      -5.8      6.804      9.814
REMARK  Name = *****
REMARK                            x       y       z     vdW  Elec       q    Type
REMARK                         _______ _______ _______ _____ _____    ______ ____
ROOT
ATOM      1  C   LIG    1       25.148 -25.152   4.386  0.00  0.00    +0.044 C 
ATOM      2  C   LIG    1       25.333 -26.329   5.302  0.00  0.00    -0.045 A 
ATOM      3  C   LIG    1       25.665 -26.169   6.656  0.00  0.00    -0.045 A 
ATOM      4  C   LIG    1       25.908 -24.807   7.246  0.00  0.00    +0.044 C 
ATOM      5  C   LIG    1       25.760 -27.304   7.484  0.00  0.00    +0.031 A 
ATOM      6  C   LIG    1       25.483 -28.597   7.012  0.00  0.00    +0.069 A 
ATOM      7  C   LIG    1       25.267 -28.747   5.622  0.00  0.00    +0.089 A 
ATOM      8  N   LIG    1       25.165 -30.003   4.997  0.00  0.00    -0.237 NA
ATOM      9  C   LIG    1       25.096 -31.048   5.761  0.00  0.00    +0.171 A 
ATOM     10  C   LIG    1       24.990 -30.937   7.264  0.00  0.00    +0.171 A 
ATOM     11  N   LIG    1       24.501 -31.951   7.913  0.00  0.00    -0.173 NA
ATOM     12  C   LIG    1       24.065 -33.074   7.255  0.00  0.00    +0.350 C 
ATOM     13  O   LIG    1       23.225 -33.825   7.722  0.00  0.00    -0.245 OA
ATOM     14  N   LIG    1       24.606 -33.368   6.030  0.00  0.00    -0.272 N 
ATOM     15  H   LIG    1       24.324 -34.246   5.624  0.00  0.00    +0.173 HD
ATOM     16  C   LIG    1       25.060 -32.426   5.165  0.00  0.00    +0.282 C 
ATOM     17  O   LIG    1       25.372 -32.656   4.004  0.00  0.00    -0.265 OA
ATOM     18  N   LIG    1       25.385 -29.736   7.856  0.00  0.00    -0.320 N 
ATOM     19  C   LIG    1       25.176 -27.624   4.794  0.00  0.00    +0.033 A 
ENDROOT
BRANCH  18  20
ATOM     20  C   LIG    1       25.141 -29.530   9.305  0.00  0.00    +0.158 C 
BRANCH  20  21
ATOM     21  C   LIG    1       26.287 -30.078  10.184  0.00  0.00    +0.165 C 
BRANCH  21  22
ATOM     22  O   LIG    1       27.560 -29.772   9.571  0.00  0.00    -0.387 OA
ATOM     23  H   LIG    1       28.156 -29.489  10.291  0.00  0.00    +0.210 HD
ENDBRANCH  21  22
BRANCH  21  24
ATOM     24  C   LIG    1       26.334 -29.514  11.636  0.00  0.00    +0.175 C 
BRANCH  24  25
ATOM     25  O   LIG    1       26.769 -30.559  12.528  0.00  0.00    -0.387 OA
ATOM     26  H   LIG    1       26.613 -30.245  13.440  0.00  0.00    +0.210 HD
ENDBRANCH  24  25
BRANCH  24  27
ATOM     27  C   LIG    1       27.157 -28.224  11.814  0.00  0.00    +0.171 C 
BRANCH  27  28
ATOM     28  O   LIG    1       28.504 -28.552  12.187  0.00  0.00    -0.387 OA
ATOM     29  H   LIG    1       28.553 -28.361  13.149  0.00  0.00    +0.210 HD
ENDBRANCH  27  28
BRANCH  27  30
ATOM     30  C   LIG    1       26.618 -27.271  12.893  0.00  0.00    +0.189 C 
BRANCH  30  31
ATOM     31  O   LIG    1       27.436 -26.090  12.873  0.00  0.00    -0.392 OA
ATOM     32  H   LIG    1       27.866 -26.012  13.743  0.00  0.00    +0.209 HD
ENDBRANCH  30  31
ENDBRANCH  27  30
ENDBRANCH  24  27
ENDBRANCH  21  24
ENDBRANCH  20  21
ENDBRANCH  18  20
TORSDOF 9
ENDMDL
MODEL 7
REMARK VINA RESULT:      -5.7      9.387     11.198
REMARK  Name = *****
REMARK                            x       y       z     vdW  Elec       q    Type
REMARK                         _______ _______ _______ _____ _____    ______ ____
ROOT
ATOM      1  C   LIG    1       27.803 -24.839  13.894  0.00  0.00    +0.044 C 
ATOM      2  C   LIG    1       26.563 -25.680  13.778  0.00  0.00    -0.045 A 
ATOM      3  C   LIG    1       25.319 -25.234  14.250  0.00  0.00    -0.045 A 
ATOM      4  C   LIG    1       25.176 -23.909  14.949  0.00  0.00    +0.044 C 
ATOM      5  C   LIG    1       24.177 -26.034  14.054  0.00  0.00    +0.031 A 
ATOM      6  C   LIG    1       24.230 -27.249  13.354  0.00  0.00    +0.069 A 
ATOM      7  C   LIG    1       25.509 -27.734  12.993  0.00  0.00    +0.089 A 
ATOM      8  N   LIG    1       25.714 -29.019  12.458  0.00  0.00    -0.237 NA
ATOM      9  C   LIG    1       24.665 -29.706  12.130  0.00  0.00    +0.171 A 
ATOM     10  C   LIG    1       23.274 -29.119  12.183  0.00  0.00    +0.171 A 
ATOM     11  N   LIG    1       22.352 -29.679  11.458  0.00  0.00    -0.173 NA
ATOM     12  C   LIG    1       22.638 -30.747  10.644  0.00  0.00    +0.350 C 
ATOM     13  O   LIG    1       21.979 -31.014   9.653  0.00  0.00    -0.245 OA
ATOM     14  N   LIG    1       23.698 -31.553  10.969  0.00  0.00    -0.272 N 
ATOM     15  H   LIG    1       23.817 -32.375  10.398  0.00  0.00    +0.173 HD
ATOM     16  C   LIG    1       24.803 -31.112  11.622  0.00  0.00    +0.282 C 
ATOM     17  O   LIG    1       25.828 -31.769  11.755  0.00  0.00    -0.265 OA
ATOM     18  N   LIG    1       23.076 -27.987  12.976  0.00  0.00    -0.320 N 
ATOM     19  C   LIG    1       26.646 -26.945  13.188  0.00  0.00    +0.033 A 
ENDROOT
BRANCH  18  20
ATOM     20  C   LIG    1       21.769 -27.288  12.924  0.00  0.00    +0.158 C 
BRANCH  20  21
ATOM     21  C   LIG    1       20.678 -28.005  13.750  0.00  0.00    +0.165 C 
BRANCH  21  22
ATOM     22  O   LIG    1       21.252 -28.516  14.974  0.00  0.00    -0.387 OA
ATOM     23  H   LIG    1       20.588 -29.119  15.364  0.00  0.00    +0.210 HD
ENDBRANCH  21  22
BRANCH  21  24
ATOM     24  C   LIG    1       19.462 -27.116  14.152  0.00  0.00    +0.175 C 
BRANCH  24  25
ATOM     25  O   LIG    1       19.178 -26.202  13.075  0.00  0.00    -0.387 OA
ATOM     26  H   LIG    1       19.395 -25.304  13.392  0.00  0.00    +0.210 HD
ENDBRANCH  24  25
BRANCH  24  27
ATOM     27  C   LIG    1       18.206 -27.885  14.603  0.00  0.00    +0.171 C 
BRANCH  27  28
ATOM     28  O   LIG    1       18.131 -29.143  13.916  0.00  0.00    -0.387 OA
ATOM     29  H   LIG    1       19.058 -29.465  13.878  0.00  0.00    +0.210 HD
ENDBRANCH  27  28
BRANCH  27  30
ATOM     30  C   LIG    1       16.882 -27.152  14.331  0.00  0.00    +0.189 C 
BRANCH  30  31
ATOM     31  O   LIG    1       16.965 -25.865  14.965  0.00  0.00    -0.392 OA
ATOM     32  H   LIG    1       16.259 -25.305  14.595  0.00  0.00    +0.209 HD
ENDBRANCH  30  31
ENDBRANCH  27  30
ENDBRANCH  24  27
ENDBRANCH  21  24
ENDBRANCH  20  21
ENDBRANCH  18  20
TORSDOF 9
ENDMDL
MODEL 8
REMARK VINA RESULT:      -5.6      5.945      9.633
REMARK  Name = *****
REMARK                            x       y       z     vdW  Elec       q    Type
REMARK                         _______ _______ _______ _____ _____    ______ ____
ROOT
ATOM      1  C   LIG    1       26.923 -30.097  12.862  0.00  0.00    +0.044 C 
ATOM      2  C   LIG    1       26.453 -29.822  11.461  0.00  0.00    -0.045 A 
ATOM      3  C   LIG    1       26.508 -28.537  10.901  0.00  0.00    -0.045 A 
ATOM      4  C   LIG    1       26.989 -27.355  11.698  0.00  0.00    +0.044 C 
ATOM      5  C   LIG    1       26.119 -28.349   9.561  0.00  0.00    +0.031 A 
ATOM      6  C   LIG    1       25.722 -29.418   8.743  0.00  0.00    +0.069 A 
ATOM      7  C   LIG    1       25.562 -30.682   9.360  0.00  0.00    +0.089 A 
ATOM      8  N   LIG    1       24.994 -31.786   8.699  0.00  0.00    -0.237 NA
ATOM      9  C   LIG    1       24.773 -31.675   7.427  0.00  0.00    +0.171 A 
ATOM     10  C   LIG    1       25.226 -30.468   6.637  0.00  0.00    +0.171 A 
ATOM     11  N   LIG    1       25.366 -30.603   5.352  0.00  0.00    -0.173 NA
ATOM     12  C   LIG    1       25.142 -31.809   4.735  0.00  0.00    +0.350 C 
ATOM     13  O   LIG    1       25.665 -32.111   3.675  0.00  0.00    -0.245 OA
ATOM     14  N   LIG    1       24.287 -32.700   5.328  0.00  0.00    -0.272 N 
ATOM     15  H   LIG    1       24.082 -33.532   4.798  0.00  0.00    +0.173 HD
ATOM     16  C   LIG    1       24.103 -32.784   6.669  0.00  0.00    +0.282 C 
ATOM     17  O   LIG    1       23.489 -33.689   7.221  0.00  0.00    -0.265 OA
ATOM     18  N   LIG    1       25.504 -29.297   7.344  0.00  0.00    -0.320 N 
ATOM     19  C   LIG    1       25.943 -30.873  10.691  0.00  0.00    +0.033 A 
ENDROOT
BRANCH  18  20
ATOM     20  C   LIG    1       26.107 -28.146   6.626  0.00  0.00    +0.158 C 
BRANCH  20  21
ATOM     21  C   LIG    1       25.068 -27.348   5.807  0.00  0.00    +0.165 C 
BRANCH  21  22
ATOM     22  O   LIG    1       23.777 -27.422   6.453  0.00  0.00    -0.387 OA
ATOM     23  H   LIG    1       23.923 -27.848   7.321  0.00  0.00    +0.210 HD
ENDBRANCH  21  22
BRANCH  21  24
ATOM     24  C   LIG    1       25.397 -25.836   5.619  0.00  0.00    +0.175 C 
BRANCH  24  25
ATOM     25  O   LIG    1       25.105 -25.462   4.259  0.00  0.00    -0.387 OA
ATOM     26  H   LIG    1       25.894 -25.672   3.724  0.00  0.00    +0.210 HD
ENDBRANCH  24  25
BRANCH  24  27
ATOM     27  C   LIG    1       24.730 -24.887   6.634  0.00  0.00    +0.171 C 
BRANCH  27  28
ATOM     28  O   LIG    1       23.358 -24.674   6.274  0.00  0.00    -0.387 OA
ATOM     29  H   LIG    1       22.883 -24.589   7.130  0.00  0.00    +0.210 HD
ENDBRANCH  27  28
BRANCH  27  30
ATOM     30  C   LIG    1       25.385 -23.499   6.728  0.00  0.00    +0.189 C 
BRANCH  30  31
ATOM     31  O   LIG    1       25.278 -22.885   5.433  0.00  0.00    -0.392 OA
ATOM     32  H   LIG    1       24.452 -22.368   5.416  0.00  0.00    +0.209 HD
ENDBRANCH  30  31
ENDBRANCH  27  30
ENDBRANCH  24  27
ENDBRANCH  21  24
ENDBRANCH  20  21
ENDBRANCH  18  20
TORSDOF 9
ENDMDL
MODEL 9
REMARK VINA RESULT:      -5.6      6.857      9.857
REMARK  Name = *****
REMARK                            x       y       z     vdW  Elec       q    Type
REMARK                         _______ _______ _______ _____ _____    ______ ____
ROOT
ATOM      1  C   LIG    1       24.937 -25.157   4.397  0.00  0.00    +0.044 C 
ATOM      2  C   LIG    1       25.223 -26.292   5.339  0.00  0.00    -0.045 A 
ATOM      3  C   LIG    1       25.655 -26.071   6.656  0.00  0.00    -0.045 A 
ATOM      4  C   LIG    1       25.907 -24.681   7.173  0.00  0.00    +0.044 C 
ATOM      5  C   LIG    1       25.842 -27.169   7.517  0.00  0.00    +0.031 A 
ATOM      6  C   LIG    1       25.563 -28.485   7.118  0.00  0.00    +0.069 A 
ATOM      7  C   LIG    1       25.245 -28.696   5.755  0.00  0.00    +0.089 A 
ATOM      8  N   LIG    1       25.127 -29.978   5.188  0.00  0.00    -0.237 NA
ATOM      9  C   LIG    1       25.145 -30.993   5.994  0.00  0.00    +0.171 A 
ATOM     10  C   LIG    1       25.152 -30.824   7.496  0.00  0.00    +0.171 A 
ATOM     11  N   LIG    1       24.742 -31.823   8.219  0.00  0.00    -0.173 NA
ATOM     12  C   LIG    1       24.286 -32.981   7.640  0.00  0.00    +0.350 C 
ATOM     13  O   LIG    1       23.504 -33.732   8.200  0.00  0.00    -0.245 OA
ATOM     14  N   LIG    1       24.738 -33.311   6.389  0.00  0.00    -0.272 N 
ATOM     15  H   LIG    1       24.449 -34.211   6.040  0.00  0.00    +0.173 HD
ATOM     16  C   LIG    1       25.099 -32.394   5.456  0.00  0.00    +0.282 C 
ATOM     17  O   LIG    1       25.327 -32.663   4.284  0.00  0.00    -0.265 OA
ATOM     18  N   LIG    1       25.561 -29.592   8.009  0.00  0.00    -0.320 N 
ATOM     19  C   LIG    1       25.061 -27.609   4.895  0.00  0.00    +0.033 A 
ENDROOT
BRANCH  18  20
ATOM     20  C   LIG    1       25.424 -29.334   9.463  0.00  0.00    +0.158 C 
BRANCH  20  21
ATOM     21  C   LIG    1       26.553 -29.989  10.291  0.00  0.00    +0.165 C 
BRANCH  21  22
ATOM     22  O   LIG    1       27.696 -29.107  10.339  0.00  0.00    -0.387 OA
ATOM     23  H   LIG    1       28.192 -29.248   9.508  0.00  0.00    +0.210 HD
ENDBRANCH  21  22
BRANCH  21  24
ATOM     24  C   LIG    1       26.178 -30.330  11.766  0.00  0.00    +0.175 C 
BRANCH  24  25
ATOM     25  O   LIG    1       25.441 -29.225  12.325  0.00  0.00    -0.387 OA
ATOM     26  H   LIG    1       24.524 -29.291  11.994  0.00  0.00    +0.210 HD
ENDBRANCH  24  25
BRANCH  24  27
ATOM     27  C   LIG    1       25.446 -31.671  11.964  0.00  0.00    +0.171 C 
BRANCH  27  28
ATOM     28  O   LIG    1       25.830 -32.594  10.935  0.00  0.00    -0.387 OA
ATOM     29  H   LIG    1       26.413 -32.077  10.337  0.00  0.00    +0.210 HD
ENDBRANCH  27  28
BRANCH  27  30
ATOM     30  C   LIG    1       23.912 -31.568  11.919  0.00  0.00    +0.189 C 
BRANCH  30  31
ATOM     31  O   LIG    1       23.447 -32.510  10.938  0.00  0.00    -0.392 OA
ATOM     32  H   LIG    1       23.958 -32.364  10.121  0.00  0.00    +0.209 HD
ENDBRANCH  30  31
ENDBRANCH  27  30
ENDBRANCH  24  27
ENDBRANCH  21  24
ENDBRANCH  20  21
ENDBRANCH  18  20
TORSDOF 9
ENDMDL
