MODEL 1
REMARK VINA RESULT:       3.1      0.000      0.000
REMARK  Name = *****
REMARK                            x       y       z     vdW  Elec       q    Type
REMARK                         _______ _______ _______ _____ _____    ______ ____
ROOT
ATOM      1  C   LIG    1       24.691 -13.925   3.236  0.00  0.00    +0.061 C 
ATOM      2  C   LIG    1       24.410 -14.851   4.452  0.00  0.00    -0.019 C 
ATOM      3  C   LIG    1       24.819 -14.190   5.795  0.00  0.00    +0.012 C 
ATOM      4  C   LIG    1       25.358 -16.051   4.160  0.00  0.00    -0.001 C 
ATOM      5  C   LIG    1       24.823 -17.046   3.093  0.00  0.00    -0.003 C 
ATOM      6  C   LIG    1       23.356 -17.496   3.315  0.00  0.00    +0.002 C 
ATOM      7  C   LIG    1       22.458 -16.259   3.509  0.00  0.00    +0.005 C 
ATOM      8  C   LIG    1       23.108 -18.702   4.313  0.00  0.00    -0.007 C 
ATOM      9  C   LIG    1       21.719 -19.312   3.957  0.00  0.00    +0.016 C 
ATOM     10  C   LIG    1       24.207 -19.767   4.191  0.00  0.00    -0.060 C 
ATOM     11  C   LIG    1       24.057 -20.965   4.796  0.00  0.00    +0.046 C 
ATOM     12  C   LIG    1       23.932 -20.733   6.285  0.00  0.00    +0.156 C 
ATOM     13  O   LIG    1       24.384 -21.572   7.062  0.00  0.00    -0.293 OA
ATOM     14  C   LIG    1       23.100 -19.548   6.760  0.00  0.00    +0.080 C 
ATOM     15  C   LIG    1       25.624 -19.264   4.038  0.00  0.00    +0.032 C 
ATOM     16  C   LIG    1       23.107 -18.331   5.816  0.00  0.00    +0.019 C 
ATOM     17  C   LIG    1       25.726 -18.275   2.891  0.00  0.00    +0.008 C 
ATOM     18  C   LIG    1       26.646 -15.346   3.684  0.00  0.00    +0.005 C 
ATOM     19  C   LIG    1       22.937 -15.274   4.569  0.00  0.00    +0.008 C 
ATOM     20  C   LIG    1       26.207 -14.039   3.023  0.00  0.00    +0.012 C 
ENDROOT
BRANCH   1  22
ATOM     21  C   LIG    1       24.246 -11.659   2.057  0.00  0.00    +0.086 C 
ATOM     22  C   LIG    1       24.212 -12.474   3.327  0.00  0.00    +0.134 C 
ATOM     23  O   LIG    1       23.720 -11.998   4.351  0.00  0.00    -0.297 OA
ENDBRANCH   1  22
TORSDOF 1
ENDMDL
