MODEL 1
REMARK VINA RESULT:       4.0      0.000      0.000
REMARK  Name = *****
REMARK                            x       y       z     vdW  Elec       q    Type
REMARK                         _______ _______ _______ _____ _____    ______ ____
ROOT
ATOM      1  C   LIG    1       25.190 -15.231   3.869  0.00  0.00    +0.061 A 
ATOM      2  C   LIG    1       26.526 -15.658   3.782  0.00  0.00    +0.049 A 
ATOM      3  I   LIG    1       28.051 -14.177   3.499  0.00  0.00    -0.041 I 
ATOM      4  C   LIG    1       26.806 -17.030   3.750  0.00  0.00    +0.066 A 
ATOM      5  C   LIG    1       25.754 -17.895   3.417  0.00  0.00    +0.040 A 
ATOM      6  I   LIG    1       26.174 -19.276   1.825  0.00  0.00    -0.042 I 
ATOM      7  C   LIG    1       24.406 -17.541   3.651  0.00  0.00    +0.065 A 
ATOM      8  C   LIG    1       24.167 -16.206   4.015  0.00  0.00    +0.049 A 
ATOM      9  I   LIG    1       22.545 -15.702   5.311  0.00  0.00    -0.041 I 
ENDROOT
BRANCH   1  11
ATOM     10  C   LIG    1       24.037 -13.234   3.033  0.00  0.00    +0.243 C 
ATOM     11  N   LIG    1       24.923 -13.836   3.922  0.00  0.00    -0.282 N 
ATOM     12  H   LIG    1       25.700 -13.247   4.209  0.00  0.00    +0.155 HD
ATOM     13  O   LIG    1       23.447 -13.840   2.139  0.00  0.00    -0.273 OA
BRANCH  10  14
ATOM     14  C   LIG    1       23.897 -11.722   3.239  0.00  0.00    +0.255 C 
BRANCH  14  16
ATOM     15  C   LIG    1       23.915 -11.555   5.588  0.00  0.00    +0.194 C 
ATOM     16  O   LIG    1       23.133 -11.447   4.405  0.00  0.00    -0.374 OA
ENDBRANCH  14  16
ENDBRANCH  10  14
ENDBRANCH   1  11
BRANCH   4  17
ATOM     17  C   LIG    1       28.040 -17.518   4.461  0.00  0.00    +0.248 C 
ATOM     18  N   LIG    1       28.143 -18.835   4.953  0.00  0.00    -0.298 N 
ATOM     19  C   LIG    1       27.254 -19.958   4.674  0.00  0.00    +0.132 C 
ATOM     20  O   LIG    1       28.907 -16.698   4.755  0.00  0.00    -0.270 OA
BRANCH  18  21
ATOM     21  C   LIG    1       29.250 -19.130   5.888  0.00  0.00    +0.141 C 
BRANCH  21  22
ATOM     22  C   LIG    1       28.799 -20.038   7.061  0.00  0.00    +0.157 C 
BRANCH  22  23
ATOM     23  O   LIG    1       29.437 -21.320   7.023  0.00  0.00    -0.388 OA
ATOM     24  H   LIG    1       28.786 -21.979   7.341  0.00  0.00    +0.210 HD
ENDBRANCH  22  23
BRANCH  22  25
ATOM     25  C   LIG    1       27.276 -20.240   7.061  0.00  0.00    +0.188 C 
BRANCH  25  26
ATOM     26  O   LIG    1       26.900 -21.422   6.364  0.00  0.00    -0.392 OA
ATOM     27  H   LIG    1       27.676 -21.726   5.862  0.00  0.00    +0.209 HD
ENDBRANCH  25  26
ENDBRANCH  22  25
ENDBRANCH  21  22
ENDBRANCH  18  21
ENDBRANCH   4  17
BRANCH   7  28
ATOM     28  C   LIG    1       23.409 -18.660   3.731  0.00  0.00    +0.246 C 
ATOM     29  N   LIG    1       23.841 -19.958   3.848  0.00  0.00    -0.309 N 
ATOM     30  H   LIG    1       24.837 -20.154   3.893  0.00  0.00    +0.149 HD
ATOM     31  O   LIG    1       22.196 -18.363   3.742  0.00  0.00    -0.270 OA
BRANCH  29  32
ATOM     32  C   LIG    1       22.920 -21.116   3.902  0.00  0.00    +0.138 C 
BRANCH  32  33
ATOM     33  C   LIG    1       22.479 -21.473   5.335  0.00  0.00    +0.157 C 
BRANCH  33  34
ATOM     34  O   LIG    1       21.049 -21.569   5.378  0.00  0.00    -0.388 OA
ATOM     35  H   LIG    1       20.728 -20.850   4.805  0.00  0.00    +0.210 HD
ENDBRANCH  33  34
BRANCH  33  36
ATOM     36  C   LIG    1       22.933 -20.426   6.364  0.00  0.00    +0.188 C 
BRANCH  36  37
ATOM     37  O   LIG    1       24.277 -20.647   6.773  0.00  0.00    -0.392 OA
ATOM     38  H   LIG    1       24.301 -20.544   7.742  0.00  0.00    +0.209 HD
ENDBRANCH  36  37
ENDBRANCH  33  36
ENDBRANCH  32  33
ENDBRANCH  29  32
ENDBRANCH   7  28
TORSDOF 15
ENDMDL
