MODEL 1
REMARK VINA RESULT:      -9.4      0.000      0.000
REMARK  Name = *****
REMARK                            x       y       z     vdW  Elec       q    Type
REMARK                         _______ _______ _______ _____ _____    ______ ____
ROOT
ATOM      1  C   LIG    1       23.244 -22.391   7.353  0.00  0.00    +0.134 C 
ATOM      2  N   LIG    1       24.502 -21.734   6.937  0.00  0.00    -0.159 NA
ATOM      3  S   LIG    1       25.848 -22.362   7.771  0.00  0.00    +0.064 S 
ATOM      4  O   LIG    1       26.100 -23.700   7.274  0.00  0.00    -0.153 OA
ATOM      5  O   LIG    1       25.640 -22.116   9.183  0.00  0.00    -0.153 OA
ATOM      6  C   LIG    1       27.151 -21.326   7.226  0.00  0.00    +0.128 A 
ATOM      7  C   LIG    1       27.014 -20.726   5.978  0.00  0.00    +0.057 A 
ATOM      8  C   LIG    1       28.032 -19.849   5.579  0.00  0.00    +0.047 A 
ATOM      9  C   LIG    1       29.144 -19.579   6.392  0.00  0.00    +0.069 A 
ATOM     10  C   LIG    1       29.246 -20.189   7.642  0.00  0.00    +0.125 A 
ATOM     11 CL   LIG    1       30.292 -18.449   5.766  0.00  0.00    -0.082 Cl
ATOM     12  N   LIG    1       25.870 -20.809   5.207  0.00  0.00    -0.325 N 
ATOM     13  H   LIG    1       25.998 -20.636   4.210  0.00  0.00    +0.148 HD
ATOM     14  C   LIG    1       28.248 -21.078   8.064  0.00  0.00    +0.060 A 
ATOM     15  C   LIG    1       24.764 -21.718   5.483  0.00  0.00    +0.172 C 
ENDROOT
BRANCH  10  16
ATOM     16  S   LIG    1       30.614 -19.856   8.707  0.00  0.00    +0.057 S 
ATOM     17  O   LIG    1       30.269 -18.781   9.602  0.00  0.00    -0.153 OA
ATOM     18  O   LIG    1       31.825 -19.830   7.916  0.00  0.00    -0.153 OA
BRANCH  16  19
ATOM     19  N   LIG    1       30.742 -21.250   9.635  0.00  0.00    -0.203 NA
ATOM     20  H   LIG    1       29.844 -21.737   9.643  0.00  0.00    +0.144 HD
ATOM     21  H   LIG    1       31.091 -21.022  10.566  0.00  0.00    +0.144 HD
ENDBRANCH  16  19
ENDBRANCH  10  16
BRANCH  15  22
ATOM     22  C   LIG    1       23.540 -21.185   4.675  0.00  0.00    +0.109 C 
BRANCH  22  23
ATOM     23  S   LIG    1       24.048 -20.162   3.223  0.00  0.00    -0.149 S 
BRANCH  23  24
ATOM     24  C   LIG    1       23.615 -18.485   3.852  0.00  0.00    +0.182 C 
BRANCH  24  25
ATOM     25  C   LIG    1       22.311 -18.330   4.635  0.00  0.00    +0.399 C 
ATOM     26  F   LIG    1       21.251 -18.740   3.903  0.00  0.00    -0.170 F 
ATOM     27  F   LIG    1       22.107 -17.029   4.949  0.00  0.00    -0.170 F 
ATOM     28  F   LIG    1       22.294 -19.025   5.792  0.00  0.00    -0.170 F 
ENDBRANCH  24  25
ENDBRANCH  23  24
ENDBRANCH  22  23
ENDBRANCH  15  22
TORSDOF 6
ENDMDL
MODEL 2
REMARK VINA RESULT:      -7.9      2.489      2.829
REMARK  Name = *****
REMARK                            x       y       z     vdW  Elec       q    Type
REMARK                         _______ _______ _______ _____ _____    ______ ____
ROOT
ATOM      1  C   LIG    1       23.449 -20.822   6.245  0.00  0.00    +0.134 C 
ATOM      2  N   LIG    1       24.906 -20.565   6.217  0.00  0.00    -0.159 NA
ATOM      3  S   LIG    1       25.780 -21.797   7.005  0.00  0.00    +0.064 S 
ATOM      4  O   LIG    1       25.730 -22.983   6.173  0.00  0.00    -0.153 OA
ATOM      5  O   LIG    1       25.338 -21.832   8.384  0.00  0.00    -0.153 OA
ATOM      6  C   LIG    1       27.418 -21.180   6.974  0.00  0.00    +0.128 A 
ATOM      7  C   LIG    1       27.752 -20.297   5.953  0.00  0.00    +0.057 A 
ATOM      8  C   LIG    1       29.047 -19.760   5.974  0.00  0.00    +0.047 A 
ATOM      9  C   LIG    1       29.974 -20.090   6.975  0.00  0.00    +0.069 A 
ATOM     10  C   LIG    1       29.604 -20.972   7.991  0.00  0.00    +0.125 A 
ATOM     11 CL   LIG    1       31.516 -19.316   6.875  0.00  0.00    -0.082 Cl
ATOM     12  N   LIG    1       26.841 -19.794   5.043  0.00  0.00    -0.325 N 
ATOM     13  H   LIG    1       27.237 -19.448   4.169  0.00  0.00    +0.148 HD
ATOM     14  C   LIG    1       28.320 -21.532   7.990  0.00  0.00    +0.060 A 
ATOM     15  C   LIG    1       25.483 -20.300   4.883  0.00  0.00    +0.172 C 
ENDROOT
BRANCH  10  16
ATOM     16  S   LIG    1       30.731 -21.393   9.283  0.00  0.00    +0.057 S 
ATOM     17  O   LIG    1       30.156 -22.434  10.095  0.00  0.00    -0.153 OA
ATOM     18  O   LIG    1       31.252 -20.174   9.863  0.00  0.00    -0.153 OA
BRANCH  16  19
ATOM     19  N   LIG    1       32.035 -22.067   8.467  0.00  0.00    -0.203 NA
ATOM     20  H   LIG    1       31.705 -22.521   7.614  0.00  0.00    +0.144 HD
ATOM     21  H   LIG    1       32.555 -22.689   9.087  0.00  0.00    +0.144 HD
ENDBRANCH  16  19
ENDBRANCH  10  16
BRANCH  15  22
ATOM     22  C   LIG    1       24.689 -19.202   4.110  0.00  0.00    +0.109 C 
BRANCH  22  23
ATOM     23  S   LIG    1       25.791 -18.115   3.103  0.00  0.00    -0.149 S 
BRANCH  23  24
ATOM     24  C   LIG    1       25.142 -16.463   3.600  0.00  0.00    +0.182 C 
BRANCH  24  25
ATOM     25  C   LIG    1       26.102 -15.274   3.549  0.00  0.00    +0.399 C 
ATOM     26  F   LIG    1       26.062 -14.666   2.343  0.00  0.00    -0.170 F 
ATOM     27  F   LIG    1       27.374 -15.691   3.751  0.00  0.00    -0.170 F 
ATOM     28  F   LIG    1       25.841 -14.333   4.482  0.00  0.00    -0.170 F 
ENDBRANCH  24  25
ENDBRANCH  23  24
ENDBRANCH  22  23
ENDBRANCH  15  22
TORSDOF 6
ENDMDL
MODEL 3
REMARK VINA RESULT:      -7.7      4.489      5.618
REMARK  Name = *****
REMARK                            x       y       z     vdW  Elec       q    Type
REMARK                         _______ _______ _______ _____ _____    ______ ____
ROOT
ATOM      1  C   LIG    1       23.665 -22.351   4.367  0.00  0.00    +0.134 C 
ATOM      2  N   LIG    1       24.827 -22.240   5.275  0.00  0.00    -0.159 NA
ATOM      3  S   LIG    1       25.346 -20.625   5.442  0.00  0.00    +0.064 S 
ATOM      4  O   LIG    1       24.357 -19.917   6.231  0.00  0.00    -0.153 OA
ATOM      5  O   LIG    1       25.733 -20.153   4.129  0.00  0.00    -0.153 OA
ATOM      6  C   LIG    1       26.795 -20.790   6.410  0.00  0.00    +0.128 A 
ATOM      7  C   LIG    1       26.886 -21.898   7.247  0.00  0.00    +0.057 A 
ATOM      8  C   LIG    1       28.077 -22.054   7.969  0.00  0.00    +0.047 A 
ATOM      9  C   LIG    1       29.138 -21.141   7.862  0.00  0.00    +0.069 A 
ATOM     10  C   LIG    1       29.019 -20.045   7.007  0.00  0.00    +0.125 A 
ATOM     11 CL   LIG    1       30.549 -21.496   8.795  0.00  0.00    -0.082 Cl
ATOM     12  N   LIG    1       25.959 -22.923   7.267  0.00  0.00    -0.325 N 
ATOM     13  H   LIG    1       25.939 -23.481   8.120  0.00  0.00    +0.148 HD
ATOM     14  C   LIG    1       27.836 -19.859   6.279  0.00  0.00    +0.060 A 
ATOM     15  C   LIG    1       24.662 -22.864   6.603  0.00  0.00    +0.172 C 
ENDROOT
BRANCH  10  16
ATOM     16  S   LIG    1       30.340 -18.889   6.822  0.00  0.00    +0.057 S 
ATOM     17  O   LIG    1       31.572 -19.603   6.609  0.00  0.00    -0.153 OA
ATOM     18  O   LIG    1       30.215 -17.872   7.844  0.00  0.00    -0.153 OA
BRANCH  16  19
ATOM     19  N   LIG    1       29.974 -18.096   5.387  0.00  0.00    -0.203 NA
ATOM     20  H   LIG    1       29.039 -17.689   5.452  0.00  0.00    +0.144 HD
ATOM     21  H   LIG    1       30.091 -18.729   4.596  0.00  0.00    +0.144 HD
ENDBRANCH  16  19
ENDBRANCH  10  16
BRANCH  15  22
ATOM     22  C   LIG    1       24.151 -24.335   6.498  0.00  0.00    +0.109 C 
BRANCH  22  23
ATOM     23  S   LIG    1       25.420 -25.470   5.782  0.00  0.00    -0.149 S 
BRANCH  23  24
ATOM     24  C   LIG    1       24.458 -27.042   5.758  0.00  0.00    +0.182 C 
BRANCH  24  25
ATOM     25  C   LIG    1       25.000 -28.224   6.563  0.00  0.00    +0.399 C 
ATOM     26  F   LIG    1       25.932 -27.820   7.455  0.00  0.00    -0.170 F 
ATOM     27  F   LIG    1       25.590 -29.119   5.737  0.00  0.00    -0.170 F 
ATOM     28  F   LIG    1       24.046 -28.887   7.251  0.00  0.00    -0.170 F 
ENDBRANCH  24  25
ENDBRANCH  23  24
ENDBRANCH  22  23
ENDBRANCH  15  22
TORSDOF 6
ENDMDL
MODEL 4
REMARK VINA RESULT:      -7.4      2.721      3.486
REMARK  Name = *****
REMARK                            x       y       z     vdW  Elec       q    Type
REMARK                         _______ _______ _______ _____ _____    ______ ____
ROOT
ATOM      1  C   LIG    1       23.648 -20.889   7.607  0.00  0.00    +0.134 C 
ATOM      2  N   LIG    1       25.056 -20.637   7.230  0.00  0.00    -0.159 NA
ATOM      3  S   LIG    1       26.125 -20.994   8.508  0.00  0.00    +0.064 S 
ATOM      4  O   LIG    1       26.172 -22.435   8.664  0.00  0.00    -0.153 OA
ATOM      5  O   LIG    1       25.779 -20.133   9.620  0.00  0.00    -0.153 OA
ATOM      6  C   LIG    1       27.668 -20.466   7.871  0.00  0.00    +0.128 A 
ATOM      7  C   LIG    1       27.824 -20.462   6.488  0.00  0.00    +0.057 A 
ATOM      8  C   LIG    1       29.040 -19.977   5.987  0.00  0.00    +0.047 A 
ATOM      9  C   LIG    1       30.062 -19.514   6.830  0.00  0.00    +0.069 A 
ATOM     10  C   LIG    1       29.870 -19.524   8.212  0.00  0.00    +0.125 A 
ATOM     11 CL   LIG    1       31.485 -18.920   6.051  0.00  0.00    -0.082 Cl
ATOM     12  N   LIG    1       26.802 -20.734   5.599  0.00  0.00    -0.325 N 
ATOM     13  H   LIG    1       27.095 -21.032   4.669  0.00  0.00    +0.148 HD
ATOM     14  C   LIG    1       28.669 -20.011   8.742  0.00  0.00    +0.060 A 
ATOM     15  C   LIG    1       25.510 -21.291   5.985  0.00  0.00    +0.172 C 
ENDROOT
BRANCH  10  16
ATOM     16  S   LIG    1       31.120 -18.925   9.307  0.00  0.00    +0.057 S 
ATOM     17  O   LIG    1       32.284 -19.767   9.205  0.00  0.00    -0.153 OA
ATOM     18  O   LIG    1       30.512 -18.615  10.583  0.00  0.00    -0.153 OA
BRANCH  16  19
ATOM     19  N   LIG    1       31.532 -17.432   8.659  0.00  0.00    -0.203 NA
ATOM     20  H   LIG    1       32.473 -17.177   8.964  0.00  0.00    +0.144 HD
ATOM     21  H   LIG    1       30.823 -16.737   8.896  0.00  0.00    +0.144 HD
ENDBRANCH  16  19
ENDBRANCH  10  16
BRANCH  15  22
ATOM     22  C   LIG    1       24.538 -21.021   4.796  0.00  0.00    +0.109 C 
BRANCH  22  23
ATOM     23  S   LIG    1       23.824 -22.579   4.104  0.00  0.00    -0.149 S 
BRANCH  23  24
ATOM     24  C   LIG    1       24.825 -23.820   5.029  0.00  0.00    +0.182 C 
BRANCH  24  25
ATOM     25  C   LIG    1       24.122 -24.643   6.109  0.00  0.00    +0.399 C 
ATOM     26  F   LIG    1       23.027 -24.003   6.575  0.00  0.00    -0.170 F 
ATOM     27  F   LIG    1       24.954 -24.841   7.159  0.00  0.00    -0.170 F 
ATOM     28  F   LIG    1       23.725 -25.861   5.682  0.00  0.00    -0.170 F 
ENDBRANCH  24  25
ENDBRANCH  23  24
ENDBRANCH  22  23
ENDBRANCH  15  22
TORSDOF 6
ENDMDL
MODEL 5
REMARK VINA RESULT:      -7.3      1.617      1.833
REMARK  Name = *****
REMARK                            x       y       z     vdW  Elec       q    Type
REMARK                         _______ _______ _______ _____ _____    ______ ____
ROOT
ATOM      1  C   LIG    1       23.186 -22.097   7.606  0.00  0.00    +0.134 C 
ATOM      2  N   LIG    1       24.479 -21.543   7.148  0.00  0.00    -0.159 NA
ATOM      3  S   LIG    1       25.789 -22.191   8.023  0.00  0.00    +0.064 S 
ATOM      4  O   LIG    1       25.962 -23.572   7.613  0.00  0.00    -0.153 OA
ATOM      5  O   LIG    1       25.600 -21.844   9.416  0.00  0.00    -0.153 OA
ATOM      6  C   LIG    1       27.147 -21.270   7.412  0.00  0.00    +0.128 A 
ATOM      7  C   LIG    1       27.041 -20.746   6.128  0.00  0.00    +0.057 A 
ATOM      8  C   LIG    1       28.107 -19.957   5.673  0.00  0.00    +0.047 A 
ATOM      9  C   LIG    1       29.235 -19.699   6.468  0.00  0.00    +0.069 A 
ATOM     10  C   LIG    1       29.306 -20.232   7.755  0.00  0.00    +0.125 A 
ATOM     11 CL   LIG    1       30.445 -18.680   5.770  0.00  0.00    -0.082 Cl
ATOM     12  N   LIG    1       25.892 -20.812   5.363  0.00  0.00    -0.325 N 
ATOM     13  H   LIG    1       26.026 -20.712   4.357  0.00  0.00    +0.148 HD
ATOM     14  C   LIG    1       28.260 -21.032   8.233  0.00  0.00    +0.060 A 
ATOM     15  C   LIG    1       24.736 -21.636   5.697  0.00  0.00    +0.172 C 
ENDROOT
BRANCH  10  16
ATOM     16  S   LIG    1       30.694 -19.910   8.797  0.00  0.00    +0.057 S 
ATOM     17  O   LIG    1       30.340 -18.903   9.763  0.00  0.00    -0.153 OA
ATOM     18  O   LIG    1       31.878 -19.793   7.973  0.00  0.00    -0.153 OA
BRANCH  16  19
ATOM     19  N   LIG    1       30.901 -21.349   9.637  0.00  0.00    -0.203 NA
ATOM     20  H   LIG    1       29.989 -21.775   9.812  0.00  0.00    +0.144 HD
ATOM     21  H   LIG    1       31.446 -21.188  10.484  0.00  0.00    +0.144 HD
ENDBRANCH  16  19
ENDBRANCH  10  16
BRANCH  15  22
ATOM     22  C   LIG    1       23.542 -21.086   4.855  0.00  0.00    +0.109 C 
BRANCH  22  23
ATOM     23  S   LIG    1       24.093 -20.338   3.258  0.00  0.00    -0.149 S 
BRANCH  23  24
ATOM     24  C   LIG    1       24.291 -18.583   3.785  0.00  0.00    +0.182 C 
BRANCH  24  25
ATOM     25  C   LIG    1       25.558 -17.845   3.351  0.00  0.00    +0.399 C 
ATOM     26  F   LIG    1       26.564 -18.043   4.231  0.00  0.00    -0.170 F 
ATOM     27  F   LIG    1       25.325 -16.513   3.294  0.00  0.00    -0.170 F 
ATOM     28  F   LIG    1       26.008 -18.222   2.135  0.00  0.00    -0.170 F 
ENDBRANCH  24  25
ENDBRANCH  23  24
ENDBRANCH  22  23
ENDBRANCH  15  22
TORSDOF 6
ENDMDL
MODEL 6
REMARK VINA RESULT:      -6.8      8.356      9.696
REMARK  Name = *****
REMARK                            x       y       z     vdW  Elec       q    Type
REMARK                         _______ _______ _______ _____ _____    ______ ____
ROOT
ATOM      1  C   LIG    1       23.696 -31.745   6.045  0.00  0.00    +0.134 C 
ATOM      2  N   LIG    1       24.400 -30.911   7.043  0.00  0.00    -0.159 NA
ATOM      3  S   LIG    1       25.186 -31.861   8.219  0.00  0.00    +0.064 S 
ATOM      4  O   LIG    1       26.327 -32.498   7.591  0.00  0.00    -0.153 OA
ATOM      5  O   LIG    1       24.173 -32.643   8.896  0.00  0.00    -0.153 OA
ATOM      6  C   LIG    1       25.785 -30.658   9.341  0.00  0.00    +0.128 A 
ATOM      7  C   LIG    1       26.034 -29.383   8.843  0.00  0.00    +0.057 A 
ATOM      8  C   LIG    1       26.453 -28.412   9.762  0.00  0.00    +0.047 A 
ATOM      9  C   LIG    1       26.617 -28.699  11.127  0.00  0.00    +0.069 A 
ATOM     10  C   LIG    1       26.349 -29.985  11.596  0.00  0.00    +0.125 A 
ATOM     11 CL   LIG    1       27.107 -27.381  12.131  0.00  0.00    -0.082 Cl
ATOM     12  N   LIG    1       25.727 -28.988   7.555  0.00  0.00    -0.325 N 
ATOM     13  H   LIG    1       26.245 -28.182   7.206  0.00  0.00    +0.148 HD
ATOM     14  C   LIG    1       25.939 -30.979  10.698  0.00  0.00    +0.060 A 
ATOM     15  C   LIG    1       25.332 -29.905   6.492  0.00  0.00    +0.172 C 
ENDROOT
BRANCH  10  16
ATOM     16  S   LIG    1       26.517 -30.381  13.308  0.00  0.00    +0.057 S 
ATOM     17  O   LIG    1       25.530 -29.654  14.063  0.00  0.00    -0.153 OA
ATOM     18  O   LIG    1       27.920 -30.350  13.658  0.00  0.00    -0.153 OA
BRANCH  16  19
ATOM     19  N   LIG    1       26.097 -32.006  13.381  0.00  0.00    -0.203 NA
ATOM     20  H   LIG    1       26.470 -32.491  12.563  0.00  0.00    +0.144 HD
ATOM     21  H   LIG    1       25.087 -32.104  13.489  0.00  0.00    +0.144 HD
ENDBRANCH  16  19
ENDBRANCH  10  16
BRANCH  15  22
ATOM     22  C   LIG    1       24.663 -29.036   5.382  0.00  0.00    +0.109 C 
BRANCH  22  23
ATOM     23  S   LIG    1       25.519 -27.415   5.148  0.00  0.00    -0.149 S 
BRANCH  23  24
ATOM     24  C   LIG    1       24.207 -26.275   5.764  0.00  0.00    +0.182 C 
BRANCH  24  25
ATOM     25  C   LIG    1       24.641 -24.913   6.304  0.00  0.00    +0.399 C 
ATOM     26  F   LIG    1       23.619 -24.286   6.927  0.00  0.00    -0.170 F 
ATOM     27  F   LIG    1       25.045 -24.115   5.287  0.00  0.00    -0.170 F 
ATOM     28  F   LIG    1       25.664 -24.984   7.182  0.00  0.00    -0.170 F 
ENDBRANCH  24  25
ENDBRANCH  23  24
ENDBRANCH  22  23
ENDBRANCH  15  22
TORSDOF 6
ENDMDL
MODEL 7
REMARK VINA RESULT:      -6.6      7.472      9.056
REMARK  Name = *****
REMARK                            x       y       z     vdW  Elec       q    Type
REMARK                         _______ _______ _______ _____ _____    ______ ____
ROOT
ATOM      1  C   LIG    1       23.821 -28.895   5.289  0.00  0.00    +0.134 C 
ATOM      2  N   LIG    1       24.548 -28.711   6.564  0.00  0.00    -0.159 NA
ATOM      3  S   LIG    1       24.755 -30.187   7.391  0.00  0.00    +0.064 S 
ATOM      4  O   LIG    1       25.736 -30.972   6.667  0.00  0.00    -0.153 OA
ATOM      5  O   LIG    1       23.438 -30.716   7.677  0.00  0.00    -0.153 OA
ATOM      6  C   LIG    1       25.477 -29.677   8.903  0.00  0.00    +0.128 A 
ATOM      7  C   LIG    1       26.204 -28.491   8.899  0.00  0.00    +0.057 A 
ATOM      8  C   LIG    1       26.724 -28.060  10.127  0.00  0.00    +0.047 A 
ATOM      9  C   LIG    1       26.526 -28.782  11.315  0.00  0.00    +0.069 A 
ATOM     10  C   LIG    1       25.783 -29.963  11.286  0.00  0.00    +0.125 A 
ATOM     11 CL   LIG    1       27.204 -28.097  12.749  0.00  0.00    -0.082 Cl
ATOM     12  N   LIG    1       26.288 -27.645   7.810  0.00  0.00    -0.325 N 
ATOM     13  H   LIG    1       27.090 -27.015   7.803  0.00  0.00    +0.148 HD
ATOM     14  C   LIG    1       25.260 -30.424  10.071  0.00  0.00    +0.060 A 
ATOM     15  C   LIG    1       25.835 -27.993   6.468  0.00  0.00    +0.172 C 
ENDROOT
BRANCH  10  16
ATOM     16  S   LIG    1       25.488 -30.887  12.761  0.00  0.00    +0.057 S 
ATOM     17  O   LIG    1       24.552 -30.174  13.590  0.00  0.00    -0.153 OA
ATOM     18  O   LIG    1       26.755 -31.361  13.275  0.00  0.00    -0.153 OA
BRANCH  16  19
ATOM     19  N   LIG    1       24.709 -32.270  12.212  0.00  0.00    -0.203 NA
ATOM     20  H   LIG    1       24.872 -33.036  12.868  0.00  0.00    +0.144 HD
ATOM     21  H   LIG    1       24.998 -32.482  11.257  0.00  0.00    +0.144 HD
ENDBRANCH  16  19
ENDBRANCH  10  16
BRANCH  15  22
ATOM     22  C   LIG    1       25.698 -26.651   5.684  0.00  0.00    +0.109 C 
BRANCH  22  23
ATOM     23  S   LIG    1       25.796 -25.176   6.793  0.00  0.00    -0.149 S 
BRANCH  23  24
ATOM     24  C   LIG    1       24.756 -23.994   5.835  0.00  0.00    +0.182 C 
BRANCH  24  25
ATOM     25  C   LIG    1       23.674 -23.221   6.590  0.00  0.00    +0.399 C 
ATOM     26  F   LIG    1       24.166 -22.674   7.724  0.00  0.00    -0.170 F 
ATOM     27  F   LIG    1       22.668 -24.053   6.945  0.00  0.00    -0.170 F 
ATOM     28  F   LIG    1       23.126 -22.221   5.867  0.00  0.00    -0.170 F 
ENDBRANCH  24  25
ENDBRANCH  23  24
ENDBRANCH  22  23
ENDBRANCH  15  22
TORSDOF 6
ENDMDL
MODEL 8
REMARK VINA RESULT:      -6.5      4.589      7.227
REMARK  Name = *****
REMARK                            x       y       z     vdW  Elec       q    Type
REMARK                         _______ _______ _______ _____ _____    ______ ____
ROOT
ATOM      1  C   LIG    1       29.981 -21.691   8.721  0.00  0.00    +0.134 C 
ATOM      2  N   LIG    1       29.169 -21.052   7.663  0.00  0.00    -0.159 NA
ATOM      3  S   LIG    1       27.503 -21.134   8.009  0.00  0.00    +0.064 S 
ATOM      4  O   LIG    1       27.228 -20.224   9.104  0.00  0.00    -0.153 OA
ATOM      5  O   LIG    1       27.142 -22.533   8.091  0.00  0.00    -0.153 OA
ATOM      6  C   LIG    1       26.781 -20.470   6.558  0.00  0.00    +0.128 A 
ATOM      7  C   LIG    1       27.543 -19.577   5.812  0.00  0.00    +0.057 A 
ATOM      8  C   LIG    1       26.981 -19.102   4.620  0.00  0.00    +0.047 A 
ATOM      9  C   LIG    1       25.706 -19.501   4.186  0.00  0.00    +0.069 A 
ATOM     10  C   LIG    1       24.971 -20.405   4.953  0.00  0.00    +0.125 A 
ATOM     11 CL   LIG    1       25.173 -18.848   2.678  0.00  0.00    -0.082 Cl
ATOM     12  N   LIG    1       28.865 -19.280   6.086  0.00  0.00    -0.325 N 
ATOM     13  H   LIG    1       29.205 -18.396   5.708  0.00  0.00    +0.148 HD
ATOM     14  C   LIG    1       25.504 -20.890   6.154  0.00  0.00    +0.060 A 
ATOM     15  C   LIG    1       29.552 -19.669   7.312  0.00  0.00    +0.172 C 
ENDROOT
BRANCH  10  16
ATOM     16  S   LIG    1       23.376 -20.954   4.430  0.00  0.00    +0.057 S 
ATOM     17  O   LIG    1       23.503 -21.665   3.185  0.00  0.00    -0.153 OA
ATOM     18  O   LIG    1       22.433 -19.870   4.597  0.00  0.00    -0.153 OA
BRANCH  16  19
ATOM     19  N   LIG    1       22.942 -22.079   5.599  0.00  0.00    -0.203 NA
ATOM     20  H   LIG    1       23.076 -21.674   6.528  0.00  0.00    +0.144 HD
ATOM     21  H   LIG    1       23.453 -22.950   5.456  0.00  0.00    +0.144 HD
ENDBRANCH  16  19
ENDBRANCH  10  16
BRANCH  15  22
ATOM     22  C   LIG    1       31.080 -19.540   7.024  0.00  0.00    +0.109 C 
BRANCH  22  23
ATOM     23  S   LIG    1       31.895 -18.279   8.100  0.00  0.00    -0.149 S 
BRANCH  23  24
ATOM     24  C   LIG    1       30.577 -18.050   9.368  0.00  0.00    +0.182 C 
BRANCH  24  25
ATOM     25  C   LIG    1       30.977 -17.441  10.712  0.00  0.00    +0.399 C 
ATOM     26  F   LIG    1       30.429 -16.217  10.876  0.00  0.00    -0.170 F 
ATOM     27  F   LIG    1       32.322 -17.294  10.776  0.00  0.00    -0.170 F 
ATOM     28  F   LIG    1       30.610 -18.192  11.773  0.00  0.00    -0.170 F 
ENDBRANCH  24  25
ENDBRANCH  23  24
ENDBRANCH  22  23
ENDBRANCH  15  22
TORSDOF 6
ENDMDL
