MODEL 1
REMARK VINA RESULT:      -8.3      0.000      0.000
REMARK  Name = *****
REMARK                            x       y       z     vdW  Elec       q    Type
REMARK                         _______ _______ _______ _____ _____    ______ ____
ROOT
ATOM      1  N   LIG    1       28.018 -21.597   7.112  0.00  0.00    -0.196 N 
ATOM      2  H   LIG    1       28.515 -22.397   7.506  0.00  0.00    +0.175 HD
ENDROOT
BRANCH   1   5
ATOM      3  C   LIG    1       30.865 -19.353   7.774  0.00  0.00    +0.263 A 
ATOM      4  C   LIG    1       30.042 -20.452   7.990  0.00  0.00    +0.223 A 
ATOM      5  C   LIG    1       29.000 -20.550   7.076  0.00  0.00    +0.187 A 
ATOM      6  N   LIG    1       28.754 -19.681   6.080  0.00  0.00    -0.215 NA
ATOM      7  C   LIG    1       29.623 -18.669   5.982  0.00  0.00    +0.227 A 
ATOM      8  N   LIG    1       30.675 -18.456   6.781  0.00  0.00    -0.198 NA
BRANCH   3  10
ATOM      9  C   LIG    1       31.907 -17.905   9.329  0.00  0.00    +0.279 C 
ATOM     10  O   LIG    1       31.933 -19.138   8.620  0.00  0.00    -0.477 OA
ENDBRANCH   3  10
BRANCH   4  11
ATOM     11  O   LIG    1       30.087 -21.380   8.991  0.00  0.00    -0.487 OA
ATOM     12  C   LIG    1       31.249 -22.193   9.101  0.00  0.00    +0.277 C 
ENDBRANCH   4  11
ENDBRANCH   1   5
BRANCH   1  13
ATOM     13  S   LIG    1       26.753 -21.291   8.206  0.00  0.00    +0.074 S 
ATOM     14  O   LIG    1       26.863 -19.945   8.730  0.00  0.00    -0.150 OA
ATOM     15  O   LIG    1       26.673 -22.436   9.083  0.00  0.00    -0.150 OA
BRANCH  13  16
ATOM     16  C   LIG    1       25.301 -21.337   7.161  0.00  0.00    +0.109 A 
ATOM     17  C   LIG    1       24.183 -22.080   7.558  0.00  0.00    +0.030 A 
ATOM     18  C   LIG    1       23.022 -22.066   6.774  0.00  0.00    +0.024 A 
ATOM     19  C   LIG    1       22.932 -21.252   5.640  0.00  0.00    +0.025 A 
ATOM     20  C   LIG    1       24.068 -20.543   5.235  0.00  0.00    +0.024 A 
ATOM     21  C   LIG    1       25.241 -20.557   6.004  0.00  0.00    +0.030 A 
BRANCH  19  22
ATOM     22  N   LIG    1       21.807 -21.323   4.809  0.00  0.00    -0.358 N 
ATOM     23  H   LIG    1       22.024 -21.574   3.849  0.00  0.00    +0.142 HD
ATOM     24  H   LIG    1       21.057 -21.895   5.186  0.00  0.00    +0.142 HD
ENDBRANCH  19  22
ENDBRANCH  13  16
ENDBRANCH   1  13
TORSDOF 6
ENDMDL
MODEL 2
REMARK VINA RESULT:      -8.2      1.389      2.387
REMARK  Name = *****
REMARK                            x       y       z     vdW  Elec       q    Type
REMARK                         _______ _______ _______ _____ _____    ______ ____
ROOT
ATOM      1  N   LIG    1       28.259 -21.112   6.979  0.00  0.00    -0.196 N 
ATOM      2  H   LIG    1       28.468 -22.081   6.736  0.00  0.00    +0.175 HD
ENDROOT
BRANCH   1   5
ATOM      3  C   LIG    1       31.093 -19.149   8.281  0.00  0.00    +0.263 A 
ATOM      4  C   LIG    1       29.940 -19.367   7.536  0.00  0.00    +0.223 A 
ATOM      5  C   LIG    1       29.435 -20.655   7.666  0.00  0.00    +0.187 A 
ATOM      6  N   LIG    1       29.983 -21.636   8.404  0.00  0.00    -0.215 NA
ATOM      7  C   LIG    1       31.091 -21.293   9.071  0.00  0.00    +0.227 A 
ATOM      8  N   LIG    1       31.680 -20.092   9.051  0.00  0.00    -0.198 NA
BRANCH   3  10
ATOM      9  C   LIG    1       32.080 -17.370   9.492  0.00  0.00    +0.279 C 
ATOM     10  O   LIG    1       31.699 -17.911   8.231  0.00  0.00    -0.477 OA
ENDBRANCH   3  10
BRANCH   4  11
ATOM     11  O   LIG    1       29.298 -18.526   6.673  0.00  0.00    -0.487 OA
ATOM     12  C   LIG    1       29.691 -18.538   5.306  0.00  0.00    +0.277 C 
ENDBRANCH   4  11
ENDBRANCH   1   5
BRANCH   1  13
ATOM     13  S   LIG    1       26.891 -21.204   7.983  0.00  0.00    +0.074 S 
ATOM     14  O   LIG    1       26.973 -20.204   9.029  0.00  0.00    -0.150 OA
ATOM     15  O   LIG    1       26.691 -22.600   8.293  0.00  0.00    -0.150 OA
BRANCH  13  16
ATOM     16  C   LIG    1       25.559 -20.720   6.890  0.00  0.00    +0.109 A 
ATOM     17  C   LIG    1       25.839 -20.387   5.560  0.00  0.00    +0.030 A 
ATOM     18  C   LIG    1       24.791 -20.071   4.684  0.00  0.00    +0.024 A 
ATOM     19  C   LIG    1       23.459 -20.164   5.098  0.00  0.00    +0.025 A 
ATOM     20  C   LIG    1       23.195 -20.463   6.439  0.00  0.00    +0.024 A 
ATOM     21  C   LIG    1       24.234 -20.770   7.329  0.00  0.00    +0.030 A 
BRANCH  19  22
ATOM     22  N   LIG    1       22.427 -19.747   4.248  0.00  0.00    -0.358 N 
ATOM     23  H   LIG    1       22.460 -20.174   3.326  0.00  0.00    +0.142 HD
ATOM     24  H   LIG    1       21.502 -19.820   4.663  0.00  0.00    +0.142 HD
ENDBRANCH  19  22
ENDBRANCH  13  16
ENDBRANCH   1  13
TORSDOF 6
ENDMDL
MODEL 3
REMARK VINA RESULT:      -8.1      1.829      2.145
REMARK  Name = *****
REMARK                            x       y       z     vdW  Elec       q    Type
REMARK                         _______ _______ _______ _____ _____    ______ ____
ROOT
ATOM      1  N   LIG    1       27.990 -21.655   7.955  0.00  0.00    -0.196 N 
ATOM      2  H   LIG    1       28.276 -21.705   8.934  0.00  0.00    +0.175 HD
ENDROOT
BRANCH   1   5
ATOM      3  C   LIG    1       30.670 -19.226   7.252  0.00  0.00    +0.263 A 
ATOM      4  C   LIG    1       30.033 -20.238   7.960  0.00  0.00    +0.223 A 
ATOM      5  C   LIG    1       28.828 -20.634   7.391  0.00  0.00    +0.187 A 
ATOM      6  N   LIG    1       28.278 -20.105   6.285  0.00  0.00    -0.215 NA
ATOM      7  C   LIG    1       28.995 -19.138   5.701  0.00  0.00    +0.227 A 
ATOM      8  N   LIG    1       30.172 -18.666   6.127  0.00  0.00    -0.198 NA
BRANCH   3  10
ATOM      9  C   LIG    1       31.774 -17.737   8.725  0.00  0.00    +0.279 C 
ATOM     10  O   LIG    1       31.873 -18.737   7.718  0.00  0.00    -0.477 OA
ENDBRANCH   3  10
BRANCH   4  11
ATOM     11  O   LIG    1       30.395 -20.829   9.135  0.00  0.00    -0.487 OA
ATOM     12  C   LIG    1       31.315 -21.914   9.087  0.00  0.00    +0.277 C 
ENDBRANCH   4  11
ENDBRANCH   1   5
BRANCH   1  13
ATOM     13  S   LIG    1       26.348 -21.223   8.005  0.00  0.00    +0.074 S 
ATOM     14  O   LIG    1       26.108 -20.078   7.150  0.00  0.00    -0.150 OA
ATOM     15  O   LIG    1       25.958 -21.217   9.396  0.00  0.00    -0.150 OA
BRANCH  13  16
ATOM     16  C   LIG    1       25.540 -22.629   7.248  0.00  0.00    +0.109 A 
ATOM     17  C   LIG    1       26.302 -23.729   6.838  0.00  0.00    +0.030 A 
ATOM     18  C   LIG    1       25.666 -24.858   6.304  0.00  0.00    +0.024 A 
ATOM     19  C   LIG    1       24.271 -24.936   6.250  0.00  0.00    +0.025 A 
ATOM     20  C   LIG    1       23.524 -23.815   6.628  0.00  0.00    +0.024 A 
ATOM     21  C   LIG    1       24.147 -22.675   7.154  0.00  0.00    +0.030 A 
BRANCH  19  22
ATOM     22  N   LIG    1       23.650 -26.023   5.621  0.00  0.00    -0.358 N 
ATOM     23  H   LIG    1       24.259 -26.828   5.502  0.00  0.00    +0.142 HD
ATOM     24  H   LIG    1       22.761 -26.283   6.040  0.00  0.00    +0.142 HD
ENDBRANCH  19  22
ENDBRANCH  13  16
ENDBRANCH   1  13
TORSDOF 6
ENDMDL
MODEL 4
REMARK VINA RESULT:      -7.4      2.168      2.902
REMARK  Name = *****
REMARK                            x       y       z     vdW  Elec       q    Type
REMARK                         _______ _______ _______ _____ _____    ______ ____
ROOT
ATOM      1  N   LIG    1       28.220 -21.524   6.906  0.00  0.00    -0.196 N 
ATOM      2  H   LIG    1       28.408 -22.527   6.959  0.00  0.00    +0.175 HD
ENDROOT
BRANCH   1   5
ATOM      3  C   LIG    1       30.758 -19.219   8.255  0.00  0.00    +0.263 A 
ATOM      4  C   LIG    1       29.668 -19.585   7.475  0.00  0.00    +0.223 A 
ATOM      5  C   LIG    1       29.309 -20.920   7.622  0.00  0.00    +0.187 A 
ATOM      6  N   LIG    1       29.936 -21.813   8.406  0.00  0.00    -0.215 NA
ATOM      7  C   LIG    1       30.970 -21.329   9.103  0.00  0.00    +0.227 A 
ATOM      8  N   LIG    1       31.419 -20.069   9.072  0.00  0.00    -0.198 NA
BRANCH   3  10
ATOM      9  C   LIG    1       31.866 -17.449   9.371  0.00  0.00    +0.279 C 
ATOM     10  O   LIG    1       31.220 -17.920   8.194  0.00  0.00    -0.477 OA
ENDBRANCH   3  10
BRANCH   4  11
ATOM     11  O   LIG    1       28.968 -18.844   6.567  0.00  0.00    -0.487 OA
ATOM     12  C   LIG    1       29.574 -18.576   5.308  0.00  0.00    +0.277 C 
ENDBRANCH   4  11
ENDBRANCH   1   5
BRANCH   1  13
ATOM     13  S   LIG    1       26.719 -21.324   7.677  0.00  0.00    +0.074 S 
ATOM     14  O   LIG    1       26.040 -20.158   7.149  0.00  0.00    -0.150 OA
ATOM     15  O   LIG    1       26.950 -21.482   9.093  0.00  0.00    -0.150 OA
BRANCH  13  16
ATOM     16  C   LIG    1       25.799 -22.762   7.139  0.00  0.00    +0.109 A 
ATOM     17  C   LIG    1       24.403 -22.703   7.058  0.00  0.00    +0.030 A 
ATOM     18  C   LIG    1       23.684 -23.805   6.575  0.00  0.00    +0.024 A 
ATOM     19  C   LIG    1       24.348 -24.939   6.095  0.00  0.00    +0.025 A 
ATOM     20  C   LIG    1       25.740 -24.999   6.216  0.00  0.00    +0.024 A 
ATOM     21  C   LIG    1       26.471 -23.908   6.707  0.00  0.00    +0.030 A 
BRANCH  19  22
ATOM     22  N   LIG    1       23.620 -26.072   5.713  0.00  0.00    -0.358 N 
ATOM     23  H   LIG    1       23.911 -26.463   4.821  0.00  0.00    +0.142 HD
ATOM     24  H   LIG    1       23.564 -26.784   6.435  0.00  0.00    +0.142 HD
ENDBRANCH  19  22
ENDBRANCH  13  16
ENDBRANCH   1  13
TORSDOF 6
ENDMDL
MODEL 5
REMARK VINA RESULT:      -6.8      6.747      8.901
REMARK  Name = *****
REMARK                            x       y       z     vdW  Elec       q    Type
REMARK                         _______ _______ _______ _____ _____    ______ ____
ROOT
ATOM      1  N   LIG    1       24.488 -27.707   6.503  0.00  0.00    -0.196 N 
ATOM      2  H   LIG    1       24.412 -27.451   7.489  0.00  0.00    +0.175 HD
ENDROOT
BRANCH   1   5
ATOM      3  C   LIG    1       25.857 -30.989   7.466  0.00  0.00    +0.263 A 
ATOM      4  C   LIG    1       25.379 -29.702   7.687  0.00  0.00    +0.223 A 
ATOM      5  C   LIG    1       24.999 -29.048   6.521  0.00  0.00    +0.187 A 
ATOM      6  N   LIG    1       25.089 -29.555   5.279  0.00  0.00    -0.215 NA
ATOM      7  C   LIG    1       25.566 -30.802   5.208  0.00  0.00    +0.227 A 
ATOM      8  N   LIG    1       25.957 -31.555   6.243  0.00  0.00    -0.198 NA
BRANCH   3  10
ATOM      9  C   LIG    1       27.017 -32.912   8.216  0.00  0.00    +0.279 C 
ATOM     10  O   LIG    1       26.276 -31.743   8.544  0.00  0.00    -0.477 OA
ENDBRANCH   3  10
BRANCH   4  11
ATOM     11  O   LIG    1       25.298 -29.001   8.855  0.00  0.00    -0.487 OA
ATOM     12  C   LIG    1       26.505 -28.531   9.442  0.00  0.00    +0.277 C 
ENDBRANCH   4  11
ENDBRANCH   1   5
BRANCH   1  13
ATOM     13  S   LIG    1       25.580 -26.582   5.848  0.00  0.00    +0.074 S 
ATOM     14  O   LIG    1       25.456 -26.551   4.404  0.00  0.00    -0.150 OA
ATOM     15  O   LIG    1       26.854 -26.813   6.488  0.00  0.00    -0.150 OA
BRANCH  13  16
ATOM     16  C   LIG    1       24.965 -25.019   6.467  0.00  0.00    +0.109 A 
ATOM     17  C   LIG    1       25.865 -24.057   6.939  0.00  0.00    +0.030 A 
ATOM     18  C   LIG    1       25.391 -22.808   7.364  0.00  0.00    +0.024 A 
ATOM     19  C   LIG    1       24.038 -22.477   7.247  0.00  0.00    +0.025 A 
ATOM     20  C   LIG    1       23.145 -23.460   6.807  0.00  0.00    +0.024 A 
ATOM     21  C   LIG    1       23.603 -24.718   6.390  0.00  0.00    +0.030 A 
BRANCH  19  22
ATOM     22  N   LIG    1       23.561 -21.268   7.769  0.00  0.00    -0.358 N 
ATOM     23  H   LIG    1       24.026 -20.448   7.389  0.00  0.00    +0.142 HD
ATOM     24  H   LIG    1       22.550 -21.178   7.730  0.00  0.00    +0.142 HD
ENDBRANCH  19  22
ENDBRANCH  13  16
ENDBRANCH   1  13
TORSDOF 6
ENDMDL
MODEL 6
REMARK VINA RESULT:      -6.8      2.570      7.186
REMARK  Name = *****
REMARK                            x       y       z     vdW  Elec       q    Type
REMARK                         _______ _______ _______ _____ _____    ______ ____
ROOT
ATOM      1  N   LIG    1       27.993 -19.483   7.834  0.00  0.00    -0.196 N 
ATOM      2  H   LIG    1       27.861 -19.162   8.795  0.00  0.00    +0.175 HD
ENDROOT
BRANCH   1   5
ATOM      3  C   LIG    1       25.676 -22.047   6.557  0.00  0.00    +0.263 A 
ATOM      4  C   LIG    1       26.579 -20.994   6.459  0.00  0.00    +0.223 A 
ATOM      5  C   LIG    1       27.060 -20.565   7.690  0.00  0.00    +0.187 A 
ATOM      6  N   LIG    1       26.701 -21.066   8.884  0.00  0.00    -0.215 NA
ATOM      7  C   LIG    1       25.826 -22.076   8.836  0.00  0.00    +0.227 A 
ATOM      8  N   LIG    1       25.290 -22.600   7.728  0.00  0.00    -0.198 NA
BRANCH   3  10
ATOM      9  C   LIG    1       24.950 -23.974   5.389  0.00  0.00    +0.279 C 
ATOM     10  O   LIG    1       25.118 -22.561   5.405  0.00  0.00    -0.477 OA
ENDBRANCH   3  10
BRANCH   4  11
ATOM     11  O   LIG    1       26.990 -20.311   5.351  0.00  0.00    -0.487 OA
ATOM     12  C   LIG    1       26.000 -19.697   4.534  0.00  0.00    +0.277 C 
ENDBRANCH   4  11
ENDBRANCH   1   5
BRANCH   1  13
ATOM     13  S   LIG    1       29.616 -19.983   7.764  0.00  0.00    +0.074 S 
ATOM     14  O   LIG    1       30.114 -19.868   6.408  0.00  0.00    -0.150 OA
ATOM     15  O   LIG    1       29.702 -21.226   8.493  0.00  0.00    -0.150 OA
BRANCH  13  16
ATOM     16  C   LIG    1       30.458 -18.747   8.746  0.00  0.00    +0.109 A 
ATOM     17  C   LIG    1       31.738 -18.318   8.374  0.00  0.00    +0.030 A 
ATOM     18  C   LIG    1       32.373 -17.304   9.103  0.00  0.00    +0.024 A 
ATOM     19  C   LIG    1       31.714 -16.654  10.150  0.00  0.00    +0.025 A 
ATOM     20  C   LIG    1       30.451 -17.117  10.535  0.00  0.00    +0.024 A 
ATOM     21  C   LIG    1       29.808 -18.138   9.822  0.00  0.00    +0.030 A 
BRANCH  19  22
ATOM     22  N   LIG    1       32.395 -15.715  10.936  0.00  0.00    -0.358 N 
ATOM     23  H   LIG    1       33.175 -15.273  10.459  0.00  0.00    +0.142 HD
ATOM     24  H   LIG    1       31.785 -15.030  11.374  0.00  0.00    +0.142 HD
ENDBRANCH  19  22
ENDBRANCH  13  16
ENDBRANCH   1  13
TORSDOF 6
ENDMDL
MODEL 7
REMARK VINA RESULT:      -6.6      5.286      7.339
REMARK  Name = *****
REMARK                            x       y       z     vdW  Elec       q    Type
REMARK                         _______ _______ _______ _____ _____    ______ ____
ROOT
ATOM      1  N   LIG    1       25.649 -25.148   7.080  0.00  0.00    -0.196 N 
ATOM      2  H   LIG    1       25.147 -25.704   7.774  0.00  0.00    +0.175 HD
ENDROOT
BRANCH   1   5
ATOM      3  C   LIG    1       24.170 -21.866   6.297  0.00  0.00    +0.263 A 
ATOM      4  C   LIG    1       25.202 -22.762   6.544  0.00  0.00    +0.223 A 
ATOM      5  C   LIG    1       24.761 -24.057   6.788  0.00  0.00    +0.187 A 
ATOM      6  N   LIG    1       23.476 -24.450   6.818  0.00  0.00    -0.215 NA
ATOM      7  C   LIG    1       22.583 -23.488   6.563  0.00  0.00    +0.227 A 
ATOM      8  N   LIG    1       22.862 -22.206   6.300  0.00  0.00    -0.198 NA
BRANCH   3  10
ATOM      9  C   LIG    1       24.793 -20.238   4.695  0.00  0.00    +0.279 C 
ATOM     10  O   LIG    1       24.475 -20.543   6.048  0.00  0.00    -0.477 OA
ENDBRANCH   3  10
BRANCH   4  11
ATOM     11  O   LIG    1       26.544 -22.528   6.638  0.00  0.00    -0.487 OA
ATOM     12  C   LIG    1       27.033 -21.875   7.803  0.00  0.00    +0.277 C 
ENDBRANCH   4  11
ENDBRANCH   1   5
BRANCH   1  13
ATOM     13  S   LIG    1       25.873 -26.200   5.764  0.00  0.00    +0.074 S 
ATOM     14  O   LIG    1       27.288 -26.391   5.515  0.00  0.00    -0.150 OA
ATOM     15  O   LIG    1       24.979 -25.760   4.719  0.00  0.00    -0.150 OA
BRANCH  13  16
ATOM     16  C   LIG    1       25.228 -27.752   6.378  0.00  0.00    +0.109 A 
ATOM     17  C   LIG    1       24.461 -28.567   5.537  0.00  0.00    +0.030 A 
ATOM     18  C   LIG    1       24.009 -29.812   5.994  0.00  0.00    +0.024 A 
ATOM     19  C   LIG    1       24.383 -30.292   7.253  0.00  0.00    +0.025 A 
ATOM     20  C   LIG    1       25.119 -29.453   8.097  0.00  0.00    +0.024 A 
ATOM     21  C   LIG    1       25.568 -28.200   7.657  0.00  0.00    +0.030 A 
BRANCH  19  22
ATOM     22  N   LIG    1       23.843 -31.489   7.739  0.00  0.00    -0.358 N 
ATOM     23  H   LIG    1       24.449 -31.974   8.395  0.00  0.00    +0.142 HD
ATOM     24  H   LIG    1       22.898 -31.393   8.102  0.00  0.00    +0.142 HD
ENDBRANCH  19  22
ENDBRANCH  13  16
ENDBRANCH   1  13
TORSDOF 6
ENDMDL
MODEL 8
REMARK VINA RESULT:      -6.5      2.244      6.889
REMARK  Name = *****
REMARK                            x       y       z     vdW  Elec       q    Type
REMARK                         _______ _______ _______ _____ _____    ______ ____
ROOT
ATOM      1  N   LIG    1       26.031 -21.935   6.093  0.00  0.00    -0.196 N 
ATOM      2  H   LIG    1       26.689 -21.419   5.506  0.00  0.00    +0.175 HD
ENDROOT
BRANCH   1   5
ATOM      3  C   LIG    1       23.220 -20.072   4.608  0.00  0.00    +0.263 A 
ATOM      4  C   LIG    1       24.555 -20.339   4.887  0.00  0.00    +0.223 A 
ATOM      5  C   LIG    1       24.738 -21.473   5.669  0.00  0.00    +0.187 A 
ATOM      6  N   LIG    1       23.756 -22.253   6.153  0.00  0.00    -0.215 NA
ATOM      7  C   LIG    1       22.518 -21.884   5.809  0.00  0.00    +0.227 A 
ATOM      8  N   LIG    1       22.192 -20.828   5.055  0.00  0.00    -0.198 NA
BRANCH   3  10
ATOM      9  C   LIG    1       22.100 -17.989   4.499  0.00  0.00    +0.279 C 
ATOM     10  O   LIG    1       22.901 -18.967   3.846  0.00  0.00    -0.477 OA
ENDBRANCH   3  10
BRANCH   4  11
ATOM     11  O   LIG    1       25.666 -19.618   4.557  0.00  0.00    -0.487 OA
ATOM     12  C   LIG    1       25.592 -18.744   3.436  0.00  0.00    +0.277 C 
ENDBRANCH   4  11
ENDBRANCH   1   5
BRANCH   1  13
ATOM     13  S   LIG    1       26.418 -21.477   7.683  0.00  0.00    +0.074 S 
ATOM     14  O   LIG    1       26.482 -22.647   8.536  0.00  0.00    -0.150 OA
ATOM     15  O   LIG    1       25.574 -20.352   8.012  0.00  0.00    -0.150 OA
BRANCH  13  16
ATOM     16  C   LIG    1       28.084 -20.845   7.523  0.00  0.00    +0.109 A 
ATOM     17  C   LIG    1       28.341 -19.774   6.660  0.00  0.00    +0.030 A 
ATOM     18  C   LIG    1       29.632 -19.235   6.581  0.00  0.00    +0.024 A 
ATOM     19  C   LIG    1       30.654 -19.699   7.415  0.00  0.00    +0.025 A 
ATOM     20  C   LIG    1       30.393 -20.793   8.246  0.00  0.00    +0.024 A 
ATOM     21  C   LIG    1       29.109 -21.350   8.327  0.00  0.00    +0.030 A 
BRANCH  19  22
ATOM     22  N   LIG    1       31.963 -19.225   7.256  0.00  0.00    -0.358 N 
ATOM     23  H   LIG    1       32.184 -18.948   6.304  0.00  0.00    +0.142 HD
ATOM     24  H   LIG    1       32.220 -18.505   7.926  0.00  0.00    +0.142 HD
ENDBRANCH  19  22
ENDBRANCH  13  16
ENDBRANCH   1  13
TORSDOF 6
ENDMDL
MODEL 9
REMARK VINA RESULT:      -6.3      2.317      6.677
REMARK  Name = *****
REMARK                            x       y       z     vdW  Elec       q    Type
REMARK                         _______ _______ _______ _____ _____    ______ ____
ROOT
ATOM      1  N   LIG    1       25.954 -22.012   6.422  0.00  0.00    -0.196 N 
ATOM      2  H   LIG    1       26.849 -22.120   5.943  0.00  0.00    +0.175 HD
ENDROOT
BRANCH   1   5
ATOM      3  C   LIG    1       23.357 -19.932   4.839  0.00  0.00    +0.263 A 
ATOM      4  C   LIG    1       23.858 -20.859   5.745  0.00  0.00    +0.223 A 
ATOM      5  C   LIG    1       25.222 -21.086   5.604  0.00  0.00    +0.187 A 
ATOM      6  N   LIG    1       26.016 -20.512   4.683  0.00  0.00    -0.215 NA
ATOM      7  C   LIG    1       25.407 -19.639   3.874  0.00  0.00    +0.227 A 
ATOM      8  N   LIG    1       24.110 -19.313   3.903  0.00  0.00    -0.198 NA
BRANCH   3  10
ATOM      9  C   LIG    1       21.654 -18.404   4.230  0.00  0.00    +0.279 C 
ATOM     10  O   LIG    1       22.013 -19.623   4.870  0.00  0.00    -0.477 OA
ENDBRANCH   3  10
BRANCH   4  11
ATOM     11  O   LIG    1       23.193 -21.597   6.682  0.00  0.00    -0.487 OA
ATOM     12  C   LIG    1       22.850 -22.940   6.360  0.00  0.00    +0.277 C 
ENDBRANCH   4  11
ENDBRANCH   1   5
BRANCH   1  13
ATOM     13  S   LIG    1       26.353 -21.386   7.950  0.00  0.00    +0.074 S 
ATOM     14  O   LIG    1       26.400 -22.453   8.929  0.00  0.00    -0.150 OA
ATOM     15  O   LIG    1       25.530 -20.217   8.152  0.00  0.00    -0.150 OA
BRANCH  13  16
ATOM     16  C   LIG    1       28.030 -20.804   7.719  0.00  0.00    +0.109 A 
ATOM     17  C   LIG    1       28.263 -19.628   6.996  0.00  0.00    +0.030 A 
ATOM     18  C   LIG    1       29.569 -19.136   6.868  0.00  0.00    +0.024 A 
ATOM     19  C   LIG    1       30.637 -19.757   7.522  0.00  0.00    +0.025 A 
ATOM     20  C   LIG    1       30.395 -20.951   8.211  0.00  0.00    +0.024 A 
ATOM     21  C   LIG    1       29.095 -21.462   8.338  0.00  0.00    +0.030 A 
BRANCH  19  22
ATOM     22  N   LIG    1       31.949 -19.317   7.305  0.00  0.00    -0.358 N 
ATOM     23  H   LIG    1       32.294 -19.510   6.369  0.00  0.00    +0.142 HD
ATOM     24  H   LIG    1       32.104 -18.349   7.570  0.00  0.00    +0.142 HD
ENDBRANCH  19  22
ENDBRANCH  13  16
ENDBRANCH   1  13
TORSDOF 6
ENDMDL
