MODEL 1
REMARK VINA RESULT:      -3.4      0.000      0.000
REMARK  Name = *****
REMARK                            x       y       z     vdW  Elec       q    Type
REMARK                         _______ _______ _______ _____ _____    ______ ____
ROOT
ATOM      1  O   LIG    1       23.216 -15.524   3.847  0.00  0.00    -0.459 OA
ENDROOT
BRANCH   1   7
ATOM      2  C   LIG    1       27.239 -12.109   2.861  0.00  0.00    +0.192 C 
ATOM      3  N   LIG    1       26.524 -13.255   3.601  0.00  0.00    +0.243 N 
ATOM      4  C   LIG    1       27.526 -13.735   4.652  0.00  0.00    +0.192 C 
ATOM      5  C   LIG    1       26.063 -14.331   2.605  0.00  0.00    +0.070 C 
ATOM      6  C   LIG    1       25.625 -15.581   3.368  0.00  0.00    +0.099 C 
ATOM      7  C   LIG    1       24.530 -15.326   4.422  0.00  0.00    +0.187 C 
ATOM      8  C   LIG    1       24.580 -13.920   5.067  0.00  0.00    +0.099 C 
ATOM      9  C   LIG    1       24.870 -13.672   1.895  0.00  0.00    +0.060 C 
ATOM     10  C   LIG    1       24.292 -12.673   2.898  0.00  0.00    +0.060 C 
ATOM     11  C   LIG    1       25.155 -12.819   4.157  0.00  0.00    +0.070 C 
ENDBRANCH   1   7
BRANCH   1  12
ATOM     12  C   LIG    1       22.409 -16.408   4.522  0.00  0.00    +0.341 C 
ATOM     13  O   LIG    1       21.887 -16.171   5.606  0.00  0.00    -0.247 OA
BRANCH  12  14
ATOM     14  C   LIG    1       22.241 -17.731   3.767  0.00  0.00    +0.253 C 
BRANCH  14  15
ATOM     15  C   LIG    1       23.126 -18.828   4.322  0.00  0.00    -0.008 A 
ATOM     16  C   LIG    1       24.413 -19.075   3.809  0.00  0.00    +0.007 A 
ATOM     17  C   LIG    1       25.218 -20.071   4.362  0.00  0.00    +0.000 A 
ATOM     18  C   LIG    1       24.756 -20.843   5.422  0.00  0.00    +0.000 A 
ATOM     19  C   LIG    1       23.482 -20.610   5.944  0.00  0.00    +0.000 A 
ATOM     20  C   LIG    1       22.674 -19.610   5.399  0.00  0.00    +0.007 A 
ENDBRANCH  14  15
BRANCH  14  21
ATOM     21  O   LIG    1       20.887 -18.173   3.803  0.00  0.00    -0.376 OA
ATOM     22  H   LIG    1       20.727 -18.550   4.686  0.00  0.00    +0.211 HD
ENDBRANCH  14  21
ENDBRANCH  12  14
ENDBRANCH   1  12
TORSDOF 5
ENDMDL
MODEL 2
REMARK VINA RESULT:      -2.8      0.804      1.849
REMARK  Name = *****
REMARK                            x       y       z     vdW  Elec       q    Type
REMARK                         _______ _______ _______ _____ _____    ______ ____
ROOT
ATOM      1  O   LIG    1       24.094 -15.914   4.339  0.00  0.00    -0.459 OA
ENDROOT
BRANCH   1   7
ATOM      2  C   LIG    1       28.041 -12.446   3.240  0.00  0.00    +0.192 C 
ATOM      3  N   LIG    1       26.591 -12.964   3.237  0.00  0.00    +0.243 N 
ATOM      4  C   LIG    1       25.777 -11.862   2.557  0.00  0.00    +0.192 C 
ATOM      5  C   LIG    1       26.144 -13.314   4.666  0.00  0.00    +0.070 C 
ATOM      6  C   LIG    1       24.633 -13.543   4.688  0.00  0.00    +0.099 C 
ATOM      7  C   LIG    1       24.142 -14.617   3.697  0.00  0.00    +0.187 C 
ATOM      8  C   LIG    1       24.993 -14.734   2.410  0.00  0.00    +0.099 C 
ATOM      9  C   LIG    1       26.903 -14.615   4.968  0.00  0.00    +0.060 C 
ATOM     10  C   LIG    1       27.138 -15.282   3.612  0.00  0.00    +0.060 C 
ATOM     11  C   LIG    1       26.475 -14.356   2.586  0.00  0.00    +0.070 C 
ENDBRANCH   1   7
BRANCH   1  12
ATOM     12  C   LIG    1       22.832 -16.387   4.609  0.00  0.00    +0.341 C 
ATOM     13  O   LIG    1       22.049 -15.851   5.385  0.00  0.00    -0.247 OA
BRANCH  12  14
ATOM     14  C   LIG    1       22.516 -17.668   3.830  0.00  0.00    +0.253 C 
BRANCH  14  15
ATOM     15  C   LIG    1       23.257 -18.872   4.375  0.00  0.00    -0.008 A 
ATOM     16  C   LIG    1       24.487 -19.293   3.838  0.00  0.00    +0.007 A 
ATOM     17  C   LIG    1       25.162 -20.387   4.382  0.00  0.00    +0.000 A 
ATOM     18  C   LIG    1       24.623 -21.083   5.458  0.00  0.00    +0.000 A 
ATOM     19  C   LIG    1       23.402 -20.677   6.004  0.00  0.00    +0.000 A 
ATOM     20  C   LIG    1       22.726 -19.580   5.467  0.00  0.00    +0.007 A 
ENDBRANCH  14  15
BRANCH  14  21
ATOM     21  O   LIG    1       21.118 -17.945   3.844  0.00  0.00    -0.376 OA
ATOM     22  H   LIG    1       20.844 -18.105   2.924  0.00  0.00    +0.211 HD
ENDBRANCH  14  21
ENDBRANCH  12  14
ENDBRANCH   1  12
TORSDOF 5
ENDMDL
MODEL 3
REMARK VINA RESULT:      -2.3      2.700      4.049
REMARK  Name = *****
REMARK                            x       y       z     vdW  Elec       q    Type
REMARK                         _______ _______ _______ _____ _____    ______ ____
ROOT
ATOM      1  O   LIG    1       27.263 -16.088   3.633  0.00  0.00    -0.459 OA
ENDROOT
BRANCH   1   7
ATOM      2  C   LIG    1       24.529 -11.513   4.269  0.00  0.00    +0.192 C 
ATOM      3  N   LIG    1       24.894 -12.842   3.583  0.00  0.00    +0.243 N 
ATOM      4  C   LIG    1       23.903 -12.977   2.426  0.00  0.00    +0.192 C 
ATOM      5  C   LIG    1       24.864 -13.995   4.600  0.00  0.00    +0.070 C 
ATOM      6  C   LIG    1       24.937 -15.331   3.862  0.00  0.00    +0.099 C 
ATOM      7  C   LIG    1       26.157 -15.473   2.930  0.00  0.00    +0.187 C 
ATOM      8  C   LIG    1       26.645 -14.141   2.312  0.00  0.00    +0.099 C 
ATOM      9  C   LIG    1       26.129 -13.761   5.442  0.00  0.00    +0.060 C 
ATOM     10  C   LIG    1       27.107 -13.026   4.523  0.00  0.00    +0.060 C 
ATOM     11  C   LIG    1       26.380 -12.897   3.179  0.00  0.00    +0.070 C 
ENDBRANCH   1   7
BRANCH   1  12
ATOM     12  C   LIG    1       27.169 -17.450   3.793  0.00  0.00    +0.341 C 
ATOM     13  O   LIG    1       26.441 -18.172   3.121  0.00  0.00    -0.247 OA
BRANCH  12  14
ATOM     14  C   LIG    1       28.076 -17.964   4.916  0.00  0.00    +0.253 C 
BRANCH  14  15
ATOM     15  C   LIG    1       27.550 -19.239   5.544  0.00  0.00    -0.008 A 
ATOM     16  C   LIG    1       28.321 -19.995   6.447  0.00  0.00    +0.007 A 
ATOM     17  C   LIG    1       27.798 -21.147   7.035  0.00  0.00    +0.000 A 
ATOM     18  C   LIG    1       26.510 -21.572   6.728  0.00  0.00    +0.000 A 
ATOM     19  C   LIG    1       25.731 -20.832   5.835  0.00  0.00    +0.000 A 
ATOM     20  C   LIG    1       26.248 -19.675   5.249  0.00  0.00    +0.007 A 
ENDBRANCH  14  15
BRANCH  14  21
ATOM     21  O   LIG    1       29.398 -18.200   4.440  0.00  0.00    -0.376 OA
ATOM     22  H   LIG    1       29.948 -17.448   4.722  0.00  0.00    +0.211 HD
ENDBRANCH  14  21
ENDBRANCH  12  14
ENDBRANCH   1  12
TORSDOF 5
ENDMDL
MODEL 4
REMARK VINA RESULT:      -2.2      1.926      2.944
REMARK  Name = *****
REMARK                            x       y       z     vdW  Elec       q    Type
REMARK                         _______ _______ _______ _____ _____    ______ ____
ROOT
ATOM      1  O   LIG    1       25.706 -16.493   3.389  0.00  0.00    -0.459 OA
ENDROOT
BRANCH   1   7
ATOM      2  C   LIG    1       23.901 -11.457   3.825  0.00  0.00    +0.192 C 
ATOM      3  N   LIG    1       24.940 -12.550   3.516  0.00  0.00    +0.243 N 
ATOM      4  C   LIG    1       26.173 -11.795   3.017  0.00  0.00    +0.192 C 
ATOM      5  C   LIG    1       24.362 -13.575   2.526  0.00  0.00    +0.070 C 
ATOM      6  C   LIG    1       25.482 -14.474   2.007  0.00  0.00    +0.099 C 
ATOM      7  C   LIG    1       26.280 -15.193   3.113  0.00  0.00    +0.187 C 
ATOM      8  C   LIG    1       26.379 -14.405   4.442  0.00  0.00    +0.099 C 
ATOM      9  C   LIG    1       23.365 -14.373   3.381  0.00  0.00    +0.060 C 
ATOM     10  C   LIG    1       23.891 -14.289   4.815  0.00  0.00    +0.060 C 
ATOM     11  C   LIG    1       25.186 -13.474   4.724  0.00  0.00    +0.070 C 
ENDBRANCH   1   7
BRANCH   1  12
ATOM     12  C   LIG    1       26.613 -17.480   3.696  0.00  0.00    +0.341 C 
ATOM     13  O   LIG    1       27.714 -17.270   4.191  0.00  0.00    -0.247 OA
BRANCH  12  14
ATOM     14  C   LIG    1       26.090 -18.876   3.343  0.00  0.00    +0.253 C 
BRANCH  14  15
ATOM     15  C   LIG    1       24.915 -19.288   4.206  0.00  0.00    -0.008 A 
ATOM     16  C   LIG    1       23.610 -18.824   3.954  0.00  0.00    +0.007 A 
ATOM     17  C   LIG    1       22.542 -19.247   4.746  0.00  0.00    +0.000 A 
ATOM     18  C   LIG    1       22.753 -20.124   5.804  0.00  0.00    +0.000 A 
ATOM     19  C   LIG    1       24.042 -20.594   6.067  0.00  0.00    +0.000 A 
ATOM     20  C   LIG    1       25.114 -20.179   5.273  0.00  0.00    +0.007 A 
ENDBRANCH  14  15
BRANCH  14  21
ATOM     21  O   LIG    1       25.699 -18.945   1.974  0.00  0.00    -0.376 OA
ATOM     22  H   LIG    1       24.831 -18.511   1.897  0.00  0.00    +0.211 HD
ENDBRANCH  14  21
ENDBRANCH  12  14
ENDBRANCH   1  12
TORSDOF 5
ENDMDL
MODEL 5
REMARK VINA RESULT:      -2.2      2.022      3.300
REMARK  Name = *****
REMARK                            x       y       z     vdW  Elec       q    Type
REMARK                         _______ _______ _______ _____ _____    ______ ____
ROOT
ATOM      1  O   LIG    1       26.344 -16.680   3.656  0.00  0.00    -0.459 OA
ENDROOT
BRANCH   1   7
ATOM      2  C   LIG    1       25.086 -11.531   4.502  0.00  0.00    +0.192 C 
ATOM      3  N   LIG    1       25.031 -12.884   3.768  0.00  0.00    +0.243 N 
ATOM      4  C   LIG    1       24.022 -12.681   2.637  0.00  0.00    +0.192 C 
ATOM      5  C   LIG    1       24.684 -14.013   4.752  0.00  0.00    +0.070 C 
ATOM      6  C   LIG    1       24.347 -15.285   3.974  0.00  0.00    +0.099 C 
ATOM      7  C   LIG    1       25.454 -15.744   3.004  0.00  0.00    +0.187 C 
ATOM      8  C   LIG    1       26.299 -14.591   2.409  0.00  0.00    +0.099 C 
ATOM      9  C   LIG    1       25.977 -14.190   5.563  0.00  0.00    +0.060 C 
ATOM     10  C   LIG    1       27.110 -13.741   4.638  0.00  0.00    +0.060 C 
ATOM     11  C   LIG    1       26.427 -13.356   3.320  0.00  0.00    +0.070 C 
ENDBRANCH   1   7
BRANCH   1  12
ATOM     12  C   LIG    1       26.110 -18.005   3.371  0.00  0.00    +0.341 C 
ATOM     13  O   LIG    1       25.952 -18.445   2.238  0.00  0.00    -0.247 OA
BRANCH  12  14
ATOM     14  C   LIG    1       26.063 -18.869   4.635  0.00  0.00    +0.253 C 
BRANCH  14  15
ATOM     15  C   LIG    1       24.738 -19.585   4.795  0.00  0.00    -0.008 A 
ATOM     16  C   LIG    1       24.652 -20.872   5.360  0.00  0.00    +0.007 A 
ATOM     17  C   LIG    1       23.414 -21.493   5.525  0.00  0.00    +0.000 A 
ATOM     18  C   LIG    1       22.246 -20.854   5.123  0.00  0.00    +0.000 A 
ATOM     19  C   LIG    1       22.314 -19.576   4.562  0.00  0.00    +0.000 A 
ATOM     20  C   LIG    1       23.550 -18.948   4.400  0.00  0.00    +0.007 A 
ENDBRANCH  14  15
BRANCH  14  21
ATOM     21  O   LIG    1       27.109 -19.837   4.633  0.00  0.00    -0.376 OA
ATOM     22  H   LIG    1       27.515 -19.829   5.518  0.00  0.00    +0.211 HD
ENDBRANCH  14  21
ENDBRANCH  12  14
ENDBRANCH   1  12
TORSDOF 5
ENDMDL
MODEL 6
REMARK VINA RESULT:      -2.0      2.148      3.282
REMARK  Name = *****
REMARK                            x       y       z     vdW  Elec       q    Type
REMARK                         _______ _______ _______ _____ _____    ______ ____
ROOT
ATOM      1  O   LIG    1       25.857 -16.426   3.780  0.00  0.00    -0.459 OA
ENDROOT
BRANCH   1   7
ATOM      2  C   LIG    1       23.856 -11.447   3.662  0.00  0.00    +0.192 C 
ATOM      3  N   LIG    1       24.918 -12.535   3.421  0.00  0.00    +0.243 N 
ATOM      4  C   LIG    1       26.071 -11.816   2.719  0.00  0.00    +0.192 C 
ATOM      5  C   LIG    1       24.312 -13.711   2.636  0.00  0.00    +0.070 C 
ATOM      6  C   LIG    1       25.430 -14.634   2.154  0.00  0.00    +0.099 C 
ATOM      7  C   LIG    1       26.345 -15.159   3.279  0.00  0.00    +0.187 C 
ATOM      8  C   LIG    1       26.512 -14.186   4.471  0.00  0.00    +0.099 C 
ATOM      9  C   LIG    1       23.425 -14.414   3.676  0.00  0.00    +0.060 C 
ATOM     10  C   LIG    1       24.058 -14.107   5.034  0.00  0.00    +0.060 C 
ATOM     11  C   LIG    1       25.302 -13.267   4.721  0.00  0.00    +0.070 C 
ENDBRANCH   1   7
BRANCH   1  12
ATOM     12  C   LIG    1       26.797 -17.427   3.854  0.00  0.00    +0.341 C 
ATOM     13  O   LIG    1       27.988 -17.236   4.068  0.00  0.00    -0.247 OA
BRANCH  12  14
ATOM     14  C   LIG    1       26.183 -18.813   3.630  0.00  0.00    +0.253 C 
BRANCH  14  15
ATOM     15  C   LIG    1       26.329 -19.711   4.841  0.00  0.00    -0.008 A 
ATOM     16  C   LIG    1       25.244 -20.448   5.354  0.00  0.00    +0.007 A 
ATOM     17  C   LIG    1       25.417 -21.292   6.452  0.00  0.00    +0.000 A 
ATOM     18  C   LIG    1       26.661 -21.409   7.062  0.00  0.00    +0.000 A 
ATOM     19  C   LIG    1       27.747 -20.685   6.565  0.00  0.00    +0.000 A 
ATOM     20  C   LIG    1       27.582 -19.844   5.463  0.00  0.00    +0.007 A 
ENDBRANCH  14  15
BRANCH  14  21
ATOM     21  O   LIG    1       24.801 -18.714   3.297  0.00  0.00    -0.376 OA
ATOM     22  H   LIG    1       24.704 -18.991   2.369  0.00  0.00    +0.211 HD
ENDBRANCH  14  21
ENDBRANCH  12  14
ENDBRANCH   1  12
TORSDOF 5
ENDMDL
MODEL 7
REMARK VINA RESULT:      -1.5      1.302      2.488
REMARK  Name = *****
REMARK                            x       y       z     vdW  Elec       q    Type
REMARK                         _______ _______ _______ _____ _____    ______ ____
ROOT
ATOM      1  O   LIG    1       24.737 -16.497   4.167  0.00  0.00    -0.459 OA
ENDROOT
BRANCH   1   7
ATOM      2  C   LIG    1       27.800 -12.139   3.501  0.00  0.00    +0.192 C 
ATOM      3  N   LIG    1       26.574 -13.039   3.260  0.00  0.00    +0.243 N 
ATOM      4  C   LIG    1       25.683 -12.248   2.301  0.00  0.00    +0.192 C 
ATOM      5  C   LIG    1       25.914 -13.415   4.597  0.00  0.00    +0.070 C 
ATOM      6  C   LIG    1       24.551 -14.053   4.334  0.00  0.00    +0.099 C 
ATOM      7  C   LIG    1       24.596 -15.278   3.399  0.00  0.00    +0.187 C 
ATOM      8  C   LIG    1       25.722 -15.229   2.338  0.00  0.00    +0.099 C 
ATOM      9  C   LIG    1       26.892 -14.434   5.203  0.00  0.00    +0.060 C 
ATOM     10  C   LIG    1       27.597 -15.088   4.014  0.00  0.00    +0.060 C 
ATOM     11  C   LIG    1       26.974 -14.444   2.770  0.00  0.00    +0.070 C 
ENDBRANCH   1   7
BRANCH   1  12
ATOM     12  C   LIG    1       23.665 -17.355   4.105  0.00  0.00    +0.341 C 
ATOM     13  O   LIG    1       22.509 -17.028   4.352  0.00  0.00    -0.247 OA
BRANCH  12  14
ATOM     14  C   LIG    1       24.081 -18.772   3.698  0.00  0.00    +0.253 C 
BRANCH  14  15
ATOM     15  C   LIG    1       24.208 -19.700   4.889  0.00  0.00    -0.008 A 
ATOM     16  C   LIG    1       23.090 -20.087   5.651  0.00  0.00    +0.007 A 
ATOM     17  C   LIG    1       23.234 -20.969   6.723  0.00  0.00    +0.000 A 
ATOM     18  C   LIG    1       24.486 -21.471   7.060  0.00  0.00    +0.000 A 
ATOM     19  C   LIG    1       25.606 -21.097   6.313  0.00  0.00    +0.000 A 
ATOM     20  C   LIG    1       25.467 -20.220   5.236  0.00  0.00    +0.007 A 
ENDBRANCH  14  15
BRANCH  14  21
ATOM     21  O   LIG    1       23.151 -19.335   2.776  0.00  0.00    -0.376 OA
ATOM     22  H   LIG    1       22.258 -19.129   3.102  0.00  0.00    +0.211 HD
ENDBRANCH  14  21
ENDBRANCH  12  14
ENDBRANCH   1  12
TORSDOF 5
ENDMDL
MODEL 8
REMARK VINA RESULT:      -1.0      2.578      6.701
REMARK  Name = *****
REMARK                            x       y       z     vdW  Elec       q    Type
REMARK                         _______ _______ _______ _____ _____    ______ ____
ROOT
ATOM      1  O   LIG    1       25.214 -17.013   3.313  0.00  0.00    -0.459 OA
ENDROOT
BRANCH   1   7
ATOM      2  C   LIG    1       22.263 -21.207   4.897  0.00  0.00    +0.192 C 
ATOM      3  N   LIG    1       23.546 -20.492   4.435  0.00  0.00    +0.243 N 
ATOM      4  C   LIG    1       24.630 -21.572   4.454  0.00  0.00    +0.192 C 
ATOM      5  C   LIG    1       23.830 -19.271   5.325  0.00  0.00    +0.070 C 
ATOM      6  C   LIG    1       25.240 -18.752   5.047  0.00  0.00    +0.099 C 
ATOM      7  C   LIG    1       25.507 -18.407   3.568  0.00  0.00    +0.187 C 
ATOM      8  C   LIG    1       24.713 -19.272   2.559  0.00  0.00    +0.099 C 
ATOM      9  C   LIG    1       22.769 -18.252   4.881  0.00  0.00    +0.060 C 
ATOM     10  C   LIG    1       22.446 -18.598   3.427  0.00  0.00    +0.060 C 
ATOM     11  C   LIG    1       23.357 -19.782   3.080  0.00  0.00    +0.070 C 
ENDBRANCH   1   7
BRANCH   1  12
ATOM     12  C   LIG    1       26.308 -16.180   3.293  0.00  0.00    +0.341 C 
ATOM     13  O   LIG    1       27.354 -16.406   3.890  0.00  0.00    -0.247 OA
BRANCH  12  14
ATOM     14  C   LIG    1       26.067 -14.929   2.441  0.00  0.00    +0.253 C 
BRANCH  14  15
ATOM     15  C   LIG    1       25.295 -13.862   3.190  0.00  0.00    -0.008 A 
ATOM     16  C   LIG    1       25.337 -13.761   4.594  0.00  0.00    +0.007 A 
ATOM     17  C   LIG    1       24.642 -12.748   5.253  0.00  0.00    +0.000 A 
ATOM     18  C   LIG    1       23.887 -11.828   4.534  0.00  0.00    +0.000 A 
ATOM     19  C   LIG    1       23.835 -11.913   3.140  0.00  0.00    +0.000 A 
ATOM     20  C   LIG    1       24.534 -12.922   2.475  0.00  0.00    +0.007 A 
ENDBRANCH  14  15
BRANCH  14  21
ATOM     21  O   LIG    1       27.298 -14.372   1.989  0.00  0.00    -0.376 OA
ATOM     22  H   LIG    1       27.747 -13.990   2.764  0.00  0.00    +0.211 HD
ENDBRANCH  14  21
ENDBRANCH  12  14
ENDBRANCH   1  12
TORSDOF 5
ENDMDL
MODEL 9
REMARK VINA RESULT:      -0.8      2.639      6.928
REMARK  Name = *****
REMARK                            x       y       z     vdW  Elec       q    Type
REMARK                         _______ _______ _______ _____ _____    ______ ____
ROOT
ATOM      1  O   LIG    1       25.410 -18.818   3.180  0.00  0.00    -0.459 OA
ENDROOT
BRANCH   1   7
ATOM      2  C   LIG    1       22.701 -21.572   6.906  0.00  0.00    +0.192 C 
ATOM      3  N   LIG    1       22.901 -20.883   5.544  0.00  0.00    +0.243 N 
ATOM      4  C   LIG    1       21.602 -21.137   4.776  0.00  0.00    +0.192 C 
ATOM      5  C   LIG    1       24.173 -21.410   4.859  0.00  0.00    +0.070 C 
ATOM      6  C   LIG    1       24.201 -20.945   3.404  0.00  0.00    +0.099 C 
ATOM      7  C   LIG    1       24.093 -19.417   3.226  0.00  0.00    +0.187 C 
ATOM      8  C   LIG    1       23.265 -18.705   4.322  0.00  0.00    +0.099 C 
ATOM      9  C   LIG    1       25.308 -20.761   5.667  0.00  0.00    +0.060 C 
ATOM     10  C   LIG    1       24.725 -19.463   6.230  0.00  0.00    +0.060 C 
ATOM     11  C   LIG    1       23.289 -19.400   5.696  0.00  0.00    +0.070 C 
ENDBRANCH   1   7
BRANCH   1  12
ATOM     12  C   LIG    1       25.443 -17.461   3.397  0.00  0.00    +0.341 C 
ATOM     13  O   LIG    1       24.464 -16.790   3.703  0.00  0.00    -0.247 OA
BRANCH  12  14
ATOM     14  C   LIG    1       26.848 -16.879   3.205  0.00  0.00    +0.253 C 
BRANCH  14  15
ATOM     15  C   LIG    1       26.882 -15.377   3.401  0.00  0.00    -0.008 A 
ATOM     16  C   LIG    1       27.585 -14.782   4.466  0.00  0.00    +0.007 A 
ATOM     17  C   LIG    1       27.625 -13.394   4.602  0.00  0.00    +0.000 A 
ATOM     18  C   LIG    1       26.961 -12.578   3.693  0.00  0.00    +0.000 A 
ATOM     19  C   LIG    1       26.258 -13.152   2.631  0.00  0.00    +0.000 A 
ATOM     20  C   LIG    1       26.220 -14.540   2.487  0.00  0.00    +0.007 A 
ENDBRANCH  14  15
BRANCH  14  21
ATOM     21  O   LIG    1       27.778 -17.478   4.103  0.00  0.00    -0.376 OA
ATOM     22  H   LIG    1       28.291 -18.133   3.596  0.00  0.00    +0.211 HD
ENDBRANCH  14  21
ENDBRANCH  12  14
ENDBRANCH   1  12
TORSDOF 5
ENDMDL
