MODEL 1
REMARK VINA RESULT:      -4.1      0.000      0.000
REMARK  Name = *****
REMARK                            x       y       z     vdW  Elec       q    Type
REMARK                         _______ _______ _______ _____ _____    ______ ____
ROOT
ATOM      1  N   LIG    1       21.450 -18.034   3.860  0.00  0.00    -0.311 NA
ATOM      2  H   LIG    1       21.445 -17.418   3.043  0.00  0.00    +0.122 HD
ENDROOT
BRANCH   1   3
ATOM      3  C   LIG    1       22.331 -17.385   4.856  0.00  0.00    +0.115 C 
BRANCH   3   4
ATOM      4  C   LIG    1       22.362 -15.845   4.699  0.00  0.00    +0.169 C 
BRANCH   4   5
ATOM      5  C   LIG    1       23.654 -15.353   4.009  0.00  0.00    +0.203 C 
ATOM      6  O   LIG    1       24.326 -14.471   4.925  0.00  0.00    -0.486 OA
ATOM      7  C   LIG    1       25.593 -14.108   4.573  0.00  0.00    +0.124 A 
ATOM      8  C   LIG    1       26.352 -14.791   3.614  0.00  0.00    -0.003 A 
ATOM      9  C   LIG    1       27.649 -14.351   3.335  0.00  0.00    +0.045 A 
ATOM     10  C   LIG    1       28.182 -13.266   4.029  0.00  0.00    +0.124 A 
ATOM     11  C   LIG    1       27.435 -12.604   4.999  0.00  0.00    +0.042 A 
ATOM     12  F   LIG    1       29.428 -12.863   3.767  0.00  0.00    -0.205 F 
ATOM     13  C   LIG    1       25.778 -15.962   2.875  0.00  0.00    +0.042 C 
ATOM     14  C   LIG    1       26.138 -13.027   5.270  0.00  0.00    +0.049 A 
ATOM     15  C   LIG    1       24.568 -16.517   3.615  0.00  0.00    +0.052 C 
ENDBRANCH   4   5
BRANCH   4  16
ATOM     16  O   LIG    1       22.192 -15.249   5.995  0.00  0.00    -0.387 OA
ATOM     17  H   LIG    1       21.376 -15.615   6.378  0.00  0.00    +0.210 HD
ENDBRANCH   4  16
ENDBRANCH   3   4
ENDBRANCH   1   3
BRANCH   1  18
ATOM     18  C   LIG    1       21.989 -19.358   3.493  0.00  0.00    +0.115 C 
BRANCH  18  19
ATOM     19  C   LIG    1       21.957 -20.361   4.672  0.00  0.00    +0.169 C 
BRANCH  19  20
ATOM     20  C   LIG    1       23.355 -20.811   5.144  0.00  0.00    +0.203 C 
ATOM     21  O   LIG    1       24.330 -19.874   4.656  0.00  0.00    -0.486 OA
ATOM     22  C   LIG    1       25.590 -20.033   5.169  0.00  0.00    +0.124 A 
ATOM     23  C   LIG    1       25.867 -20.790   6.315  0.00  0.00    -0.003 A 
ATOM     24  C   LIG    1       27.194 -20.905   6.752  0.00  0.00    +0.045 A 
ATOM     25  C   LIG    1       28.206 -20.243   6.067  0.00  0.00    +0.124 A 
ATOM     26  C   LIG    1       27.932 -19.466   4.952  0.00  0.00    +0.042 A 
ATOM     27  F   LIG    1       29.473 -20.354   6.498  0.00  0.00    -0.205 F 
ATOM     28  C   LIG    1       24.770 -21.489   7.061  0.00  0.00    +0.042 C 
ATOM     29  C   LIG    1       26.614 -19.359   4.500  0.00  0.00    +0.049 A 
ATOM     30  C   LIG    1       23.416 -20.914   6.671  0.00  0.00    +0.052 C 
ENDBRANCH  19  20
BRANCH  19  31
ATOM     31  O   LIG    1       21.179 -21.505   4.290  0.00  0.00    -0.387 OA
ATOM     32  H   LIG    1       21.533 -21.778   3.420  0.00  0.00    +0.210 HD
ENDBRANCH  19  31
ENDBRANCH  18  19
ENDBRANCH   1  18
TORSDOF 8
ENDMDL
MODEL 2
REMARK VINA RESULT:      -2.5      0.960      6.380
REMARK  Name = *****
REMARK                            x       y       z     vdW  Elec       q    Type
REMARK                         _______ _______ _______ _____ _____    ______ ____
ROOT
ATOM      1  N   LIG    1       22.329 -18.505   3.439  0.00  0.00    -0.311 NA
ATOM      2  H   LIG    1       21.547 -18.027   2.984  0.00  0.00    +0.122 HD
ENDROOT
BRANCH   1   3
ATOM      3  C   LIG    1       21.752 -19.220   4.598  0.00  0.00    +0.115 C 
BRANCH   3   4
ATOM      4  C   LIG    1       22.031 -20.743   4.549  0.00  0.00    +0.169 C 
BRANCH   4   5
ATOM      5  C   LIG    1       23.436 -21.098   5.083  0.00  0.00    +0.203 C 
ATOM      6  O   LIG    1       24.352 -20.105   4.587  0.00  0.00    -0.486 OA
ATOM      7  C   LIG    1       25.602 -20.131   5.130  0.00  0.00    +0.124 A 
ATOM      8  C   LIG    1       25.911 -20.797   6.323  0.00  0.00    -0.003 A 
ATOM      9  C   LIG    1       27.222 -20.751   6.808  0.00  0.00    +0.045 A 
ATOM     10  C   LIG    1       28.193 -20.023   6.122  0.00  0.00    +0.124 A 
ATOM     11  C   LIG    1       27.879 -19.343   4.949  0.00  0.00    +0.042 A 
ATOM     12  F   LIG    1       29.439 -19.972   6.602  0.00  0.00    -0.205 F 
ATOM     13  C   LIG    1       24.861 -21.571   7.062  0.00  0.00    +0.042 C 
ATOM     14  C   LIG    1       26.580 -19.397   4.454  0.00  0.00    +0.049 A 
ATOM     15  C   LIG    1       23.470 -21.143   6.613  0.00  0.00    +0.052 C 
ENDBRANCH   4   5
BRANCH   4  16
ATOM     16  O   LIG    1       21.842 -21.200   3.201  0.00  0.00    -0.387 OA
ATOM     17  H   LIG    1       20.909 -21.052   2.971  0.00  0.00    +0.210 HD
ENDBRANCH   4  16
ENDBRANCH   3   4
ENDBRANCH   1   3
BRANCH   1  18
ATOM     18  C   LIG    1       23.326 -17.518   3.899  0.00  0.00    +0.115 C 
BRANCH  18  19
ATOM     19  C   LIG    1       22.696 -16.138   4.211  0.00  0.00    +0.169 C 
BRANCH  19  20
ATOM     20  C   LIG    1       23.721 -14.987   4.274  0.00  0.00    +0.203 C 
ATOM     21  O   LIG    1       25.031 -15.520   4.020  0.00  0.00    -0.486 OA
ATOM     22  C   LIG    1       26.012 -14.581   3.843  0.00  0.00    +0.124 A 
ATOM     23  C   LIG    1       25.749 -13.232   3.576  0.00  0.00    -0.003 A 
ATOM     24  C   LIG    1       26.824 -12.344   3.425  0.00  0.00    +0.045 A 
ATOM     25  C   LIG    1       28.128 -12.819   3.506  0.00  0.00    +0.124 A 
ATOM     26  C   LIG    1       28.392 -14.161   3.737  0.00  0.00    +0.042 A 
ATOM     27  F   LIG    1       29.150 -11.962   3.354  0.00  0.00    -0.205 F 
ATOM     28  C   LIG    1       24.341 -12.726   3.473  0.00  0.00    +0.042 C 
ATOM     29  C   LIG    1       27.327 -15.048   3.905  0.00  0.00    +0.049 A 
ATOM     30  C   LIG    1       23.377 -13.885   3.266  0.00  0.00    +0.052 C 
ENDBRANCH  19  20
BRANCH  19  31
ATOM     31  O   LIG    1       21.980 -16.222   5.452  0.00  0.00    -0.387 OA
ATOM     32  H   LIG    1       21.945 -15.305   5.791  0.00  0.00    +0.210 HD
ENDBRANCH  19  31
ENDBRANCH  18  19
ENDBRANCH   1  18
TORSDOF 8
ENDMDL
