MODEL 1
REMARK VINA RESULT:      -4.5      0.000      0.000
REMARK  Name = *****
REMARK                            x       y       z     vdW  Elec       q    Type
REMARK                         _______ _______ _______ _____ _____    ______ ____
ROOT
ATOM      1  C   LIG    1       25.319 -17.922   3.261  0.00  0.00    +0.155 C 
ATOM      2  N   LIG    1       23.896 -18.256   3.644  0.00  0.00    -0.254 NA
ATOM      3  C   LIG    1       24.039 -19.418   4.201  0.00  0.00    +0.153 C 
ATOM      4  N   LIG    1       25.279 -19.975   4.321  0.00  0.00    -0.307 N 
ATOM      5  C   LIG    1       25.392 -20.860   5.464  0.00  0.00    +0.118 C 
ATOM      6  C   LIG    1       24.034 -21.571   5.563  0.00  0.00    +0.096 C 
ATOM      7  S   LIG    1       22.803 -20.337   4.993  0.00  0.00    -0.089 S 
ATOM      8  C   LIG    1       26.220 -18.905   4.068  0.00  0.00    +0.138 C 
ENDROOT
BRANCH   1  12
ATOM      9  C   LIG    1       26.472 -13.824   4.011  0.00  0.00    +0.000 A 
ATOM     10  C   LIG    1       25.122 -14.166   3.972  0.00  0.00    +0.000 A 
ATOM     11  C   LIG    1       24.741 -15.486   3.722  0.00  0.00    +0.006 A 
ATOM     12  C   LIG    1       25.706 -16.479   3.504  0.00  0.00    -0.022 A 
ATOM     13  C   LIG    1       27.063 -16.120   3.548  0.00  0.00    +0.006 A 
ATOM     14  C   LIG    1       27.442 -14.800   3.798  0.00  0.00    +0.000 A 
ENDBRANCH   1  12
TORSDOF 1
ENDMDL
MODEL 2
REMARK VINA RESULT:      -4.5      0.048      1.290
REMARK  Name = *****
REMARK                            x       y       z     vdW  Elec       q    Type
REMARK                         _______ _______ _______ _____ _____    ______ ____
ROOT
ATOM      1  C   LIG    1       25.335 -17.910   3.260  0.00  0.00    +0.155 C 
ATOM      2  N   LIG    1       23.910 -18.225   3.653  0.00  0.00    -0.254 NA
ATOM      3  C   LIG    1       24.038 -19.398   4.190  0.00  0.00    +0.153 C 
ATOM      4  N   LIG    1       25.269 -19.978   4.289  0.00  0.00    -0.307 N 
ATOM      5  C   LIG    1       25.378 -20.882   5.417  0.00  0.00    +0.118 C 
ATOM      6  C   LIG    1       24.010 -21.572   5.519  0.00  0.00    +0.096 C 
ATOM      7  S   LIG    1       22.794 -20.308   4.981  0.00  0.00    -0.089 S 
ATOM      8  C   LIG    1       26.226 -18.921   4.043  0.00  0.00    +0.138 C 
ENDROOT
BRANCH   1  12
ATOM      9  C   LIG    1       26.470 -13.795   3.946  0.00  0.00    +0.000 A 
ATOM     10  C   LIG    1       27.456 -14.768   3.794  0.00  0.00    +0.000 A 
ATOM     11  C   LIG    1       27.097 -16.101   3.581  0.00  0.00    +0.006 A 
ATOM     12  C   LIG    1       25.748 -16.478   3.521  0.00  0.00    -0.022 A 
ATOM     13  C   LIG    1       24.766 -15.487   3.674  0.00  0.00    +0.006 A 
ATOM     14  C   LIG    1       25.125 -14.155   3.887  0.00  0.00    +0.000 A 
ENDBRANCH   1  12
TORSDOF 1
ENDMDL
MODEL 3
REMARK VINA RESULT:      -4.4      2.967      3.949
REMARK  Name = *****
REMARK                            x       y       z     vdW  Elec       q    Type
REMARK                         _______ _______ _______ _____ _____    ______ ____
ROOT
ATOM      1  C   LIG    1       26.034 -20.099   4.353  0.00  0.00    +0.155 C 
ATOM      2  N   LIG    1       25.051 -18.976   4.115  0.00  0.00    -0.254 NA
ATOM      3  C   LIG    1       23.916 -19.577   4.289  0.00  0.00    +0.153 C 
ATOM      4  N   LIG    1       23.883 -20.898   4.631  0.00  0.00    -0.307 N 
ATOM      5  C   LIG    1       22.709 -21.251   5.404  0.00  0.00    +0.118 C 
ATOM      6  C   LIG    1       21.566 -20.409   4.815  0.00  0.00    +0.096 C 
ATOM      7  S   LIG    1       22.351 -18.836   4.291  0.00  0.00    -0.089 S 
ATOM      8  C   LIG    1       25.225 -21.230   5.058  0.00  0.00    +0.138 C 
ENDROOT
BRANCH   1  12
ATOM      9  C   LIG    1       29.475 -18.956   6.707  0.00  0.00    +0.000 A 
ATOM     10  C   LIG    1       29.128 -18.210   5.582  0.00  0.00    +0.000 A 
ATOM     11  C   LIG    1       28.023 -18.577   4.812  0.00  0.00    +0.006 A 
ATOM     12  C   LIG    1       27.253 -19.698   5.154  0.00  0.00    -0.022 A 
ATOM     13  C   LIG    1       27.614 -20.439   6.291  0.00  0.00    +0.006 A 
ATOM     14  C   LIG    1       28.719 -20.071   7.061  0.00  0.00    +0.000 A 
ENDBRANCH   1  12
TORSDOF 1
ENDMDL
MODEL 4
REMARK VINA RESULT:      -4.2      2.505      5.672
REMARK  Name = *****
REMARK                            x       y       z     vdW  Elec       q    Type
REMARK                         _______ _______ _______ _____ _____    ______ ____
ROOT
ATOM      1  C   LIG    1       24.665 -17.198   3.244  0.00  0.00    +0.155 C 
ATOM      2  N   LIG    1       26.153 -16.933   3.251  0.00  0.00    -0.254 NA
ATOM      3  C   LIG    1       26.194 -15.669   3.534  0.00  0.00    +0.153 C 
ATOM      4  N   LIG    1       25.040 -14.976   3.760  0.00  0.00    -0.307 N 
ATOM      5  C   LIG    1       25.222 -13.856   4.661  0.00  0.00    +0.118 C 
ATOM      6  C   LIG    1       26.605 -13.281   4.322  0.00  0.00    +0.096 C 
ATOM      7  S   LIG    1       27.618 -14.728   3.829  0.00  0.00    -0.089 S 
ATOM      8  C   LIG    1       24.011 -15.975   3.957  0.00  0.00    +0.138 C 
ENDROOT
BRANCH   1  12
ATOM      9  C   LIG    1       23.493 -20.893   5.156  0.00  0.00    +0.000 A 
ATOM     10  C   LIG    1       24.775 -20.766   4.624  0.00  0.00    +0.000 A 
ATOM     11  C   LIG    1       25.158 -19.579   3.997  0.00  0.00    +0.006 A 
ATOM     12  C   LIG    1       24.263 -18.505   3.891  0.00  0.00    -0.022 A 
ATOM     13  C   LIG    1       22.976 -18.647   4.432  0.00  0.00    +0.006 A 
ATOM     14  C   LIG    1       22.593 -19.834   5.059  0.00  0.00    +0.000 A 
ENDBRANCH   1  12
TORSDOF 1
ENDMDL
MODEL 5
REMARK VINA RESULT:      -4.1      2.559      5.544
REMARK  Name = *****
REMARK                            x       y       z     vdW  Elec       q    Type
REMARK                         _______ _______ _______ _____ _____    ______ ____
ROOT
ATOM      1  C   LIG    1       24.599 -17.041   3.267  0.00  0.00    +0.155 C 
ATOM      2  N   LIG    1       26.094 -16.821   3.234  0.00  0.00    -0.254 NA
ATOM      3  C   LIG    1       26.183 -15.566   3.548  0.00  0.00    +0.153 C 
ATOM      4  N   LIG    1       25.057 -14.846   3.827  0.00  0.00    -0.307 N 
ATOM      5  C   LIG    1       25.300 -13.755   4.749  0.00  0.00    +0.118 C 
ATOM      6  C   LIG    1       26.689 -13.213   4.381  0.00  0.00    +0.096 C 
ATOM      7  S   LIG    1       27.643 -14.676   3.822  0.00  0.00    -0.089 S 
ATOM      8  C   LIG    1       24.005 -15.818   4.030  0.00  0.00    +0.138 C 
ENDROOT
BRANCH   1  12
ATOM      9  C   LIG    1       23.420 -20.826   4.991  0.00  0.00    +0.000 A 
ATOM     10  C   LIG    1       22.512 -19.770   4.954  0.00  0.00    +0.000 A 
ATOM     11  C   LIG    1       22.887 -18.541   4.406  0.00  0.00    +0.006 A 
ATOM     12  C   LIG    1       24.178 -18.352   3.893  0.00  0.00    -0.022 A 
ATOM     13  C   LIG    1       25.083 -19.426   3.936  0.00  0.00    +0.006 A 
ATOM     14  C   LIG    1       24.706 -20.653   4.483  0.00  0.00    +0.000 A 
ENDBRANCH   1  12
TORSDOF 1
ENDMDL
MODEL 6
REMARK VINA RESULT:      -2.5      3.269      5.655
REMARK  Name = *****
REMARK                            x       y       z     vdW  Elec       q    Type
REMARK                         _______ _______ _______ _____ _____    ______ ____
ROOT
ATOM      1  C   LIG    1       27.595 -17.071   3.806  0.00  0.00    +0.155 C 
ATOM      2  N   LIG    1       27.997 -15.713   4.332  0.00  0.00    -0.254 NA
ATOM      3  C   LIG    1       26.970 -14.991   4.008  0.00  0.00    +0.153 C 
ATOM      4  N   LIG    1       25.900 -15.559   3.380  0.00  0.00    -0.307 N 
ATOM      5  C   LIG    1       24.652 -14.879   3.665  0.00  0.00    +0.118 C 
ATOM      6  C   LIG    1       25.009 -13.387   3.736  0.00  0.00    +0.096 C 
ATOM      7  S   LIG    1       26.706 -13.332   4.431  0.00  0.00    -0.089 S 
ATOM      8  C   LIG    1       26.061 -16.988   3.538  0.00  0.00    +0.138 C 
ENDROOT
BRANCH   1  12
ATOM      9  C   LIG    1       28.521 -20.348   6.469  0.00  0.00    +0.000 A 
ATOM     10  C   LIG    1       29.447 -19.322   6.287  0.00  0.00    +0.000 A 
ATOM     11  C   LIG    1       29.159 -18.265   5.422  0.00  0.00    +0.006 A 
ATOM     12  C   LIG    1       27.943 -18.222   4.725  0.00  0.00    -0.022 A 
ATOM     13  C   LIG    1       27.020 -19.262   4.919  0.00  0.00    +0.006 A 
ATOM     14  C   LIG    1       27.308 -20.318   5.784  0.00  0.00    +0.000 A 
ENDBRANCH   1  12
TORSDOF 1
ENDMDL
MODEL 7
REMARK VINA RESULT:      -2.4      3.340      6.025
REMARK  Name = *****
REMARK                            x       y       z     vdW  Elec       q    Type
REMARK                         _______ _______ _______ _____ _____    ______ ____
ROOT
ATOM      1  C   LIG    1       24.423 -15.607   4.399  0.00  0.00    +0.155 C 
ATOM      2  N   LIG    1       23.517 -14.452   4.039  0.00  0.00    -0.254 NA
ATOM      3  C   LIG    1       24.342 -13.641   3.455  0.00  0.00    +0.153 C 
ATOM      4  N   LIG    1       25.652 -13.989   3.297  0.00  0.00    -0.307 N 
ATOM      5  C   LIG    1       26.262 -13.376   2.134  0.00  0.00    +0.118 C 
ATOM      6  C   LIG    1       25.652 -11.969   2.048  0.00  0.00    +0.096 C 
ATOM      7  S   LIG    1       23.936 -12.152   2.670  0.00  0.00    -0.089 S 
ATOM      8  C   LIG    1       25.718 -15.412   3.552  0.00  0.00    +0.138 C 
ENDROOT
BRANCH   1  12
ATOM      9  C   LIG    1       22.640 -19.505   3.844  0.00  0.00    +0.000 A 
ATOM     10  C   LIG    1       23.982 -19.307   3.527  0.00  0.00    +0.000 A 
ATOM     11  C   LIG    1       24.563 -18.049   3.695  0.00  0.00    +0.006 A 
ATOM     12  C   LIG    1       23.809 -16.971   4.179  0.00  0.00    -0.022 A 
ATOM     13  C   LIG    1       22.457 -17.186   4.496  0.00  0.00    +0.006 A 
ATOM     14  C   LIG    1       21.877 -18.444   4.328  0.00  0.00    +0.000 A 
ENDBRANCH   1  12
TORSDOF 1
ENDMDL
MODEL 8
REMARK VINA RESULT:      -2.4      2.218      5.703
REMARK  Name = *****
REMARK                            x       y       z     vdW  Elec       q    Type
REMARK                         _______ _______ _______ _____ _____    ______ ____
ROOT
ATOM      1  C   LIG    1       25.635 -19.413   3.932  0.00  0.00    +0.155 C 
ATOM      2  N   LIG    1       26.922 -18.907   4.541  0.00  0.00    -0.254 NA
ATOM      3  C   LIG    1       27.007 -17.720   4.029  0.00  0.00    +0.153 C 
ATOM      4  N   LIG    1       26.029 -17.258   3.196  0.00  0.00    -0.307 N 
ATOM      5  C   LIG    1       25.889 -15.816   3.236  0.00  0.00    +0.118 C 
ATOM      6  C   LIG    1       27.317 -15.273   3.391  0.00  0.00    +0.096 C 
ATOM      7  S   LIG    1       28.197 -16.520   4.408  0.00  0.00    -0.089 S 
ATOM      8  C   LIG    1       24.907 -18.155   3.368  0.00  0.00    +0.138 C 
ENDROOT
BRANCH   1  12
ATOM      9  C   LIG    1       23.075 -21.566   6.671  0.00  0.00    +0.000 A 
ATOM     10  C   LIG    1       24.435 -21.441   6.949  0.00  0.00    +0.000 A 
ATOM     11  C   LIG    1       25.270 -20.755   6.065  0.00  0.00    +0.006 A 
ATOM     12  C   LIG    1       24.757 -20.188   4.890  0.00  0.00    -0.022 A 
ATOM     13  C   LIG    1       23.384 -20.320   4.624  0.00  0.00    +0.006 A 
ATOM     14  C   LIG    1       22.550 -21.006   5.508  0.00  0.00    +0.000 A 
ENDBRANCH   1  12
TORSDOF 1
ENDMDL
MODEL 9
REMARK VINA RESULT:      -2.3      3.425      5.979
REMARK  Name = *****
REMARK                            x       y       z     vdW  Elec       q    Type
REMARK                         _______ _______ _______ _____ _____    ______ ____
ROOT
ATOM      1  C   LIG    1       26.887 -14.838   3.636  0.00  0.00    +0.155 C 
ATOM      2  N   LIG    1       26.059 -14.089   4.655  0.00  0.00    -0.254 NA
ATOM      3  C   LIG    1       25.488 -13.187   3.919  0.00  0.00    +0.153 C 
ATOM      4  N   LIG    1       25.715 -13.152   2.574  0.00  0.00    -0.307 N 
ATOM      5  C   LIG    1       24.600 -12.603   1.828  0.00  0.00    +0.118 C 
ATOM      6  C   LIG    1       24.034 -11.481   2.709  0.00  0.00    +0.096 C 
ATOM      7  S   LIG    1       24.286 -12.051   4.434  0.00  0.00    -0.089 S 
ATOM      8  C   LIG    1       26.326 -14.421   2.242  0.00  0.00    +0.138 C 
ENDROOT
BRANCH   1  12
ATOM      9  C   LIG    1       26.808 -19.125   4.182  0.00  0.00    +0.000 A 
ATOM     10  C   LIG    1       27.902 -18.390   4.635  0.00  0.00    +0.000 A 
ATOM     11  C   LIG    1       27.939 -17.006   4.455  0.00  0.00    +0.006 A 
ATOM     12  C   LIG    1       26.884 -16.340   3.816  0.00  0.00    -0.022 A 
ATOM     13  C   LIG    1       25.788 -17.093   3.366  0.00  0.00    +0.006 A 
ATOM     14  C   LIG    1       25.752 -18.477   3.547  0.00  0.00    +0.000 A 
ENDBRANCH   1  12
TORSDOF 1
ENDMDL
