MODEL 1
REMARK VINA RESULT:       5.7      0.000      0.000
REMARK  Name = *****
REMARK                            x       y       z     vdW  Elec       q    Type
REMARK                         _______ _______ _______ _____ _____    ______ ____
ROOT
ATOM      1  C   LIG    1       25.537 -20.016   5.483  0.00  0.00    +0.251 C 
ENDROOT
BRANCH   1   2
ATOM      2  C   LIG    1       25.886 -19.828   3.994  0.00  0.00    +0.280 C 
BRANCH   2   3
ATOM      3  O   LIG    1       25.033 -18.903   3.256  0.00  0.00    -0.461 OA
BRANCH   3   4
ATOM      4  C   LIG    1       25.596 -17.645   3.167  0.00  0.00    +0.307 C 
ATOM      5  O   LIG    1       26.358 -17.406   2.251  0.00  0.00    -0.251 OA
BRANCH   4   6
ATOM      6  C   LIG    1       24.912 -16.547   4.379  0.00  0.00    +0.121 C 
BRANCH   6   7
ATOM      7  C   LIG    1       23.325 -15.881   4.469  0.00  0.00    +0.016 C 
BRANCH   7   8
ATOM      8  C   LIG    1       22.923 -14.464   4.391  0.00  0.00    +0.035 C 
BRANCH   8   9
ATOM      9  C   LIG    1       23.819 -13.699   3.370  0.00  0.00    -0.047 A 
ATOM     10  C   LIG    1       25.073 -14.264   3.188  0.00  0.00    +0.003 A 
ATOM     11  C   LIG    1       26.051 -13.616   2.441  0.00  0.00    +0.000 A 
ATOM     12  C   LIG    1       25.794 -12.395   1.819  0.00  0.00    +0.000 A 
ATOM     13  C   LIG    1       24.524 -11.843   1.892  0.00  0.00    +0.000 A 
ATOM     14  C   LIG    1       23.541 -12.493   2.657  0.00  0.00    +0.003 A 
ENDBRANCH   8   9
ENDBRANCH   7   8
ENDBRANCH   6   7
ENDBRANCH   4   6
ENDBRANCH   3   4
ENDBRANCH   2   3
ENDBRANCH   1   2
BRANCH   1  15
ATOM     15  O   LIG    1       24.470 -20.976   5.611  0.00  0.00    -0.454 OA
BRANCH  15  16
ATOM     16  C   LIG    1       23.292 -20.464   6.008  0.00  0.00    +0.308 C 
ATOM     17  O   LIG    1       23.020 -19.246   6.128  0.00  0.00    -0.251 OA
BRANCH  16  18
ATOM     18  C   LIG    1       22.248 -21.568   6.160  0.00  0.00    +0.121 C 
BRANCH  18  19
ATOM     19  C   LIG    1       20.906 -21.394   5.441  0.00  0.00    +0.016 C 
BRANCH  19  20
ATOM     20  C   LIG    1       20.859 -21.411   3.918  0.00  0.00    +0.035 C 
BRANCH  20  21
ATOM     21  C   LIG    1       20.676 -20.052   3.434  0.00  0.00    -0.047 A 
ATOM     22  C   LIG    1       21.882 -19.413   3.425  0.00  0.00    +0.003 A 
ATOM     23  C   LIG    1       21.707 -18.135   3.426  0.00  0.00    +0.000 A 
ATOM     24  C   LIG    1       20.517 -17.380   3.451  0.00  0.00    +0.000 A 
ATOM     25  C   LIG    1       19.355 -17.954   3.038  0.00  0.00    +0.000 A 
ATOM     26  C   LIG    1       19.448 -19.380   3.076  0.00  0.00    +0.003 A 
ENDBRANCH  20  21
ENDBRANCH  19  20
ENDBRANCH  18  19
ENDBRANCH  16  18
ENDBRANCH  15  16
ENDBRANCH   1  15
BRANCH   1  27
ATOM     27  C   LIG    1       26.765 -20.446   6.253  0.00  0.00    +0.280 C 
BRANCH  27  28
ATOM     28  O   LIG    1       27.920 -20.323   5.422  0.00  0.00    -0.461 OA
BRANCH  28  30
ATOM     29  O   LIG    1       29.474 -19.719   6.991  0.00  0.00    -0.251 OA
ATOM     30  C   LIG    1       28.940 -19.571   5.888  0.00  0.00    +0.307 C 
BRANCH  30  31
ATOM     31  C   LIG    1       29.352 -18.519   4.890  0.00  0.00    +0.121 C 
BRANCH  31  32
ATOM     32  C   LIG    1       29.048 -17.086   5.308  0.00  0.00    +0.016 C 
BRANCH  32  33
ATOM     33  C   LIG    1       28.031 -16.339   4.424  0.00  0.00    +0.035 C 
BRANCH  33  34
ATOM     34  C   LIG    1       28.034 -14.841   4.631  0.00  0.00    -0.047 A 
ATOM     35  C   LIG    1       28.871 -13.988   3.895  0.00  0.00    +0.003 A 
ATOM     36  C   LIG    1       28.883 -12.617   4.122  0.00  0.00    +0.000 A 
ATOM     37  C   LIG    1       28.046 -12.071   5.084  0.00  0.00    +0.000 A 
ATOM     38  C   LIG    1       27.188 -12.895   5.812  0.00  0.00    +0.000 A 
ATOM     39  C   LIG    1       27.178 -14.273   5.586  0.00  0.00    +0.003 A 
ENDBRANCH  33  34
ENDBRANCH  32  33
ENDBRANCH  31  32
ENDBRANCH  30  31
ENDBRANCH  28  30
ENDBRANCH  27  28
ENDBRANCH   1  27
TORSDOF 20
ENDMDL
