MODEL 1
REMARK VINA RESULT:      -8.5      0.000      0.000
REMARK  Name = *****
REMARK                            x       y       z     vdW  Elec       q    Type
REMARK                         _______ _______ _______ _____ _____    ______ ____
ROOT
ATOM      1  N   LIG    1       28.351 -19.843   7.069  0.00  0.00    -0.199 N 
ATOM      2  H   LIG    1       27.894 -19.061   6.605  0.00  0.00    +0.175 HD
ENDROOT
BRANCH   1   7
ATOM      3  C   LIG    1       30.715 -17.904   9.034  0.00  0.00    +0.222 A 
ATOM      4  N   LIG    1       31.541 -18.883   9.428  0.00  0.00    -0.160 NA
ATOM      5  C   LIG    1       31.256 -20.113   8.993  0.00  0.00    +0.323 A 
ATOM      6  N   LIG    1       30.216 -20.437   8.224  0.00  0.00    -0.178 NA
ATOM      7  C   LIG    1       29.429 -19.415   7.873  0.00  0.00    +0.148 A 
ATOM      8  C   LIG    1       29.624 -18.105   8.230  0.00  0.00    +0.112 A 
BRANCH   3  10
ATOM      9  C   LIG    1       32.314 -16.270   9.488  0.00  0.00    +0.278 C 
ATOM     10  O   LIG    1       30.932 -16.630   9.515  0.00  0.00    -0.479 OA
ENDBRANCH   3  10
BRANCH   5  11
ATOM     11  O   LIG    1       32.082 -21.161   9.337  0.00  0.00    -0.466 OA
ATOM     12  C   LIG    1       31.498 -22.425   9.041  0.00  0.00    +0.280 C 
ENDBRANCH   5  11
ENDBRANCH   1   7
BRANCH   1  13
ATOM     13  S   LIG    1       27.203 -20.849   7.775  0.00  0.00    +0.073 S 
ATOM     14  O   LIG    1       26.949 -20.379   9.116  0.00  0.00    -0.150 OA
ATOM     15  O   LIG    1       27.656 -22.209   7.536  0.00  0.00    -0.150 OA
BRANCH  13  16
ATOM     16  C   LIG    1       25.723 -20.597   6.817  0.00  0.00    +0.109 A 
ATOM     17  C   LIG    1       24.479 -20.756   7.438  0.00  0.00    +0.030 A 
ATOM     18  C   LIG    1       23.311 -20.619   6.688  0.00  0.00    +0.024 A 
ATOM     19  C   LIG    1       23.366 -20.298   5.328  0.00  0.00    +0.025 A 
ATOM     20  C   LIG    1       24.617 -20.206   4.709  0.00  0.00    +0.024 A 
ATOM     21  C   LIG    1       25.798 -20.342   5.449  0.00  0.00    +0.030 A 
BRANCH  19  22
ATOM     22  N   LIG    1       22.197 -20.317   4.559  0.00  0.00    -0.358 N 
ATOM     23  H   LIG    1       22.029 -19.462   4.039  0.00  0.00    +0.142 HD
ATOM     24  H   LIG    1       22.092 -21.146   3.985  0.00  0.00    +0.142 HD
ENDBRANCH  19  22
ENDBRANCH  13  16
ENDBRANCH   1  13
TORSDOF 6
ENDMDL
MODEL 2
REMARK VINA RESULT:      -8.2      1.056      1.611
REMARK  Name = *****
REMARK                            x       y       z     vdW  Elec       q    Type
REMARK                         _______ _______ _______ _____ _____    ______ ____
ROOT
ATOM      1  N   LIG    1       28.319 -19.500   7.868  0.00  0.00    -0.199 N 
ATOM      2  H   LIG    1       27.749 -19.862   8.630  0.00  0.00    +0.175 HD
ENDROOT
BRANCH   1   7
ATOM      3  C   LIG    1       31.424 -17.845   8.778  0.00  0.00    +0.222 A 
ATOM      4  N   LIG    1       32.141 -18.907   9.174  0.00  0.00    -0.160 NA
ATOM      5  C   LIG    1       31.538 -20.096   9.090  0.00  0.00    +0.323 A 
ATOM      6  N   LIG    1       30.290 -20.300   8.666  0.00  0.00    -0.178 NA
ATOM      7  C   LIG    1       29.630 -19.199   8.293  0.00  0.00    +0.148 A 
ATOM      8  C   LIG    1       30.140 -17.926   8.308  0.00  0.00    +0.112 A 
BRANCH   3  10
ATOM      9  C   LIG    1       32.650 -16.428  10.163  0.00  0.00    +0.278 C 
ATOM     10  O   LIG    1       31.981 -16.591   8.912  0.00  0.00    -0.479 OA
ENDBRANCH   3  10
BRANCH   5  11
ATOM     11  O   LIG    1       32.229 -21.231   9.453  0.00  0.00    -0.466 OA
ATOM     12  C   LIG    1       31.512 -22.420   9.138  0.00  0.00    +0.280 C 
ENDBRANCH   5  11
ENDBRANCH   1   7
BRANCH   1  13
ATOM     13  S   LIG    1       28.145 -20.468   6.504  0.00  0.00    +0.073 S 
ATOM     14  O   LIG    1       28.543 -21.813   6.846  0.00  0.00    -0.150 OA
ATOM     15  O   LIG    1       28.792 -19.755   5.416  0.00  0.00    -0.150 OA
BRANCH  13  16
ATOM     16  C   LIG    1       26.394 -20.483   6.174  0.00  0.00    +0.109 A 
ATOM     17  C   LIG    1       25.945 -20.150   4.891  0.00  0.00    +0.030 A 
ATOM     18  C   LIG    1       24.574 -20.099   4.632  0.00  0.00    +0.024 A 
ATOM     19  C   LIG    1       23.645 -20.404   5.631  0.00  0.00    +0.025 A 
ATOM     20  C   LIG    1       24.109 -20.671   6.923  0.00  0.00    +0.024 A 
ATOM     21  C   LIG    1       25.481 -20.724   7.198  0.00  0.00    +0.030 A 
BRANCH  19  22
ATOM     22  N   LIG    1       22.280 -20.199   5.399  0.00  0.00    -0.358 N 
ATOM     23  H   LIG    1       22.073 -19.383   4.832  0.00  0.00    +0.142 HD
ATOM     24  H   LIG    1       21.784 -21.025   5.085  0.00  0.00    +0.142 HD
ENDBRANCH  19  22
ENDBRANCH  13  16
ENDBRANCH   1  13
TORSDOF 6
ENDMDL
MODEL 3
REMARK VINA RESULT:      -8.2      0.869      2.828
REMARK  Name = *****
REMARK                            x       y       z     vdW  Elec       q    Type
REMARK                         _______ _______ _______ _____ _____    ______ ____
ROOT
ATOM      1  N   LIG    1       28.012 -20.121   7.043  0.00  0.00    -0.199 N 
ATOM      2  H   LIG    1       27.625 -19.260   6.662  0.00  0.00    +0.175 HD
ENDROOT
BRANCH   1   7
ATOM      3  C   LIG    1       31.075 -20.363   8.982  0.00  0.00    +0.222 A 
ATOM      4  N   LIG    1       31.130 -19.119   9.479  0.00  0.00    -0.160 NA
ATOM      5  C   LIG    1       30.129 -18.300   9.143  0.00  0.00    +0.323 A 
ATOM      6  N   LIG    1       29.108 -18.618   8.347  0.00  0.00    -0.178 NA
ATOM      7  C   LIG    1       29.119 -19.870   7.881  0.00  0.00    +0.148 A 
ATOM      8  C   LIG    1       30.070 -20.815   8.169  0.00  0.00    +0.112 A 
BRANCH   3  10
ATOM      9  C   LIG    1       31.835 -22.562   8.850  0.00  0.00    +0.278 C 
ATOM     10  O   LIG    1       32.121 -21.221   9.248  0.00  0.00    -0.479 OA
ENDBRANCH   3  10
BRANCH   5  11
ATOM     11  O   LIG    1       30.109 -17.017   9.643  0.00  0.00    -0.466 OA
ATOM     12  C   LIG    1       30.655 -16.943  10.956  0.00  0.00    +0.280 C 
ENDBRANCH   5  11
ENDBRANCH   1   7
BRANCH   1  13
ATOM     13  S   LIG    1       26.779 -21.092   7.649  0.00  0.00    +0.073 S 
ATOM     14  O   LIG    1       26.494 -20.674   9.000  0.00  0.00    -0.150 OA
ATOM     15  O   LIG    1       27.164 -22.462   7.359  0.00  0.00    -0.150 OA
BRANCH  13  16
ATOM     16  C   LIG    1       25.359 -20.706   6.645  0.00  0.00    +0.109 A 
ATOM     17  C   LIG    1       25.556 -20.298   5.321  0.00  0.00    +0.030 A 
ATOM     18  C   LIG    1       24.458 -19.936   4.540  0.00  0.00    +0.024 A 
ATOM     19  C   LIG    1       23.160 -20.003   5.055  0.00  0.00    +0.025 A 
ATOM     20  C   LIG    1       22.986 -20.351   6.398  0.00  0.00    +0.024 A 
ATOM     21  C   LIG    1       24.078 -20.715   7.195  0.00  0.00    +0.030 A 
BRANCH  19  22
ATOM     22  N   LIG    1       22.088 -19.492   4.313  0.00  0.00    -0.358 N 
ATOM     23  H   LIG    1       21.636 -20.174   3.713  0.00  0.00    +0.142 HD
ATOM     24  H   LIG    1       21.424 -18.956   4.860  0.00  0.00    +0.142 HD
ENDBRANCH  19  22
ENDBRANCH  13  16
ENDBRANCH   1  13
TORSDOF 6
ENDMDL
MODEL 4
REMARK VINA RESULT:      -7.9      1.946      2.417
REMARK  Name = *****
REMARK                            x       y       z     vdW  Elec       q    Type
REMARK                         _______ _______ _______ _____ _____    ______ ____
ROOT
ATOM      1  N   LIG    1       27.527 -22.024   6.920  0.00  0.00    -0.199 N 
ATOM      2  H   LIG    1       27.305 -22.183   5.940  0.00  0.00    +0.175 HD
ENDROOT
BRANCH   1   7
ATOM      3  C   LIG    1       29.818 -19.226   6.560  0.00  0.00    +0.222 A 
ATOM      4  N   LIG    1       30.622 -19.453   7.609  0.00  0.00    -0.160 NA
ATOM      5  C   LIG    1       30.347 -20.533   8.345  0.00  0.00    +0.323 A 
ATOM      6  N   LIG    1       29.338 -21.378   8.130  0.00  0.00    -0.178 NA
ATOM      7  C   LIG    1       28.573 -21.089   7.073  0.00  0.00    +0.148 A 
ATOM      8  C   LIG    1       28.760 -20.029   6.223  0.00  0.00    +0.112 A 
BRANCH   3  10
ATOM      9  C   LIG    1       28.920 -17.800   4.950  0.00  0.00    +0.278 C 
ATOM     10  O   LIG    1       30.023 -18.086   5.812  0.00  0.00    -0.479 OA
ENDBRANCH   3  10
BRANCH   5  11
ATOM     11  O   LIG    1       31.152 -20.840   9.421  0.00  0.00    -0.466 OA
ATOM     12  C   LIG    1       31.265 -22.244   9.624  0.00  0.00    +0.280 C 
ENDBRANCH   5  11
ENDBRANCH   1   7
BRANCH   1  13
ATOM     13  S   LIG    1       26.117 -21.767   7.800  0.00  0.00    +0.073 S 
ATOM     14  O   LIG    1       26.396 -20.803   8.837  0.00  0.00    -0.150 OA
ATOM     15  O   LIG    1       25.600 -23.084   8.128  0.00  0.00    -0.150 OA
BRANCH  13  16
ATOM     16  C   LIG    1       24.988 -21.017   6.644  0.00  0.00    +0.109 A 
ATOM     17  C   LIG    1       25.470 -20.606   5.397  0.00  0.00    +0.030 A 
ATOM     18  C   LIG    1       24.612 -19.964   4.503  0.00  0.00    +0.024 A 
ATOM     19  C   LIG    1       23.269 -19.750   4.827  0.00  0.00    +0.025 A 
ATOM     20  C   LIG    1       22.820 -20.108   6.103  0.00  0.00    +0.024 A 
ATOM     21  C   LIG    1       23.669 -20.752   7.010  0.00  0.00    +0.030 A 
BRANCH  19  22
ATOM     22  N   LIG    1       22.464 -18.970   3.989  0.00  0.00    -0.358 N 
ATOM     23  H   LIG    1       22.092 -19.471   3.189  0.00  0.00    +0.142 HD
ATOM     24  H   LIG    1       21.754 -18.435   4.476  0.00  0.00    +0.142 HD
ENDBRANCH  19  22
ENDBRANCH  13  16
ENDBRANCH   1  13
TORSDOF 6
ENDMDL
MODEL 5
REMARK VINA RESULT:      -7.8      2.773      3.370
REMARK  Name = *****
REMARK                            x       y       z     vdW  Elec       q    Type
REMARK                         _______ _______ _______ _____ _____    ______ ____
ROOT
ATOM      1  N   LIG    1       28.032 -21.594   8.117  0.00  0.00    -0.199 N 
ATOM      2  H   LIG    1       28.194 -22.475   7.635  0.00  0.00    +0.175 HD
ENDROOT
BRANCH   1   7
ATOM      3  C   LIG    1       29.870 -18.981   6.384  0.00  0.00    +0.222 A 
ATOM      4  N   LIG    1       30.859 -18.775   7.266  0.00  0.00    -0.160 NA
ATOM      5  C   LIG    1       30.845 -19.536   8.364  0.00  0.00    +0.323 A 
ATOM      6  N   LIG    1       29.926 -20.458   8.651  0.00  0.00    -0.178 NA
ATOM      7  C   LIG    1       28.965 -20.608   7.734  0.00  0.00    +0.148 A 
ATOM      8  C   LIG    1       28.878 -19.909   6.557  0.00  0.00    +0.112 A 
BRANCH   3  10
ATOM      9  C   LIG    1       28.464 -17.979   4.819  0.00  0.00    +0.278 C 
ATOM     10  O   LIG    1       29.806 -18.171   5.270  0.00  0.00    -0.479 OA
ENDBRANCH   3  10
BRANCH   5  11
ATOM     11  O   LIG    1       31.849 -19.395   9.297  0.00  0.00    -0.466 OA
ATOM     12  C   LIG    1       31.914 -18.072   9.820  0.00  0.00    +0.280 C 
ENDBRANCH   5  11
ENDBRANCH   1   7
BRANCH   1  13
ATOM     13  S   LIG    1       26.400 -21.190   8.052  0.00  0.00    +0.073 S 
ATOM     14  O   LIG    1       26.247 -20.056   7.172  0.00  0.00    -0.150 OA
ATOM     15  O   LIG    1       25.943 -21.130   9.429  0.00  0.00    -0.150 OA
BRANCH  13  16
ATOM     16  C   LIG    1       25.613 -22.590   7.282  0.00  0.00    +0.109 A 
ATOM     17  C   LIG    1       24.217 -22.612   7.183  0.00  0.00    +0.030 A 
ATOM     18  C   LIG    1       23.582 -23.728   6.636  0.00  0.00    +0.024 A 
ATOM     19  C   LIG    1       24.324 -24.813   6.160  0.00  0.00    +0.025 A 
ATOM     20  C   LIG    1       25.713 -24.802   6.325  0.00  0.00    +0.024 A 
ATOM     21  C   LIG    1       26.364 -23.691   6.873  0.00  0.00    +0.030 A 
BRANCH  19  22
ATOM     22  N   LIG    1       23.670 -25.983   5.759  0.00  0.00    -0.358 N 
ATOM     23  H   LIG    1       22.683 -25.859   5.559  0.00  0.00    +0.142 HD
ATOM     24  H   LIG    1       24.152 -26.498   5.031  0.00  0.00    +0.142 HD
ENDBRANCH  19  22
ENDBRANCH  13  16
ENDBRANCH   1  13
TORSDOF 6
ENDMDL
MODEL 6
REMARK VINA RESULT:      -7.6      2.556      2.861
REMARK  Name = *****
REMARK                            x       y       z     vdW  Elec       q    Type
REMARK                         _______ _______ _______ _____ _____    ______ ____
ROOT
ATOM      1  N   LIG    1       27.901 -21.393   7.094  0.00  0.00    -0.199 N 
ATOM      2  H   LIG    1       27.895 -21.167   6.102  0.00  0.00    +0.175 HD
ENDROOT
BRANCH   1   7
ATOM      3  C   LIG    1       29.974 -18.841   8.643  0.00  0.00    +0.222 A 
ATOM      4  N   LIG    1       30.938 -19.614   9.162  0.00  0.00    -0.160 NA
ATOM      5  C   LIG    1       30.832 -20.927   8.939  0.00  0.00    +0.323 A 
ATOM      6  N   LIG    1       29.843 -21.517   8.267  0.00  0.00    -0.178 NA
ATOM      7  C   LIG    1       28.912 -20.689   7.783  0.00  0.00    +0.148 A 
ATOM      8  C   LIG    1       28.917 -19.325   7.919  0.00  0.00    +0.112 A 
BRANCH   3  10
ATOM      9  C   LIG    1       31.247 -17.079   9.484  0.00  0.00    +0.278 C 
ATOM     10  O   LIG    1       30.007 -17.487   8.905  0.00  0.00    -0.479 OA
ENDBRANCH   3  10
BRANCH   5  11
ATOM     11  O   LIG    1       31.805 -21.775   9.420  0.00  0.00    -0.466 OA
ATOM     12  C   LIG    1       31.967 -22.927   8.600  0.00  0.00    +0.280 C 
ENDBRANCH   5  11
ENDBRANCH   1   7
BRANCH   1  13
ATOM     13  S   LIG    1       26.339 -21.320   7.715  0.00  0.00    +0.073 S 
ATOM     14  O   LIG    1       25.644 -20.231   7.072  0.00  0.00    -0.150 OA
ATOM     15  O   LIG    1       26.477 -21.365   9.161  0.00  0.00    -0.150 OA
BRANCH  13  16
ATOM     16  C   LIG    1       25.571 -22.841   7.198  0.00  0.00    +0.109 A 
ATOM     17  C   LIG    1       26.384 -23.921   6.836  0.00  0.00    +0.030 A 
ATOM     18  C   LIG    1       25.799 -25.100   6.373  0.00  0.00    +0.024 A 
ATOM     19  C   LIG    1       24.409 -25.226   6.292  0.00  0.00    +0.025 A 
ATOM     20  C   LIG    1       23.614 -24.117   6.597  0.00  0.00    +0.024 A 
ATOM     21  C   LIG    1       24.186 -22.927   7.061  0.00  0.00    +0.030 A 
BRANCH  19  22
ATOM     22  N   LIG    1       23.845 -26.353   5.682  0.00  0.00    -0.358 N 
ATOM     23  H   LIG    1       24.032 -27.224   6.167  0.00  0.00    +0.142 HD
ATOM     24  H   LIG    1       22.866 -26.246   5.440  0.00  0.00    +0.142 HD
ENDBRANCH  19  22
ENDBRANCH  13  16
ENDBRANCH   1  13
TORSDOF 6
ENDMDL
MODEL 7
REMARK VINA RESULT:      -7.6      1.794      2.901
REMARK  Name = *****
REMARK                            x       y       z     vdW  Elec       q    Type
REMARK                         _______ _______ _______ _____ _____    ______ ____
ROOT
ATOM      1  N   LIG    1       27.880 -21.677   6.916  0.00  0.00    -0.199 N 
ATOM      2  H   LIG    1       27.636 -21.863   5.946  0.00  0.00    +0.175 HD
ENDROOT
BRANCH   1   7
ATOM      3  C   LIG    1       30.745 -19.679   7.917  0.00  0.00    +0.222 A 
ATOM      4  N   LIG    1       30.696 -18.723   6.979  0.00  0.00    -0.160 NA
ATOM      5  C   LIG    1       29.699 -18.809   6.094  0.00  0.00    +0.323 A 
ATOM      6  N   LIG    1       28.775 -19.771   6.064  0.00  0.00    -0.178 NA
ATOM      7  C   LIG    1       28.887 -20.695   7.023  0.00  0.00    +0.148 A 
ATOM      8  C   LIG    1       29.846 -20.709   8.004  0.00  0.00    +0.112 A 
BRANCH   3  10
ATOM      9  C   LIG    1       31.940 -18.405   9.460  0.00  0.00    +0.278 C 
ATOM     10  O   LIG    1       31.797 -19.668   8.809  0.00  0.00    -0.479 OA
ENDBRANCH   3  10
BRANCH   5  11
ATOM     11  O   LIG    1       29.573 -17.843   5.120  0.00  0.00    -0.466 OA
ATOM     12  C   LIG    1       28.231 -17.710   4.664  0.00  0.00    +0.280 C 
ENDBRANCH   5  11
ENDBRANCH   1   7
BRANCH   1  13
ATOM     13  S   LIG    1       26.486 -21.468   7.833  0.00  0.00    +0.073 S 
ATOM     14  O   LIG    1       26.723 -20.411   8.787  0.00  0.00    -0.150 OA
ATOM     15  O   LIG    1       26.090 -22.794   8.275  0.00  0.00    -0.150 OA
BRANCH  13  16
ATOM     16  C   LIG    1       25.258 -20.896   6.676  0.00  0.00    +0.109 A 
ATOM     17  C   LIG    1       25.670 -20.481   5.404  0.00  0.00    +0.030 A 
ATOM     18  C   LIG    1       24.728 -19.976   4.506  0.00  0.00    +0.024 A 
ATOM     19  C   LIG    1       23.376 -19.904   4.851  0.00  0.00    +0.025 A 
ATOM     20  C   LIG    1       22.992 -20.263   6.147  0.00  0.00    +0.024 A 
ATOM     21  C   LIG    1       23.924 -20.770   7.060  0.00  0.00    +0.030 A 
BRANCH  19  22
ATOM     22  N   LIG    1       22.473 -19.254   4.002  0.00  0.00    -0.358 N 
ATOM     23  H   LIG    1       22.878 -18.490   3.471  0.00  0.00    +0.142 HD
ATOM     24  H   LIG    1       21.924 -19.880   3.423  0.00  0.00    +0.142 HD
ENDBRANCH  19  22
ENDBRANCH  13  16
ENDBRANCH   1  13
TORSDOF 6
ENDMDL
MODEL 8
REMARK VINA RESULT:      -7.5      2.343      7.228
REMARK  Name = *****
REMARK                            x       y       z     vdW  Elec       q    Type
REMARK                         _______ _______ _______ _____ _____    ______ ____
ROOT
ATOM      1  N   LIG    1       29.500 -20.121   7.939  0.00  0.00    -0.199 N 
ATOM      2  H   LIG    1       29.423 -20.074   8.952  0.00  0.00    +0.175 HD
ENDROOT
BRANCH   1   7
ATOM      3  C   LIG    1       26.728 -20.107   5.588  0.00  0.00    +0.222 A 
ATOM      4  N   LIG    1       25.735 -20.488   6.404  0.00  0.00    -0.160 NA
ATOM      5  C   LIG    1       26.064 -20.703   7.681  0.00  0.00    +0.323 A 
ATOM      6  N   LIG    1       27.291 -20.587   8.191  0.00  0.00    -0.178 NA
ATOM      7  C   LIG    1       28.234 -20.211   7.322  0.00  0.00    +0.148 A 
ATOM      8  C   LIG    1       28.025 -19.936   5.995  0.00  0.00    +0.112 A 
BRANCH   3  10
ATOM      9  C   LIG    1       25.051 -20.044   3.972  0.00  0.00    +0.278 C 
ATOM     10  O   LIG    1       26.448 -19.940   4.248  0.00  0.00    -0.479 OA
ENDBRANCH   3  10
BRANCH   5  11
ATOM     11  O   LIG    1       25.085 -21.069   8.579  0.00  0.00    -0.466 OA
ATOM     12  C   LIG    1       23.908 -21.536   7.929  0.00  0.00    +0.280 C 
ENDBRANCH   5  11
ENDBRANCH   1   7
BRANCH   1  13
ATOM     13  S   LIG    1       30.556 -18.937   7.382  0.00  0.00    +0.073 S 
ATOM     14  O   LIG    1       29.849 -18.104   6.438  0.00  0.00    -0.150 OA
ATOM     15  O   LIG    1       31.773 -19.630   6.996  0.00  0.00    -0.150 OA
BRANCH  13  16
ATOM     16  C   LIG    1       30.929 -17.946   8.814  0.00  0.00    +0.109 A 
ATOM     17  C   LIG    1       32.172 -17.308   8.890  0.00  0.00    +0.030 A 
ATOM     18  C   LIG    1       32.502 -16.576  10.032  0.00  0.00    +0.024 A 
ATOM     19  C   LIG    1       31.596 -16.451  11.090  0.00  0.00    +0.025 A 
ATOM     20  C   LIG    1       30.385 -17.148  11.025  0.00  0.00    +0.024 A 
ATOM     21  C   LIG    1       30.040 -17.886   9.887  0.00  0.00    +0.030 A 
BRANCH  19  22
ATOM     22  N   LIG    1       32.000 -15.847  12.286  0.00  0.00    -0.358 N 
ATOM     23  H   LIG    1       32.097 -16.491  13.064  0.00  0.00    +0.142 HD
ATOM     24  H   LIG    1       32.800 -15.231  12.191  0.00  0.00    +0.142 HD
ENDBRANCH  19  22
ENDBRANCH  13  16
ENDBRANCH   1  13
TORSDOF 6
ENDMDL
MODEL 9
REMARK VINA RESULT:      -7.5      2.775      3.470
REMARK  Name = *****
REMARK                            x       y       z     vdW  Elec       q    Type
REMARK                         _______ _______ _______ _____ _____    ______ ____
ROOT
ATOM      1  N   LIG    1       28.198 -21.669   7.685  0.00  0.00    -0.199 N 
ATOM      2  H   LIG    1       28.327 -22.294   6.893  0.00  0.00    +0.175 HD
ENDROOT
BRANCH   1   7
ATOM      3  C   LIG    1       30.866 -19.366   8.570  0.00  0.00    +0.222 A 
ATOM      4  N   LIG    1       30.914 -18.631   7.450  0.00  0.00    -0.160 NA
ATOM      5  C   LIG    1       30.038 -18.949   6.492  0.00  0.00    +0.323 A 
ATOM      6  N   LIG    1       29.149 -19.940   6.559  0.00  0.00    -0.178 NA
ATOM      7  C   LIG    1       29.160 -20.638   7.699  0.00  0.00    +0.148 A 
ATOM      8  C   LIG    1       29.988 -20.398   8.767  0.00  0.00    +0.112 A 
BRANCH   3  10
ATOM      9  C   LIG    1       32.050 -17.721   9.721  0.00  0.00    +0.278 C 
ATOM     10  O   LIG    1       31.796 -19.117   9.557  0.00  0.00    -0.479 OA
ENDBRANCH   3  10
BRANCH   5  11
ATOM     11  O   LIG    1       30.014 -18.214   5.327  0.00  0.00    -0.466 OA
ATOM     12  C   LIG    1       28.686 -17.931   4.898  0.00  0.00    +0.280 C 
ENDBRANCH   5  11
ENDBRANCH   1   7
BRANCH   1  13
ATOM     13  S   LIG    1       26.580 -21.229   7.819  0.00  0.00    +0.073 S 
ATOM     14  O   LIG    1       26.326 -20.148   6.897  0.00  0.00    -0.150 OA
ATOM     15  O   LIG    1       26.320 -21.072   9.239  0.00  0.00    -0.150 OA
BRANCH  13  16
ATOM     16  C   LIG    1       25.671 -22.654   7.257  0.00  0.00    +0.109 A 
ATOM     17  C   LIG    1       26.379 -23.788   6.844  0.00  0.00    +0.030 A 
ATOM     18  C   LIG    1       25.684 -24.891   6.345  0.00  0.00    +0.024 A 
ATOM     19  C   LIG    1       24.287 -24.888   6.280  0.00  0.00    +0.025 A 
ATOM     20  C   LIG    1       23.600 -23.723   6.637  0.00  0.00    +0.024 A 
ATOM     21  C   LIG    1       24.283 -22.608   7.137  0.00  0.00    +0.030 A 
BRANCH  19  22
ATOM     22  N   LIG    1       23.617 -25.935   5.637  0.00  0.00    -0.358 N 
ATOM     23  H   LIG    1       24.068 -26.257   4.788  0.00  0.00    +0.142 HD
ATOM     24  H   LIG    1       23.355 -26.698   6.251  0.00  0.00    +0.142 HD
ENDBRANCH  19  22
ENDBRANCH  13  16
ENDBRANCH   1  13
TORSDOF 6
ENDMDL
