MODEL 1
REMARK VINA RESULT:      -6.5      0.000      0.000
REMARK  Name = *****
REMARK                            x       y       z     vdW  Elec       q    Type
REMARK                         _______ _______ _______ _____ _____    ______ ____
ROOT
ATOM      1  C   LIG    1       27.873 -17.294   4.398  0.00  0.00    +0.053 C 
ATOM      2  C   LIG    1       26.854 -16.764   3.393  0.00  0.00    +0.187 C 
ENDROOT
BRANCH   2   3
ATOM      3  O   LIG    1       26.494 -15.424   3.789  0.00  0.00    -0.457 OA
BRANCH   3   4
ATOM      4  C   LIG    1       26.503 -14.470   2.824  0.00  0.00    +0.340 C 
ATOM      5  O   LIG    1       27.175 -14.454   1.812  0.00  0.00    -0.245 OA
BRANCH   4   6
ATOM      6  C   LIG    1       25.507 -13.428   3.177  0.00  0.00    +0.059 A 
ATOM      7  C   LIG    1       25.066 -13.318   4.501  0.00  0.00    +0.015 A 
ATOM      8  C   LIG    1       24.132 -12.337   4.843  0.00  0.00    +0.001 A 
ATOM      9  C   LIG    1       23.630 -11.478   3.864  0.00  0.00    +0.000 A 
ATOM     10  C   LIG    1       24.055 -11.596   2.541  0.00  0.00    +0.001 A 
ATOM     11  C   LIG    1       24.991 -12.570   2.196  0.00  0.00    +0.015 A 
ENDBRANCH   4   6
ENDBRANCH   3   4
ENDBRANCH   2   3
BRANCH   2  12
ATOM     12  C   LIG    1       25.583 -17.637   3.327  0.00  0.00    +0.125 C 
BRANCH  12  13
ATOM     13  N   LIG    1       25.736 -18.928   4.015  0.00  0.00    -0.310 NA
ATOM     14  H   LIG    1       25.606 -18.775   5.017  0.00  0.00    +0.122 HD
BRANCH  13  15
ATOM     15  C   LIG    1       24.807 -19.969   3.546  0.00  0.00    +0.054 C 
ATOM     16  C   LIG    1       24.684 -21.156   4.519  0.00  0.00    +0.019 C 
ATOM     17  C   LIG    1       24.119 -20.729   5.873  0.00  0.00    +0.002 C 
ATOM     18  C   LIG    1       22.748 -20.077   5.713  0.00  0.00    +0.000 C 
ATOM     19  C   LIG    1       22.757 -18.940   4.691  0.00  0.00    +0.002 C 
ATOM     20  C   LIG    1       23.403 -19.354   3.365  0.00  0.00    +0.019 C 
ENDBRANCH  13  15
ENDBRANCH  12  13
ENDBRANCH   2  12
TORSDOF 6
ENDMDL
MODEL 2
REMARK VINA RESULT:      -6.1      1.209      1.875
REMARK  Name = *****
REMARK                            x       y       z     vdW  Elec       q    Type
REMARK                         _______ _______ _______ _____ _____    ______ ____
ROOT
ATOM      1  C   LIG    1       23.689 -16.772   3.860  0.00  0.00    +0.053 C 
ATOM      2  C   LIG    1       25.165 -17.161   3.806  0.00  0.00    +0.187 C 
ENDROOT
BRANCH   2   3
ATOM      3  O   LIG    1       25.826 -16.271   2.885  0.00  0.00    -0.457 OA
BRANCH   3   4
ATOM      4  C   LIG    1       26.478 -15.204   3.414  0.00  0.00    +0.340 C 
ATOM      5  O   LIG    1       27.611 -15.178   3.852  0.00  0.00    -0.245 OA
BRANCH   4   6
ATOM      6  C   LIG    1       25.587 -14.019   3.342  0.00  0.00    +0.059 A 
ATOM      7  C   LIG    1       25.405 -13.370   2.115  0.00  0.00    +0.015 A 
ATOM      8  C   LIG    1       24.564 -12.256   2.037  0.00  0.00    +0.001 A 
ATOM      9  C   LIG    1       23.920 -11.784   3.182  0.00  0.00    +0.000 A 
ATOM     10  C   LIG    1       24.114 -12.419   4.408  0.00  0.00    +0.001 A 
ATOM     11  C   LIG    1       24.947 -13.534   4.490  0.00  0.00    +0.015 A 
ENDBRANCH   4   6
ENDBRANCH   3   4
ENDBRANCH   2   3
BRANCH   2  12
ATOM     12  C   LIG    1       25.373 -18.620   3.348  0.00  0.00    +0.125 C 
BRANCH  12  13
ATOM     13  N   LIG    1       25.825 -19.504   4.432  0.00  0.00    -0.310 NA
ATOM     14  H   LIG    1       25.682 -19.021   5.321  0.00  0.00    +0.122 HD
BRANCH  13  15
ATOM     15  C   LIG    1       25.146 -20.811   4.462  0.00  0.00    +0.054 C 
ATOM     16  C   LIG    1       25.350 -21.571   5.784  0.00  0.00    +0.019 C 
ATOM     17  C   LIG    1       24.762 -20.814   6.975  0.00  0.00    +0.002 C 
ATOM     18  C   LIG    1       23.271 -20.556   6.777  0.00  0.00    +0.000 C 
ATOM     19  C   LIG    1       22.966 -19.882   5.440  0.00  0.00    +0.002 C 
ATOM     20  C   LIG    1       23.631 -20.600   4.261  0.00  0.00    +0.019 C 
ENDBRANCH  13  15
ENDBRANCH  12  13
ENDBRANCH   2  12
TORSDOF 6
ENDMDL
MODEL 3
REMARK VINA RESULT:      -5.9      1.988      7.054
REMARK  Name = *****
REMARK                            x       y       z     vdW  Elec       q    Type
REMARK                         _______ _______ _______ _____ _____    ______ ____
ROOT
ATOM      1  C   LIG    1       24.155 -17.214   3.769  0.00  0.00    +0.053 C 
ATOM      2  C   LIG    1       25.555 -17.578   3.281  0.00  0.00    +0.187 C 
ENDROOT
BRANCH   2   3
ATOM      3  O   LIG    1       25.935 -18.821   3.904  0.00  0.00    -0.457 OA
BRANCH   3   4
ATOM      4  C   LIG    1       25.230 -19.928   3.558  0.00  0.00    +0.340 C 
ATOM      5  O   LIG    1       25.137 -20.425   2.454  0.00  0.00    -0.245 OA
BRANCH   4   6
ATOM      6  C   LIG    1       24.596 -20.489   4.778  0.00  0.00    +0.059 A 
ATOM      7  C   LIG    1       23.211 -20.696   4.799  0.00  0.00    +0.015 A 
ATOM      8  C   LIG    1       22.607 -21.228   5.941  0.00  0.00    +0.001 A 
ATOM      9  C   LIG    1       23.380 -21.539   7.062  0.00  0.00    +0.000 A 
ATOM     10  C   LIG    1       24.756 -21.317   7.048  0.00  0.00    +0.001 A 
ATOM     11  C   LIG    1       25.365 -20.792   5.909  0.00  0.00    +0.015 A 
ENDBRANCH   4   6
ENDBRANCH   3   4
ENDBRANCH   2   3
BRANCH   2  12
ATOM     12  C   LIG    1       26.599 -16.494   3.624  0.00  0.00    +0.125 C 
BRANCH  12  13
ATOM     13  N   LIG    1       26.491 -15.301   2.770  0.00  0.00    -0.310 NA
ATOM     14  H   LIG    1       25.562 -15.294   2.344  0.00  0.00    +0.122 HD
BRANCH  13  15
ATOM     15  C   LIG    1       26.720 -14.032   3.482  0.00  0.00    +0.054 C 
ATOM     16  C   LIG    1       26.514 -12.792   2.594  0.00  0.00    +0.019 C 
ATOM     17  C   LIG    1       25.077 -12.685   2.087  0.00  0.00    +0.002 C 
ATOM     18  C   LIG    1       24.089 -12.630   3.250  0.00  0.00    +0.000 C 
ATOM     19  C   LIG    1       24.283 -13.781   4.236  0.00  0.00    +0.002 C 
ATOM     20  C   LIG    1       25.743 -13.935   4.672  0.00  0.00    +0.019 C 
ENDBRANCH  13  15
ENDBRANCH  12  13
ENDBRANCH   2  12
TORSDOF 6
ENDMDL
MODEL 4
REMARK VINA RESULT:      -5.6      2.406      6.966
REMARK  Name = *****
REMARK                            x       y       z     vdW  Elec       q    Type
REMARK                         _______ _______ _______ _____ _____    ______ ____
ROOT
ATOM      1  C   LIG    1       22.345 -18.814   4.886  0.00  0.00    +0.053 C 
ATOM      2  C   LIG    1       23.115 -17.929   3.909  0.00  0.00    +0.187 C 
ENDROOT
BRANCH   2   3
ATOM      3  O   LIG    1       24.484 -18.382   3.884  0.00  0.00    -0.457 OA
BRANCH   3   4
ATOM      4  C   LIG    1       24.693 -19.722   3.842  0.00  0.00    +0.340 C 
ATOM      5  O   LIG    1       24.254 -20.509   3.026  0.00  0.00    -0.245 OA
BRANCH   4   6
ATOM      6  C   LIG    1       25.600 -20.098   4.954  0.00  0.00    +0.059 A 
ATOM      7  C   LIG    1       25.106 -20.872   6.013  0.00  0.00    +0.015 A 
ATOM      8  C   LIG    1       25.954 -21.234   7.062  0.00  0.00    +0.001 A 
ATOM      9  C   LIG    1       27.286 -20.815   7.062  0.00  0.00    +0.000 A 
ATOM     10  C   LIG    1       27.775 -20.031   6.018  0.00  0.00    +0.001 A 
ATOM     11  C   LIG    1       26.934 -19.671   4.965  0.00  0.00    +0.015 A 
ENDBRANCH   4   6
ENDBRANCH   3   4
ENDBRANCH   2   3
BRANCH   2  12
ATOM     12  C   LIG    1       23.077 -16.438   4.308  0.00  0.00    +0.125 C 
BRANCH  12  13
ATOM     13  N   LIG    1       24.263 -15.693   3.860  0.00  0.00    -0.310 NA
ATOM     14  H   LIG    1       24.291 -15.719   2.838  0.00  0.00    +0.122 HD
BRANCH  13  15
ATOM     15  C   LIG    1       24.302 -14.296   4.323  0.00  0.00    +0.054 C 
ATOM     16  C   LIG    1       25.680 -13.874   4.865  0.00  0.00    +0.019 C 
ATOM     17  C   LIG    1       26.762 -13.945   3.789  0.00  0.00    +0.002 C 
ATOM     18  C   LIG    1       26.408 -13.060   2.596  0.00  0.00    +0.000 C 
ATOM     19  C   LIG    1       25.011 -13.350   2.048  0.00  0.00    +0.002 C 
ATOM     20  C   LIG    1       23.944 -13.362   3.148  0.00  0.00    +0.019 C 
ENDBRANCH  13  15
ENDBRANCH  12  13
ENDBRANCH   2  12
TORSDOF 6
ENDMDL
MODEL 5
REMARK VINA RESULT:      -5.6      2.444      7.191
REMARK  Name = *****
REMARK                            x       y       z     vdW  Elec       q    Type
REMARK                         _______ _______ _______ _____ _____    ______ ____
ROOT
ATOM      1  C   LIG    1       21.984 -15.636   5.947  0.00  0.00    +0.053 C 
ATOM      2  C   LIG    1       22.351 -15.908   4.491  0.00  0.00    +0.187 C 
ENDROOT
BRANCH   2   3
ATOM      3  O   LIG    1       23.081 -17.150   4.440  0.00  0.00    -0.457 OA
BRANCH   3   4
ATOM      4  C   LIG    1       22.355 -18.290   4.316  0.00  0.00    +0.340 C 
ATOM      5  O   LIG    1       21.237 -18.403   3.855  0.00  0.00    -0.245 OA
BRANCH   4   6
ATOM      6  C   LIG    1       23.170 -19.429   4.808  0.00  0.00    +0.059 A 
ATOM      7  C   LIG    1       24.367 -19.749   4.155  0.00  0.00    +0.015 A 
ATOM      8  C   LIG    1       25.143 -20.817   4.614  0.00  0.00    +0.001 A 
ATOM      9  C   LIG    1       24.720 -21.569   5.711  0.00  0.00    +0.000 A 
ATOM     10  C   LIG    1       23.520 -21.262   6.351  0.00  0.00    +0.001 A 
ATOM     11  C   LIG    1       22.745 -20.194   5.901  0.00  0.00    +0.015 A 
ENDBRANCH   4   6
ENDBRANCH   3   4
ENDBRANCH   2   3
BRANCH   2  12
ATOM     12  C   LIG    1       23.213 -14.782   3.881  0.00  0.00    +0.125 C 
BRANCH  12  13
ATOM     13  N   LIG    1       24.570 -14.727   4.446  0.00  0.00    -0.310 NA
ATOM     14  H   LIG    1       25.170 -15.348   3.899  0.00  0.00    +0.122 HD
BRANCH  13  15
ATOM     15  C   LIG    1       25.152 -13.375   4.478  0.00  0.00    +0.054 C 
ATOM     16  C   LIG    1       26.506 -13.313   5.207  0.00  0.00    +0.019 C 
ATOM     17  C   LIG    1       27.568 -14.164   4.512  0.00  0.00    +0.002 C 
ATOM     18  C   LIG    1       27.765 -13.719   3.065  0.00  0.00    +0.000 C 
ATOM     19  C   LIG    1       26.451 -13.663   2.287  0.00  0.00    +0.002 C 
ATOM     20  C   LIG    1       25.365 -12.880   3.032  0.00  0.00    +0.019 C 
ENDBRANCH  13  15
ENDBRANCH  12  13
ENDBRANCH   2  12
TORSDOF 6
ENDMDL
MODEL 6
REMARK VINA RESULT:      -5.6      2.478      6.822
REMARK  Name = *****
REMARK                            x       y       z     vdW  Elec       q    Type
REMARK                         _______ _______ _______ _____ _____    ______ ____
ROOT
ATOM      1  C   LIG    1       29.475 -18.518   5.405  0.00  0.00    +0.053 C 
ATOM      2  C   LIG    1       27.965 -18.408   5.214  0.00  0.00    +0.187 C 
ENDROOT
BRANCH   2   3
ATOM      3  O   LIG    1       27.456 -19.726   4.923  0.00  0.00    -0.457 OA
BRANCH   3   4
ATOM      4  C   LIG    1       26.931 -20.429   5.958  0.00  0.00    +0.340 C 
ATOM      5  O   LIG    1       27.535 -20.945   6.878  0.00  0.00    -0.245 OA
BRANCH   4   6
ATOM      6  C   LIG    1       25.454 -20.446   5.820  0.00  0.00    +0.059 A 
ATOM      7  C   LIG    1       24.873 -20.091   4.597  0.00  0.00    +0.015 A 
ATOM      8  C   LIG    1       23.483 -20.109   4.457  0.00  0.00    +0.001 A 
ATOM      9  C   LIG    1       22.675 -20.467   5.539  0.00  0.00    +0.000 A 
ATOM     10  C   LIG    1       23.251 -20.804   6.763  0.00  0.00    +0.001 A 
ATOM     11  C   LIG    1       24.638 -20.794   6.905  0.00  0.00    +0.015 A 
ENDBRANCH   4   6
ENDBRANCH   3   4
ENDBRANCH   2   3
BRANCH   2  12
ATOM     12  C   LIG    1       27.584 -17.448   4.067  0.00  0.00    +0.125 C 
BRANCH  12  13
ATOM     13  N   LIG    1       27.735 -16.031   4.430  0.00  0.00    -0.310 NA
ATOM     14  H   LIG    1       28.710 -15.867   4.688  0.00  0.00    +0.122 HD
BRANCH  13  15
ATOM     15  C   LIG    1       27.339 -15.094   3.364  0.00  0.00    +0.054 C 
ATOM     16  C   LIG    1       25.813 -14.980   3.192  0.00  0.00    +0.019 C 
ATOM     17  C   LIG    1       25.137 -14.429   4.448  0.00  0.00    +0.002 C 
ATOM     18  C   LIG    1       25.698 -13.058   4.816  0.00  0.00    +0.000 C 
ATOM     19  C   LIG    1       27.223 -13.059   4.918  0.00  0.00    +0.002 C 
ATOM     20  C   LIG    1       27.889 -13.691   3.692  0.00  0.00    +0.019 C 
ENDBRANCH  13  15
ENDBRANCH  12  13
ENDBRANCH   2  12
TORSDOF 6
ENDMDL
MODEL 7
REMARK VINA RESULT:      -5.1      1.810      2.282
REMARK  Name = *****
REMARK                            x       y       z     vdW  Elec       q    Type
REMARK                         _______ _______ _______ _____ _____    ______ ____
ROOT
ATOM      1  C   LIG    1       27.300 -16.932   3.858  0.00  0.00    +0.053 C 
ATOM      2  C   LIG    1       25.903 -16.817   3.255  0.00  0.00    +0.187 C 
ENDROOT
BRANCH   2   3
ATOM      3  O   LIG    1       25.141 -15.903   4.069  0.00  0.00    -0.457 OA
BRANCH   3   4
ATOM      4  C   LIG    1       25.043 -14.621   3.634  0.00  0.00    +0.340 C 
ATOM      5  O   LIG    1       24.078 -14.092   3.119  0.00  0.00    -0.245 OA
BRANCH   4   6
ATOM      6  C   LIG    1       26.318 -13.920   3.925  0.00  0.00    +0.059 A 
ATOM      7  C   LIG    1       26.612 -13.545   5.242  0.00  0.00    +0.015 A 
ATOM      8  C   LIG    1       27.813 -12.889   5.525  0.00  0.00    +0.001 A 
ATOM      9  C   LIG    1       28.710 -12.597   4.496  0.00  0.00    +0.000 A 
ATOM     10  C   LIG    1       28.412 -12.955   3.182  0.00  0.00    +0.001 A 
ATOM     11  C   LIG    1       27.217 -13.615   2.895  0.00  0.00    +0.015 A 
ENDBRANCH   4   6
ENDBRANCH   3   4
ENDBRANCH   2   3
BRANCH   2  12
ATOM     12  C   LIG    1       25.174 -18.176   3.194  0.00  0.00    +0.125 C 
BRANCH  12  13
ATOM     13  N   LIG    1       25.651 -19.131   4.206  0.00  0.00    -0.310 NA
ATOM     14  H   LIG    1       25.485 -18.728   5.130  0.00  0.00    +0.122 HD
BRANCH  13  15
ATOM     15  C   LIG    1       25.019 -20.458   4.122  0.00  0.00    +0.054 C 
ATOM     16  C   LIG    1       25.327 -21.355   5.334  0.00  0.00    +0.019 C 
ATOM     17  C   LIG    1       24.786 -20.763   6.635  0.00  0.00    +0.002 C 
ATOM     18  C   LIG    1       23.277 -20.544   6.551  0.00  0.00    +0.000 C 
ATOM     19  C   LIG    1       22.871 -19.736   5.319  0.00  0.00    +0.002 C 
ATOM     20  C   LIG    1       23.489 -20.287   4.030  0.00  0.00    +0.019 C 
ENDBRANCH  13  15
ENDBRANCH  12  13
ENDBRANCH   2  12
TORSDOF 6
ENDMDL
MODEL 8
REMARK VINA RESULT:      -5.1      2.223      3.834
REMARK  Name = *****
REMARK                            x       y       z     vdW  Elec       q    Type
REMARK                         _______ _______ _______ _____ _____    ______ ____
ROOT
ATOM      1  C   LIG    1       20.771 -17.893   3.528  0.00  0.00    +0.053 C 
ATOM      2  C   LIG    1       21.991 -18.002   4.439  0.00  0.00    +0.187 C 
ENDROOT
BRANCH   2   3
ATOM      3  O   LIG    1       22.963 -17.033   3.999  0.00  0.00    -0.457 OA
BRANCH   3   4
ATOM      4  C   LIG    1       22.970 -15.832   4.631  0.00  0.00    +0.340 C 
ATOM      5  O   LIG    1       22.266 -15.486   5.559  0.00  0.00    -0.245 OA
BRANCH   4   6
ATOM      6  C   LIG    1       24.029 -14.984   4.030  0.00  0.00    +0.059 A 
ATOM      7  C   LIG    1       25.249 -15.565   3.661  0.00  0.00    +0.015 A 
ATOM      8  C   LIG    1       26.249 -14.775   3.090  0.00  0.00    +0.001 A 
ATOM      9  C   LIG    1       26.038 -13.407   2.900  0.00  0.00    +0.000 A 
ATOM     10  C   LIG    1       24.831 -12.824   3.282  0.00  0.00    +0.001 A 
ATOM     11  C   LIG    1       23.827 -13.610   3.847  0.00  0.00    +0.015 A 
ENDBRANCH   4   6
ENDBRANCH   3   4
ENDBRANCH   2   3
BRANCH   2  12
ATOM     12  C   LIG    1       22.623 -19.410   4.410  0.00  0.00    +0.125 C 
BRANCH  12  13
ATOM     13  N   LIG    1       23.014 -19.892   5.744  0.00  0.00    -0.310 NA
ATOM     14  H   LIG    1       22.175 -19.946   6.324  0.00  0.00    +0.122 HD
BRANCH  13  15
ATOM     15  C   LIG    1       23.697 -21.196   5.733  0.00  0.00    +0.054 C 
ATOM     16  C   LIG    1       24.633 -21.382   4.525  0.00  0.00    +0.019 C 
ATOM     17  C   LIG    1       25.770 -20.361   4.523  0.00  0.00    +0.002 C 
ATOM     18  C   LIG    1       26.593 -20.454   5.805  0.00  0.00    +0.000 C 
ATOM     19  C   LIG    1       25.728 -20.371   7.062  0.00  0.00    +0.002 C 
ATOM     20  C   LIG    1       24.540 -21.338   7.017  0.00  0.00    +0.019 C 
ENDBRANCH  13  15
ENDBRANCH  12  13
ENDBRANCH   2  12
TORSDOF 6
ENDMDL
MODEL 9
REMARK VINA RESULT:      -4.7      2.724      7.152
REMARK  Name = *****
REMARK                            x       y       z     vdW  Elec       q    Type
REMARK                         _______ _______ _______ _____ _____    ______ ____
ROOT
ATOM      1  C   LIG    1       22.826 -17.884   4.011  0.00  0.00    +0.053 C 
ATOM      2  C   LIG    1       24.125 -18.625   3.710  0.00  0.00    +0.187 C 
ENDROOT
BRANCH   2   3
ATOM      3  O   LIG    1       24.502 -19.360   4.892  0.00  0.00    -0.457 OA
BRANCH   3   4
ATOM      4  C   LIG    1       25.081 -20.574   4.709  0.00  0.00    +0.340 C 
ATOM      5  O   LIG    1       24.653 -21.500   4.050  0.00  0.00    -0.245 OA
BRANCH   4   6
ATOM      6  C   LIG    1       26.382 -20.593   5.423  0.00  0.00    +0.059 A 
ATOM      7  C   LIG    1       27.358 -19.642   5.102  0.00  0.00    +0.015 A 
ATOM      8  C   LIG    1       28.583 -19.650   5.773  0.00  0.00    +0.001 A 
ATOM      9  C   LIG    1       28.838 -20.613   6.752  0.00  0.00    +0.000 A 
ATOM     10  C   LIG    1       27.874 -21.571   7.061  0.00  0.00    +0.001 A 
ATOM     11  C   LIG    1       26.648 -21.564   6.398  0.00  0.00    +0.015 A 
ENDBRANCH   4   6
ENDBRANCH   3   4
ENDBRANCH   2   3
BRANCH   2  12
ATOM     12  C   LIG    1       25.271 -17.670   3.314  0.00  0.00    +0.125 C 
BRANCH  12  13
ATOM     13  N   LIG    1       25.052 -16.289   3.772  0.00  0.00    -0.310 NA
ATOM     14  H   LIG    1       25.359 -16.222   4.745  0.00  0.00    +0.122 HD
BRANCH  13  15
ATOM     15  C   LIG    1       25.743 -15.273   2.961  0.00  0.00    +0.054 C 
ATOM     16  C   LIG    1       25.037 -13.905   2.971  0.00  0.00    +0.019 C 
ATOM     17  C   LIG    1       24.988 -13.299   4.373  0.00  0.00    +0.002 C 
ATOM     18  C   LIG    1       26.392 -13.135   4.949  0.00  0.00    +0.000 C 
ATOM     19  C   LIG    1       27.201 -14.431   4.894  0.00  0.00    +0.002 C 
ATOM     20  C   LIG    1       27.174 -15.076   3.505  0.00  0.00    +0.019 C 
ENDBRANCH  13  15
ENDBRANCH  12  13
ENDBRANCH   2  12
TORSDOF 6
ENDMDL
