MODEL 1
REMARK VINA RESULT:      -0.4      0.000      0.000
REMARK  Name = *****
REMARK                            x       y       z     vdW  Elec       q    Type
REMARK                         _______ _______ _______ _____ _____    ______ ____
ROOT
ATOM      1  C   LIG    1       26.168 -11.495   2.686  0.00  0.00    +0.014 C 
ATOM      2  C   LIG    1       26.229 -12.839   3.468  0.00  0.00    -0.003 C 
ATOM      3  C   LIG    1       27.479 -12.772   4.391  0.00  0.00    +0.121 C 
ATOM      4  C   LIG    1       28.590 -13.565   3.695  0.00  0.00    +0.032 C 
ATOM      5  C   LIG    1       28.062 -13.913   2.308  0.00  0.00    +0.007 C 
ATOM      6  C   LIG    1       26.540 -13.990   2.467  0.00  0.00    +0.001 C 
ATOM      7  C   LIG    1       25.989 -15.408   2.793  0.00  0.00    +0.001 C 
ATOM      8  C   LIG    1       24.554 -15.330   3.358  0.00  0.00    +0.023 C 
ATOM      9  C   LIG    1       23.985 -16.683   3.744  0.00  0.00    -0.041 A 
ATOM     10  C   LIG    1       24.809 -17.800   3.960  0.00  0.00    -0.040 A 
ATOM     11  C   LIG    1       26.289 -17.750   3.699  0.00  0.00    +0.036 C 
ATOM     12  C   LIG    1       24.227 -19.012   4.363  0.00  0.00    +0.050 A 
ATOM     13  C   LIG    1       22.850 -19.096   4.569  0.00  0.00    +0.132 A 
ATOM     14  C   LIG    1       22.027 -18.001   4.338  0.00  0.00    +0.046 A 
ATOM     15  C   LIG    1       22.598 -16.799   3.932  0.00  0.00    +0.008 A 
ATOM     16  C   LIG    1       24.484 -14.392   4.570  0.00  0.00    +0.009 C 
ATOM     17  C   LIG    1       26.855 -16.328   3.671  0.00  0.00    +0.009 C 
ATOM     18  C   LIG    1       24.877 -12.975   4.190  0.00  0.00    +0.010 C 
ENDROOT
BRANCH   3  19
ATOM     19  O   LIG    1       27.258 -13.254   5.705  0.00  0.00    -0.391 OA
ATOM     20  H   LIG    1       27.043 -12.507   6.286  0.00  0.00    +0.210 HD
ENDBRANCH   3  19
BRANCH  13  21
ATOM     21  O   LIG    1       22.350 -20.363   4.914  0.00  0.00    -0.422 OA
BRANCH  21  22
ATOM     22  C   LIG    1       22.853 -21.042   6.013  0.00  0.00    +0.344 C 
ATOM     23  O   LIG    1       22.227 -21.572   6.917  0.00  0.00    -0.244 OA
BRANCH  22  24
ATOM     24  C   LIG    1       24.334 -20.987   5.969  0.00  0.00    +0.059 A 
ATOM     25  C   LIG    1       25.071 -21.517   4.901  0.00  0.00    +0.015 A 
ATOM     26  C   LIG    1       26.465 -21.450   4.917  0.00  0.00    +0.001 A 
ATOM     27  C   LIG    1       27.124 -20.859   5.996  0.00  0.00    +0.000 A 
ATOM     28  C   LIG    1       26.394 -20.336   7.061  0.00  0.00    +0.001 A 
ATOM     29  C   LIG    1       25.003 -20.403   7.054  0.00  0.00    +0.015 A 
ENDBRANCH  22  24
ENDBRANCH  21  22
ENDBRANCH  13  21
TORSDOF 4
ENDMDL
