MODEL 1
REMARK VINA RESULT:      -2.8      0.000      0.000
REMARK  Name = *****
REMARK                            x       y       z     vdW  Elec       q    Type
REMARK                         _______ _______ _______ _____ _____    ______ ____
ROOT
ATOM      1  C   LIG    1       27.243 -17.784   4.046  0.00  0.00    +0.025 C 
ATOM      2  C   LIG    1       25.725 -17.547   3.910  0.00  0.00    +0.069 C 
ENDROOT
BRANCH   2   3
ATOM      3  N   LIG    1       25.085 -18.654   3.132  0.00  0.00    -0.281 NA
ATOM      4  C   LIG    1       25.545 -20.010   3.534  0.00  0.00    +0.181 C 
ATOM      5  C   LIG    1       25.019 -20.430   4.907  0.00  0.00    +0.233 C 
ATOM      6  O   LIG    1       25.626 -21.211   5.640  0.00  0.00    -0.274 OA
ATOM      7  N   LIG    1       23.793 -19.934   5.273  0.00  0.00    -0.254 N 
ATOM      8  H   LIG    1       23.447 -20.190   6.186  0.00  0.00    +0.158 HD
ATOM      9  C   LIG    1       23.066 -19.009   4.566  0.00  0.00    +0.233 C 
ATOM     10  O   LIG    1       22.032 -18.528   5.016  0.00  0.00    -0.274 OA
ATOM     11  C   LIG    1       23.602 -18.665   3.177  0.00  0.00    +0.181 C 
ENDBRANCH   2   3
BRANCH   2  12
ATOM     12  C   LIG    1       25.491 -16.125   3.278  0.00  0.00    +0.104 C 
BRANCH  12  13
ATOM     13  N   LIG    1       25.291 -14.995   4.220  0.00  0.00    -0.284 NA
ATOM     14  C   LIG    1       26.592 -14.414   4.639  0.00  0.00    +0.181 C 
ATOM     15  C   LIG    1       27.288 -13.662   3.502  0.00  0.00    +0.233 C 
ATOM     16  O   LIG    1       28.510 -13.524   3.444  0.00  0.00    -0.274 OA
ATOM     17  N   LIG    1       26.467 -13.081   2.569  0.00  0.00    -0.254 N 
ATOM     18  H   LIG    1       26.908 -12.539   1.840  0.00  0.00    +0.158 HD
ATOM     19  C   LIG    1       25.094 -13.084   2.597  0.00  0.00    +0.233 C 
ATOM     20  O   LIG    1       24.446 -12.396   1.815  0.00  0.00    -0.274 OA
ATOM     21  C   LIG    1       24.432 -13.907   3.701  0.00  0.00    +0.181 C 
ENDBRANCH  12  13
ENDBRANCH   2  12
TORSDOF 3
ENDMDL
MODEL 2
REMARK VINA RESULT:      -2.7      1.078      2.081
REMARK  Name = *****
REMARK                            x       y       z     vdW  Elec       q    Type
REMARK                         _______ _______ _______ _____ _____    ______ ____
ROOT
ATOM      1  C   LIG    1       27.370 -17.716   3.928  0.00  0.00    +0.025 C 
ATOM      2  C   LIG    1       25.831 -17.604   3.931  0.00  0.00    +0.069 C 
ENDROOT
BRANCH   2   3
ATOM      3  N   LIG    1       25.215 -18.758   3.204  0.00  0.00    -0.281 NA
ATOM      4  C   LIG    1       25.688 -20.085   3.682  0.00  0.00    +0.181 C 
ATOM      5  C   LIG    1       25.149 -20.441   5.069  0.00  0.00    +0.233 C 
ATOM      6  O   LIG    1       25.758 -21.174   5.848  0.00  0.00    -0.274 OA
ATOM      7  N   LIG    1       23.913 -19.943   5.393  0.00  0.00    -0.254 N 
ATOM      8  H   LIG    1       23.559 -20.156   6.315  0.00  0.00    +0.158 HD
ATOM      9  C   LIG    1       23.183 -19.066   4.630  0.00  0.00    +0.233 C 
ATOM     10  O   LIG    1       22.137 -18.575   5.042  0.00  0.00    -0.274 OA
ATOM     11  C   LIG    1       23.732 -18.787   3.232  0.00  0.00    +0.181 C 
ENDBRANCH   2   3
BRANCH   2  12
ATOM     12  C   LIG    1       25.426 -16.205   3.334  0.00  0.00    +0.104 C 
BRANCH  12  13
ATOM     13  N   LIG    1       26.533 -15.289   2.960  0.00  0.00    -0.284 NA
ATOM     14  C   LIG    1       26.024 -14.121   2.197  0.00  0.00    +0.181 C 
ATOM     15  C   LIG    1       25.204 -13.168   3.068  0.00  0.00    +0.233 C 
ATOM     16  O   LIG    1       24.319 -12.443   2.611  0.00  0.00    -0.274 OA
ATOM     17  N   LIG    1       25.549 -13.110   4.394  0.00  0.00    -0.254 N 
ATOM     18  H   LIG    1       25.052 -12.448   4.973  0.00  0.00    +0.158 HD
ATOM     19  C   LIG    1       26.584 -13.794   4.982  0.00  0.00    +0.233 C 
ATOM     20  O   LIG    1       26.927 -13.551   6.136  0.00  0.00    -0.274 OA
ATOM     21  C   LIG    1       27.334 -14.794   4.102  0.00  0.00    +0.181 C 
ENDBRANCH  12  13
ENDBRANCH   2  12
TORSDOF 3
ENDMDL
MODEL 3
REMARK VINA RESULT:      -1.3      0.798      6.252
REMARK  Name = *****
REMARK                            x       y       z     vdW  Elec       q    Type
REMARK                         _______ _______ _______ _____ _____    ______ ____
ROOT
ATOM      1  C   LIG    1       26.850 -16.459   3.313  0.00  0.00    +0.025 C 
ATOM      2  C   LIG    1       25.384 -16.038   3.543  0.00  0.00    +0.069 C 
ENDROOT
BRANCH   2   3
ATOM      3  N   LIG    1       25.311 -14.840   4.438  0.00  0.00    -0.281 NA
ATOM      4  C   LIG    1       26.635 -14.221   4.713  0.00  0.00    +0.181 C 
ATOM      5  C   LIG    1       27.215 -13.498   3.495  0.00  0.00    +0.233 C 
ATOM      6  O   LIG    1       28.425 -13.370   3.314  0.00  0.00    -0.274 OA
ATOM      7  N   LIG    1       26.312 -12.943   2.624  0.00  0.00    -0.254 N 
ATOM      8  H   LIG    1       26.685 -12.481   1.806  0.00  0.00    +0.158 HD
ATOM      9  C   LIG    1       24.948 -13.084   2.694  0.00  0.00    +0.233 C 
ATOM     10  O   LIG    1       24.213 -12.653   1.812  0.00  0.00    -0.274 OA
ATOM     11  C   LIG    1       24.415 -13.760   3.956  0.00  0.00    +0.181 C 
ENDBRANCH   2   3
BRANCH   2  12
ATOM     12  C   LIG    1       24.584 -17.276   4.094  0.00  0.00    +0.104 C 
BRANCH  12  13
ATOM     13  N   LIG    1       24.615 -18.515   3.276  0.00  0.00    -0.284 NA
ATOM     14  C   LIG    1       25.735 -19.398   3.689  0.00  0.00    +0.181 C 
ATOM     15  C   LIG    1       25.508 -20.023   5.067  0.00  0.00    +0.233 C 
ATOM     16  O   LIG    1       26.432 -20.369   5.802  0.00  0.00    -0.274 OA
ATOM     17  N   LIG    1       24.201 -20.243   5.424  0.00  0.00    -0.254 N 
ATOM     18  H   LIG    1       24.035 -20.701   6.308  0.00  0.00    +0.158 HD
ATOM     19  C   LIG    1       23.104 -19.993   4.638  0.00  0.00    +0.233 C 
ATOM     20  O   LIG    1       21.987 -20.379   4.972  0.00  0.00    -0.274 OA
ATOM     21  C   LIG    1       23.361 -19.299   3.301  0.00  0.00    +0.181 C 
ENDBRANCH  12  13
ENDBRANCH   2  12
TORSDOF 3
ENDMDL
MODEL 4
REMARK VINA RESULT:      -1.3      1.406      5.896
REMARK  Name = *****
REMARK                            x       y       z     vdW  Elec       q    Type
REMARK                         _______ _______ _______ _____ _____    ______ ____
ROOT
ATOM      1  C   LIG    1       27.698 -16.314   4.383  0.00  0.00    +0.025 C 
ATOM      2  C   LIG    1       26.694 -16.456   3.219  0.00  0.00    +0.069 C 
ENDROOT
BRANCH   2   3
ATOM      3  N   LIG    1       26.401 -15.121   2.609  0.00  0.00    -0.281 NA
ATOM      4  C   LIG    1       24.983 -14.696   2.756  0.00  0.00    +0.181 C 
ATOM      5  C   LIG    1       24.626 -14.317   4.195  0.00  0.00    +0.233 C 
ATOM      6  O   LIG    1       23.487 -14.431   4.647  0.00  0.00    -0.274 OA
ATOM      7  N   LIG    1       25.634 -13.783   4.957  0.00  0.00    -0.254 N 
ATOM      8  H   LIG    1       25.412 -13.549   5.914  0.00  0.00    +0.158 HD
ATOM      9  C   LIG    1       26.948 -13.675   4.576  0.00  0.00    +0.233 C 
ATOM     10  O   LIG    1       27.813 -13.293   5.357  0.00  0.00    -0.274 OA
ATOM     11  C   LIG    1       27.245 -14.010   3.115  0.00  0.00    +0.181 C 
ENDBRANCH   2   3
BRANCH   2  12
ATOM     12  C   LIG    1       25.409 -17.194   3.748  0.00  0.00    +0.104 C 
BRANCH  12  13
ATOM     13  N   LIG    1       25.058 -18.481   3.098  0.00  0.00    -0.284 NA
ATOM     14  C   LIG    1       26.016 -19.550   3.480  0.00  0.00    +0.181 C 
ATOM     15  C   LIG    1       25.868 -19.970   4.944  0.00  0.00    +0.233 C 
ATOM     16  O   LIG    1       26.797 -20.442   5.598  0.00  0.00    -0.274 OA
ATOM     17  N   LIG    1       24.612 -19.853   5.483  0.00  0.00    -0.254 N 
ATOM     18  H   LIG    1       24.485 -20.173   6.433  0.00  0.00    +0.158 HD
ATOM     19  C   LIG    1       23.488 -19.439   4.812  0.00  0.00    +0.233 C 
ATOM     20  O   LIG    1       22.377 -19.529   5.327  0.00  0.00    -0.274 OA
ATOM     21  C   LIG    1       23.684 -18.956   3.376  0.00  0.00    +0.181 C 
ENDBRANCH  12  13
ENDBRANCH   2  12
TORSDOF 3
ENDMDL
MODEL 5
REMARK VINA RESULT:      -1.1      1.890      6.617
REMARK  Name = *****
REMARK                            x       y       z     vdW  Elec       q    Type
REMARK                         _______ _______ _______ _____ _____    ______ ____
ROOT
ATOM      1  C   LIG    1       22.562 -15.602   4.753  0.00  0.00    +0.025 C 
ATOM      2  C   LIG    1       24.040 -15.887   4.411  0.00  0.00    +0.069 C 
ENDROOT
BRANCH   2   3
ATOM      3  N   LIG    1       24.498 -15.020   3.281  0.00  0.00    -0.281 NA
ATOM      4  C   LIG    1       23.933 -13.644   3.318  0.00  0.00    +0.181 C 
ATOM      5  C   LIG    1       24.522 -12.793   4.446  0.00  0.00    +0.233 C 
ATOM      6  O   LIG    1       23.898 -11.877   4.981  0.00  0.00    -0.274 OA
ATOM      7  N   LIG    1       25.817 -13.064   4.806  0.00  0.00    -0.254 N 
ATOM      8  H   LIG    1       26.208 -12.521   5.564  0.00  0.00    +0.158 HD
ATOM      9  C   LIG    1       26.578 -14.101   4.325  0.00  0.00    +0.233 C 
ATOM     10  O   LIG    1       27.688 -14.348   4.782  0.00  0.00    -0.274 OA
ATOM     11  C   LIG    1       25.971 -14.884   3.162  0.00  0.00    +0.181 C 
ENDBRANCH   2   3
BRANCH   2  12
ATOM     12  C   LIG    1       24.202 -17.426   4.120  0.00  0.00    +0.104 C 
BRANCH  12  13
ATOM     13  N   LIG    1       22.955 -18.210   3.939  0.00  0.00    -0.284 NA
ATOM     14  C   LIG    1       23.149 -19.298   2.947  0.00  0.00    +0.181 C 
ATOM     15  C   LIG    1       24.060 -20.410   3.472  0.00  0.00    +0.233 C 
ATOM     16  O   LIG    1       24.733 -21.125   2.730  0.00  0.00    -0.274 OA
ATOM     17  N   LIG    1       24.042 -20.618   4.828  0.00  0.00    -0.254 N 
ATOM     18  H   LIG    1       24.599 -21.380   5.186  0.00  0.00    +0.158 HD
ATOM     19  C   LIG    1       23.252 -19.950   5.730  0.00  0.00    +0.233 C 
ATOM     20  O   LIG    1       23.177 -20.319   6.898  0.00  0.00    -0.274 OA
ATOM     21  C   LIG    1       22.411 -18.797   5.184  0.00  0.00    +0.181 C 
ENDBRANCH  12  13
ENDBRANCH   2  12
TORSDOF 3
ENDMDL
MODEL 6
REMARK VINA RESULT:      -0.6      1.654      6.331
REMARK  Name = *****
REMARK                            x       y       z     vdW  Elec       q    Type
REMARK                         _______ _______ _______ _____ _____    ______ ____
ROOT
ATOM      1  C   LIG    1       23.301 -15.267   4.063  0.00  0.00    +0.025 C 
ATOM      2  C   LIG    1       24.667 -15.978   4.170  0.00  0.00    +0.069 C 
ENDROOT
BRANCH   2   3
ATOM      3  N   LIG    1       25.626 -15.433   3.158  0.00  0.00    -0.281 NA
ATOM      4  C   LIG    1       25.094 -14.273   2.395  0.00  0.00    +0.181 C 
ATOM      5  C   LIG    1       24.991 -13.004   3.244  0.00  0.00    +0.233 C 
ATOM      6  O   LIG    1       24.160 -12.124   3.023  0.00  0.00    -0.274 OA
ATOM      7  N   LIG    1       25.916 -12.860   4.247  0.00  0.00    -0.254 N 
ATOM      8  H   LIG    1       25.843 -12.035   4.825  0.00  0.00    +0.158 HD
ATOM      9  C   LIG    1       26.839 -13.806   4.620  0.00  0.00    +0.233 C 
ATOM     10  O   LIG    1       27.555 -13.648   5.603  0.00  0.00    -0.274 OA
ATOM     11  C   LIG    1       26.943 -15.027   3.709  0.00  0.00    +0.181 C 
ENDBRANCH   2   3
BRANCH   2  12
ATOM     12  C   LIG    1       24.440 -17.530   4.041  0.00  0.00    +0.104 C 
BRANCH  12  13
ATOM     13  N   LIG    1       25.400 -18.280   3.194  0.00  0.00    -0.284 NA
ATOM     14  C   LIG    1       26.588 -18.701   3.979  0.00  0.00    +0.181 C 
ATOM     15  C   LIG    1       26.257 -19.794   4.997  0.00  0.00    +0.233 C 
ATOM     16  O   LIG    1       26.898 -19.954   6.036  0.00  0.00    -0.274 OA
ATOM     17  N   LIG    1       25.234 -20.644   4.662  0.00  0.00    -0.254 N 
ATOM     18  H   LIG    1       25.035 -21.402   5.299  0.00  0.00    +0.158 HD
ATOM     19  C   LIG    1       24.526 -20.620   3.486  0.00  0.00    +0.233 C 
ATOM     20  O   LIG    1       23.746 -21.524   3.200  0.00  0.00    -0.274 OA
ATOM     21  C   LIG    1       24.830 -19.471   2.525  0.00  0.00    +0.181 C 
ENDBRANCH  12  13
ENDBRANCH   2  12
TORSDOF 3
ENDMDL
MODEL 7
REMARK VINA RESULT:      -0.4      1.564      2.632
REMARK  Name = *****
REMARK                            x       y       z     vdW  Elec       q    Type
REMARK                         _______ _______ _______ _____ _____    ______ ____
ROOT
ATOM      1  C   LIG    1       23.647 -17.993   4.241  0.00  0.00    +0.025 C 
ATOM      2  C   LIG    1       24.917 -18.083   3.369  0.00  0.00    +0.069 C 
ENDROOT
BRANCH   2   3
ATOM      3  N   LIG    1       25.352 -19.507   3.215  0.00  0.00    -0.281 NA
ATOM      4  C   LIG    1       26.321 -19.950   4.254  0.00  0.00    +0.181 C 
ATOM      5  C   LIG    1       25.678 -20.108   5.633  0.00  0.00    +0.233 C 
ATOM      6  O   LIG    1       26.309 -19.961   6.679  0.00  0.00    -0.274 OA
ATOM      7  N   LIG    1       24.358 -20.480   5.656  0.00  0.00    -0.254 N 
ATOM      8  H   LIG    1       23.920 -20.566   6.562  0.00  0.00    +0.158 HD
ATOM      9  C   LIG    1       23.546 -20.604   4.555  0.00  0.00    +0.233 C 
ATOM     10  O   LIG    1       22.346 -20.827   4.667  0.00  0.00    -0.274 OA
ATOM     11  C   LIG    1       24.245 -20.495   3.201  0.00  0.00    +0.181 C 
ENDBRANCH   2   3
BRANCH   2  12
ATOM     12  C   LIG    1       26.026 -17.158   3.995  0.00  0.00    +0.104 C 
BRANCH  12  13
ATOM     13  N   LIG    1       26.522 -16.041   3.152  0.00  0.00    -0.284 NA
ATOM     14  C   LIG    1       25.396 -15.228   2.627  0.00  0.00    +0.181 C 
ATOM     15  C   LIG    1       24.703 -14.416   3.723  0.00  0.00    +0.233 C 
ATOM     16  O   LIG    1       23.522 -14.073   3.653  0.00  0.00    -0.274 OA
ATOM     17  N   LIG    1       25.490 -14.025   4.777  0.00  0.00    -0.254 N 
ATOM     18  H   LIG    1       25.061 -13.446   5.484  0.00  0.00    +0.158 HD
ATOM     19  C   LIG    1       26.836 -14.263   4.902  0.00  0.00    +0.233 C 
ATOM     20  O   LIG    1       27.491 -13.729   5.793  0.00  0.00    -0.274 OA
ATOM     21  C   LIG    1       27.481 -15.140   3.830  0.00  0.00    +0.181 C 
ENDBRANCH  12  13
ENDBRANCH   2  12
TORSDOF 3
ENDMDL
MODEL 8
REMARK VINA RESULT:       0.2      1.271      6.323
REMARK  Name = *****
REMARK                            x       y       z     vdW  Elec       q    Type
REMARK                         _______ _______ _______ _____ _____    ______ ____
ROOT
ATOM      1  C   LIG    1       27.252 -16.847   3.669  0.00  0.00    +0.025 C 
ATOM      2  C   LIG    1       25.954 -16.086   3.327  0.00  0.00    +0.069 C 
ENDROOT
BRANCH   2   3
ATOM      3  N   LIG    1       25.707 -14.990   4.315  0.00  0.00    -0.281 NA
ATOM      4  C   LIG    1       26.945 -14.288   4.749  0.00  0.00    +0.181 C 
ATOM      5  C   LIG    1       27.541 -13.406   3.650  0.00  0.00    +0.233 C 
ATOM      6  O   LIG    1       28.744 -13.158   3.578  0.00  0.00    -0.274 OA
ATOM      7  N   LIG    1       26.656 -12.850   2.761  0.00  0.00    -0.254 N 
ATOM      8  H   LIG    1       27.043 -12.283   2.020  0.00  0.00    +0.158 HD
ATOM      9  C   LIG    1       25.309 -13.113   2.709  0.00  0.00    +0.233 C 
ATOM     10  O   LIG    1       24.604 -12.665   1.812  0.00  0.00    -0.274 OA
ATOM     11  C   LIG    1       24.752 -13.949   3.859  0.00  0.00    +0.181 C 
ENDBRANCH   2   3
BRANCH   2  12
ATOM     12  C   LIG    1       24.772 -17.121   3.238  0.00  0.00    +0.104 C 
BRANCH  12  13
ATOM     13  N   LIG    1       24.494 -17.930   4.451  0.00  0.00    -0.284 NA
ATOM     14  C   LIG    1       23.055 -17.872   4.813  0.00  0.00    +0.181 C 
ATOM     15  C   LIG    1       22.172 -18.624   3.814  0.00  0.00    +0.233 C 
ATOM     16  O   LIG    1       20.992 -18.334   3.619  0.00  0.00    -0.274 OA
ATOM     17  N   LIG    1       22.750 -19.696   3.182  0.00  0.00    -0.254 N 
ATOM     18  H   LIG    1       22.166 -20.234   2.558  0.00  0.00    +0.158 HD
ATOM     19  C   LIG    1       24.020 -20.166   3.405  0.00  0.00    +0.233 C 
ATOM     20  O   LIG    1       24.392 -21.232   2.921  0.00  0.00    -0.274 OA
ATOM     21  C   LIG    1       24.900 -19.349   4.350  0.00  0.00    +0.181 C 
ENDBRANCH  12  13
ENDBRANCH   2  12
TORSDOF 3
ENDMDL
