MODEL 1
REMARK VINA RESULT:      -5.9      0.000      0.000
REMARK  Name = *****
REMARK                            x       y       z     vdW  Elec       q    Type
REMARK                         _______ _______ _______ _____ _____    ______ ____
ROOT
ATOM      1  C   LIG    1       22.420 -19.127   4.748  0.00  0.00    +0.050 C 
ATOM      2  C   LIG    1       23.391 -20.046   4.017  0.00  0.00    +0.173 C 
ATOM      3  S   LIG    1       24.953 -19.199   3.713  0.00  0.00    -0.127 S 
ATOM      4  C   LIG    1       25.873 -20.332   4.767  0.00  0.00    +0.108 C 
ATOM      5  C   LIG    1       24.843 -21.132   5.576  0.00  0.00    +0.095 C 
ATOM      6  C   LIG    1       25.357 -22.582   5.895  0.00  0.00    +0.026 C 
ATOM      7  C   LIG    1       24.123 -23.426   6.249  0.00  0.00    +0.022 C 
ATOM      8  C   LIG    1       23.302 -22.637   7.296  0.00  0.00    +0.085 C 
ATOM      9  N   LIG    1       24.121 -21.578   7.954  0.00  0.00    -0.299 NA
ATOM     10  C   LIG    1       25.392 -22.183   8.391  0.00  0.00    +0.085 C 
ATOM     11  C   LIG    1       26.245 -22.575   7.166  0.00  0.00    +0.022 C 
ATOM     12  C   LIG    1       24.463 -20.522   6.955  0.00  0.00    +0.120 C 
ATOM     13  O   LIG    1       23.662 -21.249   4.742  0.00  0.00    -0.358 OA
ENDROOT
TORSDOF 0
ENDMDL
MODEL 2
REMARK VINA RESULT:      -5.6      1.660      2.728
REMARK  Name = *****
REMARK                            x       y       z     vdW  Elec       q    Type
REMARK                         _______ _______ _______ _____ _____    ______ ____
ROOT
ATOM      1  C   LIG    1       25.564 -19.793   3.787  0.00  0.00    +0.050 C 
ATOM      2  C   LIG    1       24.571 -19.565   4.921  0.00  0.00    +0.173 C 
ATOM      3  S   LIG    1       22.883 -19.566   4.289  0.00  0.00    -0.127 S 
ATOM      4  C   LIG    1       22.441 -21.039   5.225  0.00  0.00    +0.108 C 
ATOM      5  C   LIG    1       23.748 -21.656   5.739  0.00  0.00    +0.095 C 
ATOM      6  C   LIG    1       23.543 -22.384   7.116  0.00  0.00    +0.026 C 
ATOM      7  C   LIG    1       24.932 -22.524   7.759  0.00  0.00    +0.022 C 
ATOM      8  C   LIG    1       25.884 -23.116   6.694  0.00  0.00    +0.085 C 
ATOM      9  N   LIG    1       25.129 -23.764   5.581  0.00  0.00    -0.299 NA
ATOM     10  C   LIG    1       24.116 -24.658   6.170  0.00  0.00    +0.085 C 
ATOM     11  C   LIG    1       23.032 -23.831   6.893  0.00  0.00    +0.022 C 
ATOM     12  C   LIG    1       24.392 -22.721   4.807  0.00  0.00    +0.120 C 
ATOM     13  O   LIG    1       24.671 -20.556   5.947  0.00  0.00    -0.358 OA
ENDROOT
TORSDOF 0
ENDMDL
MODEL 3
REMARK VINA RESULT:      -5.5      3.266      4.631
REMARK  Name = *****
REMARK                            x       y       z     vdW  Elec       q    Type
REMARK                         _______ _______ _______ _____ _____    ______ ____
ROOT
ATOM      1  C   LIG    1       30.410 -20.797   8.531  0.00  0.00    +0.050 C 
ATOM      2  C   LIG    1       29.537 -19.635   8.073  0.00  0.00    +0.173 C 
ATOM      3  S   LIG    1       29.910 -19.201   6.364  0.00  0.00    -0.127 S 
ATOM      4  C   LIG    1       28.264 -19.660   5.796  0.00  0.00    +0.108 C 
ATOM      5  C   LIG    1       27.599 -20.449   6.932  0.00  0.00    +0.095 C 
ATOM      6  C   LIG    1       26.043 -20.234   6.952  0.00  0.00    +0.026 C 
ATOM      7  C   LIG    1       25.554 -20.637   8.352  0.00  0.00    +0.022 C 
ATOM      8  C   LIG    1       26.159 -22.022   8.679  0.00  0.00    +0.085 C 
ATOM      9  N   LIG    1       26.629 -22.722   7.447  0.00  0.00    -0.299 NA
ATOM     10  C   LIG    1       25.551 -22.662   6.443  0.00  0.00    +0.085 C 
ATOM     11  C   LIG    1       25.349 -21.208   5.965  0.00  0.00    +0.022 C 
ATOM     12  C   LIG    1       27.798 -21.990   6.875  0.00  0.00    +0.120 C 
ATOM     13  O   LIG    1       28.140 -19.925   8.172  0.00  0.00    -0.358 OA
ENDROOT
TORSDOF 0
ENDMDL
MODEL 4
REMARK VINA RESULT:      -5.3      2.613      4.112
REMARK  Name = *****
REMARK                            x       y       z     vdW  Elec       q    Type
REMARK                         _______ _______ _______ _____ _____    ______ ____
ROOT
ATOM      1  C   LIG    1       26.322 -25.635   6.125  0.00  0.00    +0.050 C 
ATOM      2  C   LIG    1       25.226 -24.796   5.480  0.00  0.00    +0.173 C 
ATOM      3  S   LIG    1       23.633 -25.141   6.250  0.00  0.00    -0.127 S 
ATOM      4  C   LIG    1       23.479 -23.464   6.887  0.00  0.00    +0.108 C 
ATOM      5  C   LIG    1       24.854 -22.799   6.742  0.00  0.00    +0.095 C 
ATOM      6  C   LIG    1       24.726 -21.253   6.492  0.00  0.00    +0.026 C 
ATOM      7  C   LIG    1       26.060 -20.786   5.889  0.00  0.00    +0.022 C 
ATOM      8  C   LIG    1       27.197 -21.345   6.777  0.00  0.00    +0.085 C 
ATOM      9  N   LIG    1       26.694 -21.755   8.121  0.00  0.00    -0.299 NA
ATOM     10  C   LIG    1       25.876 -20.655   8.663  0.00  0.00    +0.085 C 
ATOM     11  C   LIG    1       24.582 -20.497   7.838  0.00  0.00    +0.022 C 
ATOM     12  C   LIG    1       25.792 -22.936   7.975  0.00  0.00    +0.120 C 
ATOM     13  O   LIG    1       25.480 -23.391   5.575  0.00  0.00    -0.358 OA
ENDROOT
TORSDOF 0
ENDMDL
MODEL 5
REMARK VINA RESULT:      -5.3      2.728      4.111
REMARK  Name = *****
REMARK                            x       y       z     vdW  Elec       q    Type
REMARK                         _______ _______ _______ _____ _____    ______ ____
ROOT
ATOM      1  C   LIG    1       24.001 -25.894   4.985  0.00  0.00    +0.050 C 
ATOM      2  C   LIG    1       24.296 -25.551   6.440  0.00  0.00    +0.173 C 
ATOM      3  S   LIG    1       26.065 -25.655   6.766  0.00  0.00    -0.127 S 
ATOM      4  C   LIG    1       26.191 -23.895   7.126  0.00  0.00    +0.108 C 
ATOM      5  C   LIG    1       24.887 -23.243   6.648  0.00  0.00    +0.095 C 
ATOM      6  C   LIG    1       24.502 -22.002   7.532  0.00  0.00    +0.026 C 
ATOM      7  C   LIG    1       23.006 -21.739   7.304  0.00  0.00    +0.022 C 
ATOM      8  C   LIG    1       22.761 -21.719   5.776  0.00  0.00    +0.085 C 
ATOM      9  N   LIG    1       24.030 -21.515   5.018  0.00  0.00    -0.299 NA
ATOM     10  C   LIG    1       24.745 -20.372   5.615  0.00  0.00    +0.085 C 
ATOM     11  C   LIG    1       25.237 -20.732   7.032  0.00  0.00    +0.022 C 
ATOM     12  C   LIG    1       24.907 -22.712   5.186  0.00  0.00    +0.120 C 
ATOM     13  O   LIG    1       23.846 -24.241   6.798  0.00  0.00    -0.358 OA
ENDROOT
TORSDOF 0
ENDMDL
MODEL 6
REMARK VINA RESULT:      -5.3      2.430      3.617
REMARK  Name = *****
REMARK                            x       y       z     vdW  Elec       q    Type
REMARK                         _______ _______ _______ _____ _____    ______ ____
ROOT
ATOM      1  C   LIG    1       28.242 -20.054   5.736  0.00  0.00    +0.050 C 
ATOM      2  C   LIG    1       27.991 -21.003   6.902  0.00  0.00    +0.173 C 
ATOM      3  S   LIG    1       27.642 -20.075   8.407  0.00  0.00    -0.127 S 
ATOM      4  C   LIG    1       25.965 -20.719   8.520  0.00  0.00    +0.108 C 
ATOM      5  C   LIG    1       25.646 -21.385   7.175  0.00  0.00    +0.095 C 
ATOM      6  C   LIG    1       24.661 -22.597   7.347  0.00  0.00    +0.026 C 
ATOM      7  C   LIG    1       24.794 -23.463   6.085  0.00  0.00    +0.022 C 
ATOM      8  C   LIG    1       24.676 -22.526   4.860  0.00  0.00    +0.085 C 
ATOM      9  N   LIG    1       24.052 -21.221   5.223  0.00  0.00    -0.299 NA
ATOM     10  C   LIG    1       22.829 -21.494   5.999  0.00  0.00    +0.085 C 
ATOM     11  C   LIG    1       23.192 -22.103   7.370  0.00  0.00    +0.022 C 
ATOM     12  C   LIG    1       24.974 -20.461   6.119  0.00  0.00    +0.120 C 
ATOM     13  O   LIG    1       26.901 -21.897   6.658  0.00  0.00    -0.358 OA
ENDROOT
TORSDOF 0
ENDMDL
MODEL 7
REMARK VINA RESULT:      -5.1      1.714      2.735
REMARK  Name = *****
REMARK                            x       y       z     vdW  Elec       q    Type
REMARK                         _______ _______ _______ _____ _____    ______ ____
ROOT
ATOM      1  C   LIG    1       24.521 -20.739   3.269  0.00  0.00    +0.050 C 
ATOM      2  C   LIG    1       24.198 -19.799   4.425  0.00  0.00    +0.173 C 
ATOM      3  S   LIG    1       22.534 -20.111   5.045  0.00  0.00    -0.127 S 
ATOM      4  C   LIG    1       23.139 -20.644   6.654  0.00  0.00    +0.108 C 
ATOM      5  C   LIG    1       24.651 -20.867   6.517  0.00  0.00    +0.095 C 
ATOM      6  C   LIG    1       25.406 -20.558   7.859  0.00  0.00    +0.026 C 
ATOM      7  C   LIG    1       26.883 -20.333   7.499  0.00  0.00    +0.022 C 
ATOM      8  C   LIG    1       27.331 -21.511   6.601  0.00  0.00    +0.085 C 
ATOM      9  N   LIG    1       26.403 -22.675   6.717  0.00  0.00    -0.299 NA
ATOM     10  C   LIG    1       26.181 -22.947   8.149  0.00  0.00    +0.085 C 
ATOM     11  C   LIG    1       25.381 -21.795   8.793  0.00  0.00    +0.022 C 
ATOM     12  C   LIG    1       25.077 -22.313   6.133  0.00  0.00    +0.120 C 
ATOM     13  O   LIG    1       25.118 -19.930   5.513  0.00  0.00    -0.358 OA
ENDROOT
TORSDOF 0
ENDMDL
MODEL 8
REMARK VINA RESULT:      -5.1      2.168      3.802
REMARK  Name = *****
REMARK                            x       y       z     vdW  Elec       q    Type
REMARK                         _______ _______ _______ _____ _____    ______ ____
ROOT
ATOM      1  C   LIG    1       25.903 -22.129   8.751  0.00  0.00    +0.050 C 
ATOM      2  C   LIG    1       26.032 -20.698   8.242  0.00  0.00    +0.173 C 
ATOM      3  S   LIG    1       27.639 -20.448   7.464  0.00  0.00    -0.127 S 
ATOM      4  C   LIG    1       26.906 -20.142   5.848  0.00  0.00    +0.108 C 
ATOM      5  C   LIG    1       25.437 -20.579   5.929  0.00  0.00    +0.095 C 
ATOM      6  C   LIG    1       24.523 -19.713   4.990  0.00  0.00    +0.026 C 
ATOM      7  C   LIG    1       23.081 -19.881   5.492  0.00  0.00    +0.022 C 
ATOM      8  C   LIG    1       22.817 -21.396   5.662  0.00  0.00    +0.085 C 
ATOM      9  N   LIG    1       23.809 -22.215   4.905  0.00  0.00    -0.299 NA
ATOM     10  C   LIG    1       23.896 -21.683   3.533  0.00  0.00    +0.085 C 
ATOM     11  C   LIG    1       24.538 -20.279   3.547  0.00  0.00    +0.022 C 
ATOM     12  C   LIG    1       25.160 -22.055   5.521  0.00  0.00    +0.120 C 
ATOM     13  O   LIG    1       25.014 -20.356   7.298  0.00  0.00    -0.358 OA
ENDROOT
TORSDOF 0
ENDMDL
MODEL 9
REMARK VINA RESULT:      -4.9      3.613      5.007
REMARK  Name = *****
REMARK                            x       y       z     vdW  Elec       q    Type
REMARK                         _______ _______ _______ _____ _____    ______ ____
ROOT
ATOM      1  C   LIG    1       26.008 -22.082   6.271  0.00  0.00    +0.050 C 
ATOM      2  C   LIG    1       25.175 -22.858   7.285  0.00  0.00    +0.173 C 
ATOM      3  S   LIG    1       23.417 -22.644   6.951  0.00  0.00    -0.127 S 
ATOM      4  C   LIG    1       23.187 -24.390   6.576  0.00  0.00    +0.108 C 
ATOM      5  C   LIG    1       24.584 -25.003   6.410  0.00  0.00    +0.095 C 
ATOM      6  C   LIG    1       24.613 -26.509   6.859  0.00  0.00    +0.026 C 
ATOM      7  C   LIG    1       26.084 -26.869   7.119  0.00  0.00    +0.022 C 
ATOM      8  C   LIG    1       26.905 -26.401   5.894  0.00  0.00    +0.085 C 
ATOM      9  N   LIG    1       26.034 -26.172   4.703  0.00  0.00    -0.299 NA
ATOM     10  C   LIG    1       25.160 -27.347   4.537  0.00  0.00    +0.085 C 
ATOM     11  C   LIG    1       24.150 -27.429   5.701  0.00  0.00    +0.022 C 
ATOM     12  C   LIG    1       25.143 -25.000   4.958  0.00  0.00    +0.120 C 
ATOM     13  O   LIG    1       25.470 -24.257   7.283  0.00  0.00    -0.358 OA
ENDROOT
TORSDOF 0
ENDMDL
