MODEL 1
REMARK VINA RESULT:      -4.9      0.000      0.000
REMARK  Name = *****
REMARK                            x       y       z     vdW  Elec       q    Type
REMARK                         _______ _______ _______ _____ _____    ______ ____
ROOT
ATOM      1  C   LIG    1       26.085 -21.458   5.975  0.00  0.00    +0.059 C 
ATOM      2  C   LIG    1       25.923 -20.252   4.991  0.00  0.00    +0.063 C 
ATOM      3  C   LIG    1       24.494 -19.891   4.767  0.00  0.00    +0.016 A 
ATOM      4  C   LIG    1       23.416 -20.427   5.431  0.00  0.00    +0.054 A 
ATOM      5  N   LIG    1       22.187 -19.890   5.101  0.00  0.00    -0.230 NA
ATOM      6  C   LIG    1       22.342 -18.953   4.197  0.00  0.00    +0.156 A 
ATOM      7  C   LIG    1       23.564 -21.501   6.448  0.00  0.00    +0.058 C 
ATOM      8  S   LIG    1       23.973 -18.675   3.698  0.00  0.00    -0.057 S 
ATOM      9  C   LIG    1       24.974 -21.465   7.062  0.00  0.00    +0.025 C 
ENDROOT
BRANCH   6  10
ATOM     10  N   LIG    1       21.337 -18.221   3.693  0.00  0.00    -0.338 N 
ATOM     11  H   LIG    1       21.148 -17.322   4.119  0.00  0.00    +0.144 HD
ATOM     12  H   LIG    1       20.508 -18.739   3.430  0.00  0.00    +0.144 HD
ENDBRANCH   6  10
BRANCH   1  13
ATOM     13  N   LIG    1       27.455 -21.418   6.542  0.00  0.00    -0.313 NA
ATOM     14  H   LIG    1       27.525 -22.101   7.298  0.00  0.00    +0.122 HD
BRANCH  13  15
ATOM     15  C   LIG    1       27.857 -20.107   7.059  0.00  0.00    +0.081 C 
BRANCH  15  17
ATOM     16  C   LIG    1       29.472 -18.577   5.846  0.00  0.00    +0.005 C 
ATOM     17  C   LIG    1       29.327 -19.814   6.727  0.00  0.00    +0.012 C 
ENDBRANCH  15  17
ENDBRANCH  13  15
ENDBRANCH   1  13
TORSDOF 4
ENDMDL
MODEL 2
REMARK VINA RESULT:      -3.8      2.065      5.551
REMARK  Name = *****
REMARK                            x       y       z     vdW  Elec       q    Type
REMARK                         _______ _______ _______ _____ _____    ______ ____
ROOT
ATOM      1  C   LIG    1       24.037 -20.915   4.289  0.00  0.00    +0.059 C 
ATOM      2  C   LIG    1       24.720 -21.382   5.617  0.00  0.00    +0.063 C 
ATOM      3  C   LIG    1       26.100 -20.837   5.768  0.00  0.00    +0.016 A 
ATOM      4  C   LIG    1       26.695 -19.916   4.939  0.00  0.00    +0.054 A 
ATOM      5  N   LIG    1       27.960 -19.508   5.314  0.00  0.00    -0.230 NA
ATOM      6  C   LIG    1       28.312 -20.117   6.420  0.00  0.00    +0.156 A 
ATOM      7  C   LIG    1       26.015 -19.381   3.730  0.00  0.00    +0.058 C 
ATOM      8  S   LIG    1       27.138 -21.212   7.062  0.00  0.00    -0.057 S 
ATOM      9  C   LIG    1       24.488 -19.484   3.885  0.00  0.00    +0.025 C 
ENDROOT
BRANCH   6  10
ATOM     10  N   LIG    1       29.475 -19.911   7.055  0.00  0.00    -0.338 N 
ATOM     11  H   LIG    1       29.814 -20.642   7.670  0.00  0.00    +0.144 HD
ATOM     12  H   LIG    1       29.622 -18.973   7.406  0.00  0.00    +0.144 HD
ENDBRANCH   6  10
BRANCH   1  13
ATOM     13  N   LIG    1       22.568 -21.039   4.450  0.00  0.00    -0.313 NA
ATOM     14  H   LIG    1       22.137 -21.134   3.530  0.00  0.00    +0.122 HD
BRANCH  13  15
ATOM     15  C   LIG    1       21.939 -19.912   5.147  0.00  0.00    +0.081 C 
BRANCH  15  17
ATOM     16  C   LIG    1       22.163 -17.423   4.730  0.00  0.00    +0.005 C 
ATOM     17  C   LIG    1       21.663 -18.755   4.178  0.00  0.00    +0.012 C 
ENDBRANCH  15  17
ENDBRANCH  13  15
ENDBRANCH   1  13
TORSDOF 4
ENDMDL
MODEL 3
REMARK VINA RESULT:      -3.3      3.883      5.765
REMARK  Name = *****
REMARK                            x       y       z     vdW  Elec       q    Type
REMARK                         _______ _______ _______ _____ _____    ______ ____
ROOT
ATOM      1  C   LIG    1       23.547 -18.019   4.436  0.00  0.00    +0.059 C 
ATOM      2  C   LIG    1       23.244 -16.487   4.342  0.00  0.00    +0.063 C 
ATOM      3  C   LIG    1       24.416 -15.706   3.852  0.00  0.00    +0.016 A 
ATOM      4  C   LIG    1       25.597 -16.236   3.388  0.00  0.00    +0.054 A 
ATOM      5  N   LIG    1       26.519 -15.317   2.924  0.00  0.00    -0.230 NA
ATOM      6  C   LIG    1       26.031 -14.106   3.034  0.00  0.00    +0.156 A 
ATOM      7  C   LIG    1       25.858 -17.699   3.371  0.00  0.00    +0.058 C 
ATOM      8  S   LIG    1       24.440 -14.012   3.706  0.00  0.00    -0.057 S 
ATOM      9  C   LIG    1       24.533 -18.478   3.326  0.00  0.00    +0.025 C 
ENDROOT
BRANCH   6  10
ATOM     10  N   LIG    1       26.674 -12.997   2.640  0.00  0.00    -0.338 N 
ATOM     11  H   LIG    1       26.114 -12.201   2.357  0.00  0.00    +0.144 HD
ATOM     12  H   LIG    1       27.498 -13.148   2.072  0.00  0.00    +0.144 HD
ENDBRANCH   6  10
BRANCH   1  13
ATOM     13  N   LIG    1       22.258 -18.753   4.410  0.00  0.00    -0.313 NA
ATOM     14  H   LIG    1       21.567 -18.236   4.956  0.00  0.00    +0.122 HD
BRANCH  13  15
ATOM     15  C   LIG    1       22.332 -20.123   4.927  0.00  0.00    +0.081 C 
BRANCH  15  17
ATOM     16  C   LIG    1       23.090 -21.568   6.865  0.00  0.00    +0.005 C 
ATOM     17  C   LIG    1       23.064 -20.161   6.275  0.00  0.00    +0.012 C 
ENDBRANCH  15  17
ENDBRANCH  13  15
ENDBRANCH   1  13
TORSDOF 4
ENDMDL
MODEL 4
REMARK VINA RESULT:      -3.3      3.378      4.307
REMARK  Name = *****
REMARK                            x       y       z     vdW  Elec       q    Type
REMARK                         _______ _______ _______ _____ _____    ______ ____
ROOT
ATOM      1  C   LIG    1       26.050 -17.605   3.312  0.00  0.00    +0.059 C 
ATOM      2  C   LIG    1       24.526 -17.517   3.656  0.00  0.00    +0.063 C 
ATOM      3  C   LIG    1       23.956 -18.836   4.051  0.00  0.00    +0.016 A 
ATOM      4  C   LIG    1       24.671 -19.995   4.244  0.00  0.00    +0.054 A 
ATOM      5  N   LIG    1       23.935 -21.083   4.672  0.00  0.00    -0.230 NA
ATOM      6  C   LIG    1       22.676 -20.743   4.803  0.00  0.00    +0.156 A 
ATOM      7  C   LIG    1       26.139 -20.067   4.024  0.00  0.00    +0.058 C 
ATOM      8  S   LIG    1       22.315 -19.097   4.414  0.00  0.00    -0.057 S 
ATOM      9  C   LIG    1       26.772 -18.674   4.178  0.00  0.00    +0.025 C 
ENDROOT
BRANCH   6  10
ATOM     10  N   LIG    1       21.714 -21.572   5.232  0.00  0.00    -0.338 N 
ATOM     11  H   LIG    1       21.128 -21.260   5.998  0.00  0.00    +0.144 HD
ATOM     12  H   LIG    1       21.967 -22.551   5.276  0.00  0.00    +0.144 HD
ENDBRANCH   6  10
BRANCH   1  13
ATOM     13  N   LIG    1       26.639 -16.250   3.447  0.00  0.00    -0.313 NA
ATOM     14  H   LIG    1       27.099 -16.174   4.355  0.00  0.00    +0.122 HD
BRANCH  13  15
ATOM     15  C   LIG    1       25.673 -15.155   3.319  0.00  0.00    +0.081 C 
BRANCH  15  17
ATOM     16  C   LIG    1       27.647 -13.737   4.035  0.00  0.00    +0.005 C 
ATOM     17  C   LIG    1       26.134 -13.923   4.109  0.00  0.00    +0.012 C 
ENDBRANCH  15  17
ENDBRANCH  13  15
ENDBRANCH   1  13
TORSDOF 4
ENDMDL
MODEL 5
REMARK VINA RESULT:      -3.2      2.943      4.182
REMARK  Name = *****
REMARK                            x       y       z     vdW  Elec       q    Type
REMARK                         _______ _______ _______ _____ _____    ______ ____
ROOT
ATOM      1  C   LIG    1       24.054 -19.316   3.630  0.00  0.00    +0.059 C 
ATOM      2  C   LIG    1       25.145 -18.210   3.448  0.00  0.00    +0.063 C 
ATOM      3  C   LIG    1       24.610 -16.839   3.689  0.00  0.00    +0.016 A 
ATOM      4  C   LIG    1       23.352 -16.539   4.157  0.00  0.00    +0.054 A 
ATOM      5  N   LIG    1       23.100 -15.197   4.364  0.00  0.00    -0.230 NA
ATOM      6  C   LIG    1       24.163 -14.494   4.057  0.00  0.00    +0.156 A 
ATOM      7  C   LIG    1       22.338 -17.589   4.437  0.00  0.00    +0.058 C 
ATOM      8  S   LIG    1       25.517 -15.413   3.501  0.00  0.00    -0.057 S 
ATOM      9  C   LIG    1       23.027 -18.933   4.731  0.00  0.00    +0.025 C 
ENDROOT
BRANCH   6  10
ATOM     10  N   LIG    1       24.244 -13.161   4.180  0.00  0.00    -0.338 N 
ATOM     11  H   LIG    1       25.154 -12.759   4.374  0.00  0.00    +0.144 HD
ATOM     12  H   LIG    1       23.481 -12.720   4.677  0.00  0.00    +0.144 HD
ENDBRANCH   6  10
BRANCH   1  13
ATOM     13  N   LIG    1       24.736 -20.607   3.894  0.00  0.00    -0.313 NA
ATOM     14  H   LIG    1       24.636 -21.212   3.078  0.00  0.00    +0.122 HD
BRANCH  13  15
ATOM     15  C   LIG    1       24.237 -21.325   5.071  0.00  0.00    +0.081 C 
BRANCH  15  17
ATOM     16  C   LIG    1       26.400 -20.447   6.057  0.00  0.00    +0.005 C 
ATOM     17  C   LIG    1       25.365 -21.568   6.082  0.00  0.00    +0.012 C 
ENDBRANCH  15  17
ENDBRANCH  13  15
ENDBRANCH   1  13
TORSDOF 4
ENDMDL
MODEL 6
REMARK VINA RESULT:      -3.1      4.507      6.542
REMARK  Name = *****
REMARK                            x       y       z     vdW  Elec       q    Type
REMARK                         _______ _______ _______ _____ _____    ______ ____
ROOT
ATOM      1  C   LIG    1       23.118 -16.473   4.002  0.00  0.00    +0.059 C 
ATOM      2  C   LIG    1       24.630 -16.823   3.797  0.00  0.00    +0.063 C 
ATOM      3  C   LIG    1       25.486 -15.606   3.703  0.00  0.00    +0.016 A 
ATOM      4  C   LIG    1       25.068 -14.311   3.909  0.00  0.00    +0.054 A 
ATOM      5  N   LIG    1       26.056 -13.349   3.831  0.00  0.00    -0.230 NA
ATOM      6  C   LIG    1       27.208 -13.917   3.573  0.00  0.00    +0.156 A 
ATOM      7  C   LIG    1       23.653 -13.973   4.211  0.00  0.00    +0.058 C 
ATOM      8  S   LIG    1       27.160 -15.637   3.407  0.00  0.00    -0.057 S 
ATOM      9  C   LIG    1       22.938 -15.179   4.844  0.00  0.00    +0.025 C 
ENDROOT
BRANCH   6  10
ATOM     10  N   LIG    1       28.368 -13.251   3.467  0.00  0.00    -0.338 N 
ATOM     11  H   LIG    1       28.706 -12.757   4.284  0.00  0.00    +0.144 HD
ATOM     12  H   LIG    1       28.509 -12.756   2.595  0.00  0.00    +0.144 HD
ENDBRANCH   6  10
BRANCH   1  13
ATOM     13  N   LIG    1       22.442 -17.653   4.595  0.00  0.00    -0.313 NA
ATOM     14  H   LIG    1       22.503 -17.598   5.612  0.00  0.00    +0.122 HD
BRANCH  13  15
ATOM     15  C   LIG    1       22.988 -18.943   4.163  0.00  0.00    +0.081 C 
BRANCH  15  17
ATOM     16  C   LIG    1       23.182 -20.409   6.221  0.00  0.00    +0.005 C 
ATOM     17  C   LIG    1       22.370 -20.095   4.967  0.00  0.00    +0.012 C 
ENDBRANCH  15  17
ENDBRANCH  13  15
ENDBRANCH   1  13
TORSDOF 4
ENDMDL
MODEL 7
REMARK VINA RESULT:      -2.9      4.099      5.309
REMARK  Name = *****
REMARK                            x       y       z     vdW  Elec       q    Type
REMARK                         _______ _______ _______ _____ _____    ______ ____
ROOT
ATOM      1  C   LIG    1       25.582 -15.424   3.545  0.00  0.00    +0.059 C 
ATOM      2  C   LIG    1       25.604 -16.962   3.260  0.00  0.00    +0.063 C 
ATOM      3  C   LIG    1       24.395 -17.655   3.790  0.00  0.00    +0.016 A 
ATOM      4  C   LIG    1       23.295 -17.042   4.344  0.00  0.00    +0.054 A 
ATOM      5  N   LIG    1       22.264 -17.886   4.708  0.00  0.00    -0.230 NA
ATOM      6  C   LIG    1       22.585 -19.125   4.425  0.00  0.00    +0.156 A 
ATOM      7  C   LIG    1       23.215 -15.569   4.524  0.00  0.00    +0.058 C 
ATOM      8  S   LIG    1       24.145 -19.335   3.711  0.00  0.00    -0.057 S 
ATOM      9  C   LIG    1       24.135 -14.856   3.517  0.00  0.00    +0.025 C 
ENDROOT
BRANCH   6  10
ATOM     10  N   LIG    1       21.780 -20.177   4.633  0.00  0.00    -0.338 N 
ATOM     11  H   LIG    1       21.180 -20.471   3.870  0.00  0.00    +0.144 HD
ATOM     12  H   LIG    1       21.342 -20.219   5.544  0.00  0.00    +0.144 HD
ENDBRANCH   6  10
BRANCH   1  13
ATOM     13  N   LIG    1       26.488 -14.756   2.579  0.00  0.00    -0.313 NA
ATOM     14  H   LIG    1       27.346 -15.303   2.491  0.00  0.00    +0.122 HD
BRANCH  13  15
ATOM     15  C   LIG    1       26.845 -13.380   2.936  0.00  0.00    +0.081 C 
BRANCH  15  17
ATOM     16  C   LIG    1       28.987 -12.634   4.066  0.00  0.00    +0.005 C 
ATOM     17  C   LIG    1       27.648 -13.345   4.243  0.00  0.00    +0.012 C 
ENDBRANCH  15  17
ENDBRANCH  13  15
ENDBRANCH   1  13
TORSDOF 4
ENDMDL
MODEL 8
REMARK VINA RESULT:      -2.4      4.231      5.740
REMARK  Name = *****
REMARK                            x       y       z     vdW  Elec       q    Type
REMARK                         _______ _______ _______ _____ _____    ______ ____
ROOT
ATOM      1  C   LIG    1       25.138 -15.664   3.709  0.00  0.00    +0.059 C 
ATOM      2  C   LIG    1       25.397 -17.167   3.356  0.00  0.00    +0.063 C 
ATOM      3  C   LIG    1       24.322 -18.064   3.869  0.00  0.00    +0.016 A 
ATOM      4  C   LIG    1       23.150 -17.656   4.462  0.00  0.00    +0.054 A 
ATOM      5  N   LIG    1       22.271 -18.667   4.800  0.00  0.00    -0.230 NA
ATOM      6  C   LIG    1       22.778 -19.826   4.459  0.00  0.00    +0.156 A 
ATOM      7  C   LIG    1       22.842 -16.222   4.707  0.00  0.00    +0.058 C 
ATOM      8  S   LIG    1       24.339 -19.757   3.718  0.00  0.00    -0.057 S 
ATOM      9  C   LIG    1       23.620 -15.332   3.723  0.00  0.00    +0.025 C 
ENDROOT
BRANCH   6  10
ATOM     10  N   LIG    1       22.152 -21.000   4.628  0.00  0.00    -0.338 N 
ATOM     11  H   LIG    1       22.499 -21.621   5.350  0.00  0.00    +0.144 HD
ATOM     12  H   LIG    1       21.867 -21.470   3.779  0.00  0.00    +0.144 HD
ENDBRANCH   6  10
BRANCH   1  13
ATOM     13  N   LIG    1       25.910 -14.822   2.763  0.00  0.00    -0.313 NA
ATOM     14  H   LIG    1       26.871 -15.163   2.718  0.00  0.00    +0.122 HD
BRANCH  13  15
ATOM     15  C   LIG    1       25.935 -13.396   3.105  0.00  0.00    +0.081 C 
BRANCH  15  17
ATOM     16  C   LIG    1       23.994 -11.789   2.839  0.00  0.00    +0.005 C 
ATOM     17  C   LIG    1       25.083 -12.582   2.122  0.00  0.00    +0.012 C 
ENDBRANCH  15  17
ENDBRANCH  13  15
ENDBRANCH   1  13
TORSDOF 4
ENDMDL
MODEL 9
REMARK VINA RESULT:      -2.4      3.416      4.798
REMARK  Name = *****
REMARK                            x       y       z     vdW  Elec       q    Type
REMARK                         _______ _______ _______ _____ _____    ______ ____
ROOT
ATOM      1  C   LIG    1       23.957 -18.777   3.255  0.00  0.00    +0.059 C 
ATOM      2  C   LIG    1       25.263 -17.918   3.191  0.00  0.00    +0.063 C 
ATOM      3  C   LIG    1       25.030 -16.499   3.585  0.00  0.00    +0.016 A 
ATOM      4  C   LIG    1       23.857 -15.988   4.089  0.00  0.00    +0.054 A 
ATOM      5  N   LIG    1       23.894 -14.654   4.445  0.00  0.00    -0.230 NA
ATOM      6  C   LIG    1       25.089 -14.167   4.213  0.00  0.00    +0.156 A 
ATOM      7  C   LIG    1       22.636 -16.819   4.257  0.00  0.00    +0.058 C 
ATOM      8  S   LIG    1       26.225 -15.290   3.551  0.00  0.00    -0.057 S 
ATOM      9  C   LIG    1       23.015 -18.304   4.397  0.00  0.00    +0.025 C 
ENDROOT
BRANCH   6  10
ATOM     10  N   LIG    1       25.452 -12.904   4.481  0.00  0.00    -0.338 N 
ATOM     11  H   LIG    1       25.610 -12.281   3.698  0.00  0.00    +0.144 HD
ATOM     12  H   LIG    1       26.110 -12.791   5.241  0.00  0.00    +0.144 HD
ENDBRANCH   6  10
BRANCH   1  13
ATOM     13  N   LIG    1       24.341 -20.205   3.372  0.00  0.00    -0.313 NA
ATOM     14  H   LIG    1       23.535 -20.744   3.691  0.00  0.00    +0.122 HD
BRANCH  13  15
ATOM     15  C   LIG    1       25.463 -20.457   4.282  0.00  0.00    +0.081 C 
BRANCH  15  17
ATOM     16  C   LIG    1       24.679 -20.987   6.632  0.00  0.00    +0.005 C 
ATOM     17  C   LIG    1       25.114 -21.563   5.288  0.00  0.00    +0.012 C 
ENDBRANCH  15  17
ENDBRANCH  13  15
ENDBRANCH   1  13
TORSDOF 4
ENDMDL
