MODEL 1
REMARK VINA RESULT:      -4.9      0.000      0.000
REMARK  Name = *****
REMARK                            x       y       z     vdW  Elec       q    Type
REMARK                         _______ _______ _______ _____ _____    ______ ____
ROOT
ATOM      1  C   LIG    1       25.525 -30.554  10.664  0.00  0.00    +0.180 C 
ATOM      2  C   LIG    1       25.153 -30.901  12.197  0.00  0.00    +0.021 C 
ATOM      3  C   LIG    1       24.510 -32.310  12.097  0.00  0.00    +0.006 C 
ATOM      4  C   LIG    1       23.029 -32.301  11.597  0.00  0.00    +0.037 C 
ATOM      5  C   LIG    1       22.116 -31.493  12.543  0.00  0.00    +0.153 C 
ATOM      6  C   LIG    1       22.686 -30.068  12.815  0.00  0.00    +0.154 C 
ATOM      7  F   LIG    1       22.225 -32.148  13.766  0.00  0.00    -0.238 F 
ATOM      8  C   LIG    1       20.553 -31.567  12.161  0.00  0.00    +0.047 C 
ATOM      9  C   LIG    1       20.123 -33.030  11.844  0.00  0.00    -0.020 C 
ATOM     10  C   LIG    1       18.820 -33.258  11.554  0.00  0.00    +0.054 C 
ATOM     11  C   LIG    1       18.454 -32.509  10.292  0.00  0.00    +0.179 C 
ATOM     12  C   LIG    1       19.124 -31.187  10.092  0.00  0.00    +0.047 C 
ATOM     13  O   LIG    1       17.575 -32.909   9.542  0.00  0.00    -0.288 OA
ATOM     14  C   LIG    1       21.105 -33.825  11.007  0.00  0.00    +0.194 C 
ATOM     15  F   LIG    1       21.118 -33.365   9.722  0.00  0.00    -0.241 F 
ATOM     16  C   LIG    1       19.752 -31.028  13.381  0.00  0.00    +0.023 C 
ATOM     17  C   LIG    1       20.061 -30.745  10.956  0.00  0.00    -0.009 C 
ATOM     18  C   LIG    1       22.525 -33.754  11.514  0.00  0.00    +0.048 C 
ATOM     19  C   LIG    1       25.465 -33.011  11.135  0.00  0.00    +0.012 C 
ATOM     20  C   LIG    1       26.456 -31.007  13.057  0.00  0.00    +0.016 C 
ATOM     21  C   LIG    1       24.211 -29.969  13.002  0.00  0.00    +0.045 C 
ATOM     22  C   LIG    1       25.632 -32.004   9.998  0.00  0.00    +0.038 C 
ATOM     23  C   LIG    1       26.835 -32.407   9.147  0.00  0.00    +0.012 C 
ENDROOT
BRANCH   6  24
ATOM     24  O   LIG    1       22.298 -29.073  11.877  0.00  0.00    -0.389 OA
ATOM     25  H   LIG    1       21.360 -28.868  12.053  0.00  0.00    +0.210 HD
ENDBRANCH   6  24
BRANCH   1  26
ATOM     26  C   LIG    1       26.810 -29.660  10.554  0.00  0.00    +0.192 C 
ATOM     27  O   LIG    1       27.942 -30.153  10.527  0.00  0.00    -0.292 OA
BRANCH  26  28
ATOM     28  C   LIG    1       26.627 -28.149  10.524  0.00  0.00    +0.187 C 
ATOM     29 CL   LIG    1       26.805 -27.458  12.160  0.00  0.00    -0.117 Cl
ENDBRANCH  26  28
ENDBRANCH   1  26
BRANCH   1  30
ATOM     30  O   LIG    1       24.387 -29.836  10.105  0.00  0.00    -0.450 OA
BRANCH  30  31
ATOM     31  C   LIG    1       23.916 -30.175   8.869  0.00  0.00    +0.308 C 
ATOM     32  O   LIG    1       23.034 -30.977   8.662  0.00  0.00    -0.251 OA
BRANCH  31  34
ATOM     33  C   LIG    1       24.670 -30.276   6.495  0.00  0.00    +0.015 C 
ATOM     34  C   LIG    1       24.682 -29.461   7.777  0.00  0.00    +0.117 C 
ENDBRANCH  31  34
ENDBRANCH  30  31
ENDBRANCH   1  30
TORSDOF 6
ENDMDL
MODEL 2
REMARK VINA RESULT:      -4.9      2.847      5.642
REMARK  Name = *****
REMARK                            x       y       z     vdW  Elec       q    Type
REMARK                         _______ _______ _______ _____ _____    ______ ____
ROOT
ATOM      1  C   LIG    1       22.926 -29.756  13.465  0.00  0.00    +0.180 C 
ATOM      2  C   LIG    1       24.482 -30.181  13.541  0.00  0.00    +0.021 C 
ATOM      3  C   LIG    1       25.125 -29.388  12.372  0.00  0.00    +0.006 C 
ATOM      4  C   LIG    1       24.881 -30.019  10.963  0.00  0.00    +0.037 C 
ATOM      5  C   LIG    1       25.465 -31.444  10.871  0.00  0.00    +0.153 C 
ATOM      6  C   LIG    1       24.976 -32.344  12.046  0.00  0.00    +0.154 C 
ATOM      7  F   LIG    1       26.826 -31.273  11.111  0.00  0.00    -0.238 F 
ATOM      8  C   LIG    1       25.373 -32.092   9.399  0.00  0.00    +0.047 C 
ATOM      9  C   LIG    1       25.821 -31.073   8.310  0.00  0.00    -0.020 C 
ATOM     10  C   LIG    1       25.845 -31.493   7.022  0.00  0.00    +0.054 C 
ATOM     11  C   LIG    1       24.442 -31.862   6.594  0.00  0.00    +0.179 C 
ATOM     12  C   LIG    1       23.573 -32.475   7.645  0.00  0.00    +0.047 C 
ATOM     13  O   LIG    1       24.084 -31.772   5.428  0.00  0.00    -0.288 OA
ATOM     14  C   LIG    1       25.317 -29.658   8.503  0.00  0.00    +0.194 C 
ATOM     15  F   LIG    1       23.975 -29.591   8.262  0.00  0.00    -0.241 F 
ATOM     16  C   LIG    1       26.306 -33.337   9.381  0.00  0.00    +0.023 C 
ATOM     17  C   LIG    1       24.004 -32.604   8.916  0.00  0.00    -0.009 C 
ATOM     18  C   LIG    1       25.540 -29.124   9.898  0.00  0.00    +0.048 C 
ATOM     19  C   LIG    1       24.472 -28.019  12.540  0.00  0.00    +0.012 C 
ATOM     20  C   LIG    1       25.112 -29.687  14.886  0.00  0.00    +0.016 C 
ATOM     21  C   LIG    1       24.890 -31.673  13.428  0.00  0.00    +0.045 C 
ATOM     22  C   LIG    1       22.990 -28.348  12.710  0.00  0.00    +0.038 C 
ATOM     23  C   LIG    1       22.264 -27.117  13.249  0.00  0.00    +0.012 C 
ENDROOT
BRANCH   6  24
ATOM     24  O   LIG    1       23.749 -33.023  11.816  0.00  0.00    -0.389 OA
ATOM     25  H   LIG    1       23.483 -33.424  12.666  0.00  0.00    +0.210 HD
ENDBRANCH   6  24
BRANCH   1  26
ATOM     26  C   LIG    1       22.248 -29.736  14.881  0.00  0.00    +0.192 C 
ATOM     27  O   LIG    1       22.068 -28.684  15.499  0.00  0.00    -0.292 OA
BRANCH  26  28
ATOM     28  C   LIG    1       21.852 -31.070  15.500  0.00  0.00    +0.187 C 
ATOM     29 CL   LIG    1       20.098 -31.350  15.327  0.00  0.00    -0.117 Cl
ENDBRANCH  26  28
ENDBRANCH   1  26
BRANCH   1  30
ATOM     30  O   LIG    1       22.259 -30.740  12.624  0.00  0.00    -0.450 OA
BRANCH  30  31
ATOM     31  C   LIG    1       21.158 -30.376  11.903  0.00  0.00    +0.308 C 
ATOM     32  O   LIG    1       20.187 -29.819  12.360  0.00  0.00    -0.251 OA
BRANCH  31  34
ATOM     33  C   LIG    1       20.617 -32.164  10.252  0.00  0.00    +0.015 C 
ATOM     34  C   LIG    1       21.280 -30.813  10.460  0.00  0.00    +0.117 C 
ENDBRANCH  31  34
ENDBRANCH  30  31
ENDBRANCH   1  30
TORSDOF 6
ENDMDL
MODEL 3
REMARK VINA RESULT:      -4.9      3.193      7.171
REMARK  Name = *****
REMARK                            x       y       z     vdW  Elec       q    Type
REMARK                         _______ _______ _______ _____ _____    ______ ____
ROOT
ATOM      1  C   LIG    1       21.617 -30.443  12.869  0.00  0.00    +0.180 C 
ATOM      2  C   LIG    1       22.820 -31.514  12.750  0.00  0.00    +0.021 C 
ATOM      3  C   LIG    1       23.613 -31.306  14.067  0.00  0.00    +0.006 C 
ATOM      4  C   LIG    1       24.547 -30.052  14.058  0.00  0.00    +0.037 C 
ATOM      5  C   LIG    1       25.609 -30.144  12.942  0.00  0.00    +0.153 C 
ATOM      6  C   LIG    1       24.963 -30.445  11.556  0.00  0.00    +0.154 C 
ATOM      7  F   LIG    1       26.326 -31.297  13.246  0.00  0.00    -0.238 F 
ATOM      8  C   LIG    1       26.690 -28.951  12.972  0.00  0.00    +0.047 C 
ATOM      9  C   LIG    1       27.207 -28.701  14.420  0.00  0.00    -0.020 C 
ATOM     10  C   LIG    1       28.164 -27.758  14.597  0.00  0.00    +0.054 C 
ATOM     11  C   LIG    1       27.612 -26.410  14.189  0.00  0.00    +0.179 C 
ATOM     12  C   LIG    1       26.656 -26.410  13.039  0.00  0.00    +0.047 C 
ATOM     13  O   LIG    1       28.016 -25.373  14.695  0.00  0.00    -0.288 OA
ATOM     14  C   LIG    1       26.145 -28.734  15.500  0.00  0.00    +0.194 C 
ATOM     15  F   LIG    1       25.340 -27.635  15.411  0.00  0.00    -0.241 F 
ATOM     16  C   LIG    1       27.871 -29.372  12.050  0.00  0.00    +0.023 C 
ATOM     17  C   LIG    1       26.255 -27.564  12.467  0.00  0.00    -0.009 C 
ATOM     18  C   LIG    1       25.247 -29.945  15.425  0.00  0.00    +0.048 C 
ATOM     19  C   LIG    1       22.484 -31.208  15.089  0.00  0.00    +0.012 C 
ATOM     20  C   LIG    1       22.246 -32.971  12.737  0.00  0.00    +0.016 C 
ATOM     21  C   LIG    1       23.801 -31.456  11.550  0.00  0.00    +0.045 C 
ATOM     22  C   LIG    1       21.507 -30.222  14.449  0.00  0.00    +0.038 C 
ATOM     23  C   LIG    1       20.167 -30.304  15.178  0.00  0.00    +0.012 C 
ENDROOT
BRANCH   6  24
ATOM     24  O   LIG    1       24.546 -29.301  10.822  0.00  0.00    -0.389 OA
ATOM     25  H   LIG    1       23.606 -29.437  10.596  0.00  0.00    +0.210 HD
ENDBRANCH   6  24
BRANCH   1  26
ATOM     26  C   LIG    1       20.307 -30.943  12.162  0.00  0.00    +0.192 C 
ATOM     27  O   LIG    1       19.377 -31.444  12.799  0.00  0.00    -0.292 OA
BRANCH  26  28
ATOM     28  C   LIG    1       20.230 -30.831  10.645  0.00  0.00    +0.187 C 
ATOM     29 CL   LIG    1       18.591 -31.232  10.065  0.00  0.00    -0.117 Cl
ENDBRANCH  26  28
ENDBRANCH   1  26
BRANCH   1  30
ATOM     30  O   LIG    1       22.076 -29.218  12.228  0.00  0.00    -0.450 OA
BRANCH  30  31
ATOM     31  C   LIG    1       21.670 -28.009  12.716  0.00  0.00    +0.308 C 
ATOM     32  O   LIG    1       20.526 -27.619  12.733  0.00  0.00    -0.251 OA
BRANCH  31  34
ATOM     33  C   LIG    1       22.470 -26.342  14.388  0.00  0.00    +0.015 C 
ATOM     34  C   LIG    1       22.851 -27.185  13.183  0.00  0.00    +0.117 C 
ENDBRANCH  31  34
ENDBRANCH  30  31
ENDBRANCH   1  30
TORSDOF 6
ENDMDL
MODEL 4
REMARK VINA RESULT:      -4.6      2.800      6.789
REMARK  Name = *****
REMARK                            x       y       z     vdW  Elec       q    Type
REMARK                         _______ _______ _______ _____ _____    ______ ____
ROOT
ATOM      1  C   LIG    1       21.170 -31.297  12.287  0.00  0.00    +0.180 C 
ATOM      2  C   LIG    1       22.320 -32.279  11.720  0.00  0.00    +0.021 C 
ATOM      3  C   LIG    1       23.299 -32.410  12.917  0.00  0.00    +0.006 C 
ATOM      4  C   LIG    1       24.249 -31.183  13.101  0.00  0.00    +0.037 C 
ATOM      5  C   LIG    1       25.137 -30.962  11.859  0.00  0.00    +0.153 C 
ATOM      6  C   LIG    1       24.293 -30.900  10.550  0.00  0.00    +0.154 C 
ATOM      7  F   LIG    1       25.865 -32.142  11.744  0.00  0.00    -0.238 F 
ATOM      8  C   LIG    1       26.238 -29.801  12.044  0.00  0.00    +0.047 C 
ATOM      9  C   LIG    1       26.963 -29.930  13.416  0.00  0.00    -0.020 C 
ATOM     10  C   LIG    1       27.955 -29.051  13.695  0.00  0.00    +0.054 C 
ATOM     11  C   LIG    1       27.381 -27.652  13.737  0.00  0.00    +0.179 C 
ATOM     12  C   LIG    1       26.270 -27.367  12.777  0.00  0.00    +0.047 C 
ATOM     13  O   LIG    1       27.876 -26.777  14.433  0.00  0.00    -0.288 OA
ATOM     14  C   LIG    1       26.066 -30.262  14.592  0.00  0.00    +0.194 C 
ATOM     15  F   LIG    1       25.280 -29.192  14.910  0.00  0.00    -0.241 F 
ATOM     16  C   LIG    1       27.264 -29.946  10.884  0.00  0.00    +0.023 C 
ATOM     17  C   LIG    1       25.766 -28.337  11.988  0.00  0.00    -0.009 C 
ATOM     18  C   LIG    1       25.140 -31.426  14.333  0.00  0.00    +0.048 C 
ATOM     19  C   LIG    1       22.330 -32.602  14.080  0.00  0.00    +0.012 C 
ATOM     20  C   LIG    1       21.719 -33.691  11.409  0.00  0.00    +0.016 C 
ATOM     21  C   LIG    1       23.120 -31.893  10.449  0.00  0.00    +0.045 C 
ATOM     22  C   LIG    1       21.294 -31.499  13.868  0.00  0.00    +0.038 C 
ATOM     23  C   LIG    1       20.070 -31.790  14.735  0.00  0.00    +0.012 C 
ENDROOT
BRANCH   6  24
ATOM     24  O   LIG    1       23.801 -29.611  10.209  0.00  0.00    -0.389 OA
ATOM     25  H   LIG    1       23.086 -29.743   9.557  0.00  0.00    +0.210 HD
ENDBRANCH   6  24
BRANCH   1  26
ATOM     26  C   LIG    1       19.763 -31.615  11.669  0.00  0.00    +0.192 C 
ATOM     27  O   LIG    1       18.945 -32.330  12.254  0.00  0.00    -0.292 OA
BRANCH  26  28
ATOM     28  C   LIG    1       19.443 -31.046  10.294  0.00  0.00    +0.187 C 
ATOM     29 CL   LIG    1       17.727 -31.315   9.882  0.00  0.00    -0.117 Cl
ENDBRANCH  26  28
ENDBRANCH   1  26
BRANCH   1  30
ATOM     30  O   LIG    1       21.560 -29.939  11.929  0.00  0.00    -0.450 OA
BRANCH  30  31
ATOM     31  C   LIG    1       21.252 -28.906  12.767  0.00  0.00    +0.308 C 
ATOM     32  O   LIG    1       20.137 -28.633  13.147  0.00  0.00    -0.251 OA
BRANCH  31  34
ATOM     33  C   LIG    1       22.142 -26.627  13.244  0.00  0.00    +0.015 C 
ATOM     34  C   LIG    1       22.484 -28.102  13.118  0.00  0.00    +0.117 C 
ENDBRANCH  31  34
ENDBRANCH  30  31
ENDBRANCH   1  30
TORSDOF 6
ENDMDL
MODEL 5
REMARK VINA RESULT:      -4.6      3.084      4.399
REMARK  Name = *****
REMARK                            x       y       z     vdW  Elec       q    Type
REMARK                         _______ _______ _______ _____ _____    ______ ____
ROOT
ATOM      1  C   LIG    1       26.216 -29.525  12.011  0.00  0.00    +0.180 C 
ATOM      2  C   LIG    1       25.480 -30.949  12.213  0.00  0.00    +0.021 C 
ATOM      3  C   LIG    1       24.135 -30.763  11.464  0.00  0.00    +0.006 C 
ATOM      4  C   LIG    1       23.068 -29.945  12.261  0.00  0.00    +0.037 C 
ATOM      5  C   LIG    1       22.709 -30.630  13.596  0.00  0.00    +0.153 C 
ATOM      6  C   LIG    1       23.982 -30.966  14.431  0.00  0.00    +0.154 C 
ATOM      7  F   LIG    1       22.206 -31.872  13.220  0.00  0.00    -0.238 F 
ATOM      8  C   LIG    1       21.510 -29.911  14.396  0.00  0.00    +0.047 C 
ATOM      9  C   LIG    1       20.330 -29.564  13.442  0.00  0.00    -0.020 C 
ATOM     10  C   LIG    1       19.223 -28.998  13.982  0.00  0.00    +0.054 C 
ATOM     11  C   LIG    1       19.592 -27.658  14.578  0.00  0.00    +0.179 C 
ATOM     12  C   LIG    1       20.952 -27.562  15.193  0.00  0.00    +0.047 C 
ATOM     13  O   LIG    1       18.780 -26.747  14.655  0.00  0.00    -0.288 OA
ATOM     14  C   LIG    1       20.733 -29.000  12.094  0.00  0.00    +0.194 C 
ATOM     15  F   LIG    1       21.222 -27.733  12.233  0.00  0.00    -0.241 F 
ATOM     16  C   LIG    1       21.032 -30.898  15.500  0.00  0.00    +0.023 C 
ATOM     17  C   LIG    1       21.817 -28.595  15.134  0.00  0.00    -0.009 C 
ATOM     18  C   LIG    1       21.800 -29.809  11.397  0.00  0.00    +0.048 C 
ATOM     19  C   LIG    1       24.593 -30.069  10.185  0.00  0.00    +0.012 C 
ATOM     20  C   LIG    1       26.295 -32.083  11.505  0.00  0.00    +0.016 C 
ATOM     21  C   LIG    1       25.197 -31.485  13.641  0.00  0.00    +0.045 C 
ATOM     22  C   LIG    1       25.514 -28.959  10.691  0.00  0.00    +0.038 C 
ATOM     23  C   LIG    1       26.330 -28.415   9.520  0.00  0.00    +0.012 C 
ENDROOT
BRANCH   6  24
ATOM     24  O   LIG    1       24.434 -29.926  15.288  0.00  0.00    -0.389 OA
ATOM     25  H   LIG    1       24.078 -29.090  14.932  0.00  0.00    +0.210 HD
ENDBRANCH   6  24
BRANCH   1  26
ATOM     26  C   LIG    1       27.777 -29.671  11.940  0.00  0.00    +0.192 C 
ATOM     27  O   LIG    1       28.362 -29.870  10.871  0.00  0.00    -0.292 OA
BRANCH  26  28
ATOM     28  C   LIG    1       28.560 -29.601  13.244  0.00  0.00    +0.187 C 
ATOM     29 CL   LIG    1       30.314 -29.718  12.936  0.00  0.00    -0.117 Cl
ENDBRANCH  26  28
ENDBRANCH   1  26
BRANCH   1  30
ATOM     30  O   LIG    1       25.859 -28.698  13.156  0.00  0.00    -0.450 OA
BRANCH  30  31
ATOM     31  C   LIG    1       25.767 -27.344  13.007  0.00  0.00    +0.308 C 
ATOM     32  O   LIG    1       26.658 -26.630  12.607  0.00  0.00    -0.251 OA
BRANCH  31  34
ATOM     33  C   LIG    1       24.530 -26.182  14.833  0.00  0.00    +0.015 C 
ATOM     34  C   LIG    1       24.418 -26.834  13.465  0.00  0.00    +0.117 C 
ENDBRANCH  31  34
ENDBRANCH  30  31
ENDBRANCH   1  30
TORSDOF 6
ENDMDL
MODEL 6
REMARK VINA RESULT:      -4.6      2.912      4.580
REMARK  Name = *****
REMARK                            x       y       z     vdW  Elec       q    Type
REMARK                         _______ _______ _______ _____ _____    ______ ____
ROOT
ATOM      1  C   LIG    1       24.927 -31.767   6.946  0.00  0.00    +0.180 C 
ATOM      2  C   LIG    1       25.827 -32.503   8.068  0.00  0.00    +0.021 C 
ATOM      3  C   LIG    1       24.775 -33.233   8.944  0.00  0.00    +0.006 C 
ATOM      4  C   LIG    1       24.031 -32.303   9.956  0.00  0.00    +0.037 C 
ATOM      5  C   LIG    1       25.013 -31.644  10.947  0.00  0.00    +0.153 C 
ATOM      6  C   LIG    1       26.190 -30.939  10.208  0.00  0.00    +0.154 C 
ATOM      7  F   LIG    1       25.610 -32.716  11.603  0.00  0.00    -0.238 F 
ATOM      8  C   LIG    1       24.293 -30.787  12.105  0.00  0.00    +0.047 C 
ATOM      9  C   LIG    1       23.093 -31.569  12.716  0.00  0.00    -0.020 C 
ATOM     10  C   LIG    1       22.417 -30.995  13.740  0.00  0.00    +0.054 C 
ATOM     11  C   LIG    1       21.782 -29.710  13.257  0.00  0.00    +0.179 C 
ATOM     12  C   LIG    1       22.558 -28.933  12.242  0.00  0.00    +0.047 C 
ATOM     13  O   LIG    1       20.753 -29.277  13.756  0.00  0.00    -0.288 OA
ATOM     14  C   LIG    1       22.220 -32.298  11.715  0.00  0.00    +0.194 C 
ATOM     15  F   LIG    1       21.491 -31.408  10.979  0.00  0.00    -0.241 F 
ATOM     16  C   LIG    1       25.358 -30.504  13.203  0.00  0.00    +0.023 C 
ATOM     17  C   LIG    1       23.714 -29.410  11.736  0.00  0.00    -0.009 C 
ATOM     18  C   LIG    1       23.001 -33.141  10.736  0.00  0.00    +0.048 C 
ATOM     19  C   LIG    1       23.853 -33.825   7.881  0.00  0.00    +0.012 C 
ATOM     20  C   LIG    1       26.752 -33.575   7.400  0.00  0.00    +0.016 C 
ATOM     21  C   LIG    1       26.764 -31.675   8.984  0.00  0.00    +0.045 C 
ATOM     22  C   LIG    1       23.595 -32.650   6.938  0.00  0.00    +0.038 C 
ATOM     23  C   LIG    1       22.992 -33.178   5.638  0.00  0.00    +0.012 C 
ENDROOT
BRANCH   6  24
ATOM     24  O   LIG    1       25.945 -29.591   9.828  0.00  0.00    -0.389 OA
ATOM     25  H   LIG    1       25.005 -29.536   9.568  0.00  0.00    +0.210 HD
ENDBRANCH   6  24
BRANCH   1  26
ATOM     26  C   LIG    1       25.674 -31.653   5.570  0.00  0.00    +0.192 C 
ATOM     27  O   LIG    1       26.505 -30.766   5.356  0.00  0.00    -0.292 OA
BRANCH  26  28
ATOM     28  C   LIG    1       25.313 -32.650   4.478  0.00  0.00    +0.187 C 
ATOM     29 CL   LIG    1       26.783 -33.371   3.769  0.00  0.00    -0.117 Cl
ENDBRANCH  26  28
ENDBRANCH   1  26
BRANCH   1  30
ATOM     30  O   LIG    1       24.633 -30.431   7.449  0.00  0.00    -0.450 OA
BRANCH  30  31
ATOM     31  C   LIG    1       24.151 -29.480   6.596  0.00  0.00    +0.308 C 
ATOM     32  O   LIG    1       23.255 -29.654   5.804  0.00  0.00    -0.251 OA
BRANCH  31  34
ATOM     33  C   LIG    1       24.380 -27.139   5.772  0.00  0.00    +0.015 C 
ATOM     34  C   LIG    1       24.926 -28.187   6.727  0.00  0.00    +0.117 C 
ENDBRANCH  31  34
ENDBRANCH  30  31
ENDBRANCH   1  30
TORSDOF 6
ENDMDL
MODEL 7
REMARK VINA RESULT:      -4.5      2.362      4.259
REMARK  Name = *****
REMARK                            x       y       z     vdW  Elec       q    Type
REMARK                         _______ _______ _______ _____ _____    ______ ____
ROOT
ATOM      1  C   LIG    1       25.012 -31.351  10.907  0.00  0.00    +0.180 C 
ATOM      2  C   LIG    1       23.885 -30.667   9.974  0.00  0.00    +0.021 C 
ATOM      3  C   LIG    1       23.066 -29.810  10.975  0.00  0.00    +0.006 C 
ATOM      4  C   LIG    1       22.050 -30.631  11.835  0.00  0.00    +0.037 C 
ATOM      5  C   LIG    1       21.008 -31.347  10.950  0.00  0.00    +0.153 C 
ATOM      6  C   LIG    1       21.687 -32.186   9.825  0.00  0.00    +0.154 C 
ATOM      7  F   LIG    1       20.367 -30.315  10.272  0.00  0.00    -0.238 F 
ATOM      8  C   LIG    1       19.848 -32.092  11.783  0.00  0.00    +0.047 C 
ATOM      9  C   LIG    1       19.301 -31.178  12.919  0.00  0.00    -0.020 C 
ATOM     10  C   LIG    1       18.281 -31.651  13.677  0.00  0.00    +0.054 C 
ATOM     11  C   LIG    1       18.745 -32.885  14.418  0.00  0.00    +0.179 C 
ATOM     12  C   LIG    1       19.710 -33.766  13.691  0.00  0.00    +0.047 C 
ATOM     13  O   LIG    1       18.266 -33.201  15.498  0.00  0.00    -0.288 OA
ATOM     14  C   LIG    1       20.352 -30.404  13.688  0.00  0.00    +0.194 C 
ATOM     15  F   LIG    1       21.082 -31.245  14.478  0.00  0.00    -0.241 F 
ATOM     16  C   LIG    1       18.708 -32.438  10.782  0.00  0.00    +0.023 C 
ATOM     17  C   LIG    1       20.193 -33.419  12.481  0.00  0.00    -0.009 C 
ATOM     18  C   LIG    1       21.330 -29.672  12.802  0.00  0.00    +0.048 C 
ATOM     19  C   LIG    1       24.175 -29.170  11.805  0.00  0.00    +0.012 C 
ATOM     20  C   LIG    1       24.555 -29.711   8.931  0.00  0.00    +0.016 C 
ATOM     21  C   LIG    1       22.914 -31.549   9.147  0.00  0.00    +0.045 C 
ATOM     22  C   LIG    1       25.090 -30.345  12.147  0.00  0.00    +0.038 C 
ATOM     23  C   LIG    1       26.425 -29.807  12.658  0.00  0.00    +0.012 C 
ENDROOT
BRANCH   6  24
ATOM     24  O   LIG    1       22.033 -33.515  10.188  0.00  0.00    -0.389 OA
ATOM     25  H   LIG    1       21.907 -33.588  11.154  0.00  0.00    +0.210 HD
ENDBRANCH   6  24
BRANCH   1  26
ATOM     26  C   LIG    1       26.359 -31.582  10.135  0.00  0.00    +0.192 C 
ATOM     27  O   LIG    1       27.317 -30.815  10.258  0.00  0.00    -0.292 OA
BRANCH  26  28
ATOM     28  C   LIG    1       26.440 -32.770   9.184  0.00  0.00    +0.187 C 
ATOM     29 CL   LIG    1       26.700 -32.219   7.506  0.00  0.00    -0.117 Cl
ENDBRANCH  26  28
ENDBRANCH   1  26
BRANCH   1  30
ATOM     30  O   LIG    1       24.477 -32.635  11.342  0.00  0.00    -0.450 OA
BRANCH  30  31
ATOM     31  C   LIG    1       24.897 -33.173  12.525  0.00  0.00    +0.308 C 
ATOM     32  O   LIG    1       26.036 -33.497  12.771  0.00  0.00    -0.251 OA
BRANCH  31  34
ATOM     33  C   LIG    1       23.961 -32.588  14.760  0.00  0.00    +0.015 C 
ATOM     34  C   LIG    1       23.738 -33.371  13.477  0.00  0.00    +0.117 C 
ENDBRANCH  31  34
ENDBRANCH  30  31
ENDBRANCH   1  30
TORSDOF 6
ENDMDL
MODEL 8
REMARK VINA RESULT:      -4.5      2.530      3.846
REMARK  Name = *****
REMARK                            x       y       z     vdW  Elec       q    Type
REMARK                         _______ _______ _______ _____ _____    ______ ____
ROOT
ATOM      1  C   LIG    1       24.718 -31.867  10.027  0.00  0.00    +0.180 C 
ATOM      2  C   LIG    1       24.756 -32.402  11.550  0.00  0.00    +0.021 C 
ATOM      3  C   LIG    1       23.255 -32.529  11.921  0.00  0.00    +0.006 C 
ATOM      4  C   LIG    1       22.568 -31.171  12.273  0.00  0.00    +0.037 C 
ATOM      5  C   LIG    1       23.240 -30.492  13.485  0.00  0.00    +0.153 C 
ATOM      6  C   LIG    1       24.782 -30.375  13.297  0.00  0.00    +0.154 C 
ATOM      7  F   LIG    1       23.087 -31.410  14.520  0.00  0.00    -0.238 F 
ATOM      8  C   LIG    1       22.486 -29.159  13.986  0.00  0.00    +0.047 C 
ATOM      9  C   LIG    1       20.948 -29.382  14.065  0.00  0.00    -0.020 C 
ATOM     10  C   LIG    1       20.181 -28.362  14.521  0.00  0.00    +0.054 C 
ATOM     11  C   LIG    1       20.312 -27.185  13.580  0.00  0.00    +0.179 C 
ATOM     12  C   LIG    1       21.654 -26.992  12.949  0.00  0.00    +0.047 C 
ATOM     13  O   LIG    1       19.407 -26.375  13.439  0.00  0.00    -0.288 OA
ATOM     14  C   LIG    1       20.346 -30.155  12.909  0.00  0.00    +0.194 C 
ATOM     15  F   LIG    1       20.353 -29.397  11.773  0.00  0.00    -0.241 F 
ATOM     16  C   LIG    1       23.048 -28.811  15.394  0.00  0.00    +0.023 C 
ATOM     17  C   LIG    1       22.653 -27.875  13.153  0.00  0.00    -0.009 C 
ATOM     18  C   LIG    1       21.083 -31.432  12.589  0.00  0.00    +0.048 C 
ATOM     19  C   LIG    1       22.687 -33.183  10.665  0.00  0.00    +0.012 C 
ATOM     20  C   LIG    1       25.407 -33.825  11.606  0.00  0.00    +0.016 C 
ATOM     21  C   LIG    1       25.483 -31.582  12.648  0.00  0.00    +0.045 C 
ATOM     22  C   LIG    1       23.277 -32.348   9.529  0.00  0.00    +0.038 C 
ATOM     23  C   LIG    1       23.096 -33.100   8.211  0.00  0.00    +0.012 C 
ENDROOT
BRANCH   6  24
ATOM     24  O   LIG    1       25.222 -29.204  12.621  0.00  0.00    -0.389 OA
ATOM     25  H   LIG    1       25.162 -28.468  13.261  0.00  0.00    +0.210 HD
ENDBRANCH   6  24
BRANCH   1  26
ATOM     26  C   LIG    1       25.936 -32.388   9.186  0.00  0.00    +0.192 C 
ATOM     27  O   LIG    1       27.100 -32.235   9.567  0.00  0.00    -0.292 OA
BRANCH  26  28
ATOM     28  C   LIG    1       25.645 -33.059   7.850  0.00  0.00    +0.187 C 
ATOM     29 CL   LIG    1       26.149 -32.012   6.495  0.00  0.00    -0.117 Cl
ENDBRANCH  26  28
ENDBRANCH   1  26
BRANCH   1  30
ATOM     30  O   LIG    1       24.760 -30.412  10.089  0.00  0.00    -0.450 OA
BRANCH  30  31
ATOM     31  C   LIG    1       24.670 -29.685   8.936  0.00  0.00    +0.308 C 
ATOM     32  O   LIG    1       23.705 -29.660   8.208  0.00  0.00    -0.251 OA
BRANCH  31  34
ATOM     33  C   LIG    1       26.728 -28.698   9.938  0.00  0.00    +0.015 C 
ATOM     34  C   LIG    1       25.963 -28.953   8.650  0.00  0.00    +0.117 C 
ENDBRANCH  31  34
ENDBRANCH  30  31
ENDBRANCH   1  30
TORSDOF 6
ENDMDL
MODEL 9
REMARK VINA RESULT:      -4.4      2.856      4.577
REMARK  Name = *****
REMARK                            x       y       z     vdW  Elec       q    Type
REMARK                         _______ _______ _______ _____ _____    ______ ____
ROOT
ATOM      1  C   LIG    1       26.496 -28.212  13.963  0.00  0.00    +0.180 C 
ATOM      2  C   LIG    1       27.046 -29.582  13.310  0.00  0.00    +0.021 C 
ATOM      3  C   LIG    1       26.419 -29.577  11.891  0.00  0.00    +0.006 C 
ATOM      4  C   LIG    1       24.916 -30.004  11.855  0.00  0.00    +0.037 C 
ATOM      5  C   LIG    1       24.721 -31.438  12.391  0.00  0.00    +0.153 C 
ATOM      6  C   LIG    1       25.386 -31.626  13.788  0.00  0.00    +0.154 C 
ATOM      7  F   LIG    1       25.484 -32.229  11.536  0.00  0.00    -0.238 F 
ATOM      8  C   LIG    1       23.214 -31.989  12.246  0.00  0.00    +0.047 C 
ATOM      9  C   LIG    1       22.639 -31.679  10.833  0.00  0.00    -0.020 C 
ATOM     10  C   LIG    1       21.393 -32.127  10.543  0.00  0.00    +0.054 C 
ATOM     11  C   LIG    1       20.400 -31.468  11.474  0.00  0.00    +0.179 C 
ATOM     12  C   LIG    1       20.878 -31.200  12.866  0.00  0.00    +0.047 C 
ATOM     13  O   LIG    1       19.240 -31.275  11.139  0.00  0.00    -0.288 OA
ATOM     14  C   LIG    1       22.952 -30.297  10.296  0.00  0.00    +0.194 C 
ATOM     15  F   LIG    1       22.250 -29.348  10.982  0.00  0.00    -0.241 F 
ATOM     16  C   LIG    1       23.259 -33.527  12.478  0.00  0.00    +0.023 C 
ATOM     17  C   LIG    1       22.152 -31.461  13.226  0.00  0.00    -0.009 C 
ATOM     18  C   LIG    1       24.412 -29.926  10.403  0.00  0.00    +0.048 C 
ATOM     19  C   LIG    1       26.643 -28.128  11.467  0.00  0.00    +0.012 C 
ATOM     20  C   LIG    1       28.604 -29.526  13.169  0.00  0.00    +0.016 C 
ATOM     21  C   LIG    1       26.752 -30.945  13.990  0.00  0.00    +0.045 C 
ATOM     22  C   LIG    1       26.166 -27.324  12.675  0.00  0.00    +0.038 C 
ATOM     23  C   LIG    1       26.665 -25.886  12.546  0.00  0.00    +0.012 C 
ENDROOT
BRANCH   6  24
ATOM     24  O   LIG    1       24.565 -31.290  14.898  0.00  0.00    -0.389 OA
ATOM     25  H   LIG    1       25.153 -31.211  15.673  0.00  0.00    +0.210 HD
ENDBRANCH   6  24
BRANCH   1  26
ATOM     26  C   LIG    1       27.519 -27.586  14.976  0.00  0.00    +0.192 C 
ATOM     27  O   LIG    1       28.408 -28.263  15.500  0.00  0.00    -0.292 OA
BRANCH  26  28
ATOM     28  C   LIG    1       27.361 -26.114  15.331  0.00  0.00    +0.187 C 
ATOM     29 CL   LIG    1       28.951 -25.308  15.411  0.00  0.00    -0.117 Cl
ENDBRANCH  26  28
ENDBRANCH   1  26
BRANCH   1  30
ATOM     30  O   LIG    1       25.263 -28.543  14.665  0.00  0.00    -0.450 OA
BRANCH  30  31
ATOM     31  C   LIG    1       24.266 -27.614  14.753  0.00  0.00    +0.308 C 
ATOM     32  O   LIG    1       24.279 -26.655  15.490  0.00  0.00    -0.251 OA
BRANCH  31  34
ATOM     33  C   LIG    1       22.489 -26.714  13.254  0.00  0.00    +0.015 C 
ATOM     34  C   LIG    1       23.107 -27.969  13.848  0.00  0.00    +0.117 C 
ENDBRANCH  31  34
ENDBRANCH  30  31
ENDBRANCH   1  30
TORSDOF 6
ENDMDL
