MODEL 1
REMARK VINA RESULT:      -5.2      0.000      0.000
REMARK  Name = *****
REMARK                            x       y       z     vdW  Elec       q    Type
REMARK                         _______ _______ _______ _____ _____    ______ ____
ROOT
ATOM      1  N   LIG    1       31.538 -20.087   9.342  0.00  0.00    -0.186 N 
ATOM      2  H   LIG    1       31.643 -20.141  10.343  0.00  0.00    +0.271 HD
ENDROOT
BRANCH   1   3
ATOM      3  C   LIG    1       31.694 -18.834   8.814  0.00  0.00    +0.390 C 
ATOM      4  N   LIG    1       31.827 -18.687   7.533  0.00  0.00    -0.129 NA
ATOM      5  H   LIG    1       31.913 -17.701   7.297  0.00  0.00    +0.306 HD
BRANCH   3   7
ATOM      6  C   LIG    1       32.338 -16.520   9.464  0.00  0.00    +0.241 C 
ATOM      7  N   LIG    1       31.652 -17.787   9.713  0.00  0.00    -0.268 N 
ATOM      8  C   LIG    1       30.638 -17.718  10.761  0.00  0.00    +0.241 C 
ENDBRANCH   3   7
ENDBRANCH   1   3
BRANCH   1   9
ATOM      9  C   LIG    1       31.234 -21.282   8.787  0.00  0.00    +0.386 C 
ATOM     10  N   LIG    1       31.918 -22.374   8.855  0.00  0.00    -0.129 NA
ATOM     11  H   LIG    1       32.759 -22.127   9.403  0.00  0.00    +0.306 HD
BRANCH   9  12
ATOM     12  N   LIG    1       30.086 -21.280   8.069  0.00  0.00    -0.289 N 
ATOM     13  H   LIG    1       30.053 -22.159   7.555  0.00  0.00    +0.255 HD
ATOM     14  H   LIG    1       30.077 -20.522   7.390  0.00  0.00    +0.255 HD
ENDBRANCH   9  12
ENDBRANCH   1   9
TORSDOF 4
ENDMDL
MODEL 2
REMARK VINA RESULT:      -5.1      1.558      3.915
REMARK  Name = *****
REMARK                            x       y       z     vdW  Elec       q    Type
REMARK                         _______ _______ _______ _____ _____    ______ ____
ROOT
ATOM      1  N   LIG    1       32.023 -18.586   8.314  0.00  0.00    -0.186 N 
ATOM      2  H   LIG    1       32.458 -18.417   7.421  0.00  0.00    +0.271 HD
ENDROOT
BRANCH   1   3
ATOM      3  C   LIG    1       31.431 -19.813   8.443  0.00  0.00    +0.390 C 
ATOM      4  N   LIG    1       31.963 -20.708   9.215  0.00  0.00    -0.129 NA
ATOM      5  H   LIG    1       31.398 -21.553   9.219  0.00  0.00    +0.306 HD
BRANCH   3   7
ATOM      6  C   LIG    1       29.923 -19.215   6.556  0.00  0.00    +0.241 C 
ATOM      7  N   LIG    1       30.249 -19.991   7.752  0.00  0.00    -0.268 N 
ATOM      8  C   LIG    1       29.436 -21.192   7.919  0.00  0.00    +0.241 C 
ENDBRANCH   3   7
ENDBRANCH   1   3
BRANCH   1   9
ATOM      9  C   LIG    1       32.117 -17.525   9.146  0.00  0.00    +0.386 C 
ATOM     10  N   LIG    1       32.498 -16.327   8.849  0.00  0.00    -0.129 NA
ATOM     11  H   LIG    1       32.739 -16.367   7.845  0.00  0.00    +0.306 HD
BRANCH   9  12
ATOM     12  N   LIG    1       31.788 -17.799  10.430  0.00  0.00    -0.289 N 
ATOM     13  H   LIG    1       32.546 -18.356  10.821  0.00  0.00    +0.255 HD
ATOM     14  H   LIG    1       30.936 -18.352  10.482  0.00  0.00    +0.255 HD
ENDBRANCH   9  12
ENDBRANCH   1   9
TORSDOF 4
ENDMDL
MODEL 3
REMARK VINA RESULT:      -4.9      1.369      2.437
REMARK  Name = *****
REMARK                            x       y       z     vdW  Elec       q    Type
REMARK                         _______ _______ _______ _____ _____    ______ ____
ROOT
ATOM      1  N   LIG    1       31.512 -19.040   7.439  0.00  0.00    -0.186 N 
ATOM      2  H   LIG    1       32.369 -18.821   6.957  0.00  0.00    +0.271 HD
ENDROOT
BRANCH   1   3
ATOM      3  C   LIG    1       31.632 -19.170   8.796  0.00  0.00    +0.390 C 
ATOM      4  N   LIG    1       31.888 -20.331   9.312  0.00  0.00    -0.129 NA
ATOM      5  H   LIG    1       31.965 -20.260  10.323  0.00  0.00    +0.306 HD
BRANCH   3   7
ATOM      6  C   LIG    1       32.291 -16.809   9.222  0.00  0.00    +0.241 C 
ATOM      7  N   LIG    1       31.511 -18.007   9.530  0.00  0.00    -0.268 N 
ATOM      8  C   LIG    1       30.357 -17.759  10.388  0.00  0.00    +0.241 C 
ENDBRANCH   3   7
ENDBRANCH   1   3
BRANCH   1   9
ATOM      9  C   LIG    1       30.464 -19.179   6.597  0.00  0.00    +0.386 C 
ATOM     10  N   LIG    1       30.044 -18.328   5.721  0.00  0.00    -0.129 NA
ATOM     11  H   LIG    1       30.667 -17.510   5.825  0.00  0.00    +0.306 HD
BRANCH   9  12
ATOM     12  N   LIG    1       29.794 -20.347   6.737  0.00  0.00    -0.289 N 
ATOM     13  H   LIG    1       30.442 -21.095   6.497  0.00  0.00    +0.255 HD
ATOM     14  H   LIG    1       29.006 -20.399   6.095  0.00  0.00    +0.255 HD
ENDBRANCH   9  12
ENDBRANCH   1   9
TORSDOF 4
ENDMDL
MODEL 4
REMARK VINA RESULT:      -4.8      2.604      3.967
REMARK  Name = *****
REMARK                            x       y       z     vdW  Elec       q    Type
REMARK                         _______ _______ _______ _____ _____    ______ ____
ROOT
ATOM      1  N   LIG    1       30.302 -21.339   7.824  0.00  0.00    -0.186 N 
ATOM      2  H   LIG    1       30.846 -21.623   7.025  0.00  0.00    +0.271 HD
ENDROOT
BRANCH   1   3
ATOM      3  C   LIG    1       29.019 -20.954   7.540  0.00  0.00    +0.390 C 
ATOM      4  N   LIG    1       28.040 -21.386   8.270  0.00  0.00    -0.129 NA
ATOM      5  H   LIG    1       27.158 -20.997   7.945  0.00  0.00    +0.306 HD
BRANCH   3   7
ATOM      6  C   LIG    1       27.634 -19.982   5.715  0.00  0.00    +0.241 C 
ATOM      7  N   LIG    1       28.872 -20.069   6.490  0.00  0.00    -0.268 N 
ATOM      8  C   LIG    1       29.758 -18.921   6.326  0.00  0.00    +0.241 C 
ENDBRANCH   3   7
ENDBRANCH   1   3
BRANCH   1   9
ATOM      9  C   LIG    1       31.008 -21.388   8.976  0.00  0.00    +0.386 C 
ATOM     10  N   LIG    1       30.920 -22.273   9.912  0.00  0.00    -0.129 NA
ATOM     11  H   LIG    1       30.175 -22.918   9.599  0.00  0.00    +0.306 HD
BRANCH   9  12
ATOM     12  N   LIG    1       31.876 -20.361   9.135  0.00  0.00    -0.289 N 
ATOM     13  H   LIG    1       32.439 -20.570   9.957  0.00  0.00    +0.255 HD
ATOM     14  H   LIG    1       31.384 -19.487   9.308  0.00  0.00    +0.255 HD
ENDBRANCH   9  12
ENDBRANCH   1   9
TORSDOF 4
ENDMDL
MODEL 5
REMARK VINA RESULT:      -4.6      1.839      2.305
REMARK  Name = *****
REMARK                            x       y       z     vdW  Elec       q    Type
REMARK                         _______ _______ _______ _____ _____    ______ ____
ROOT
ATOM      1  N   LIG    1       32.109 -18.483   8.793  0.00  0.00    -0.186 N 
ATOM      2  H   LIG    1       32.710 -19.214   9.137  0.00  0.00    +0.271 HD
ENDROOT
BRANCH   1   3
ATOM      3  C   LIG    1       32.253 -17.276   9.423  0.00  0.00    +0.390 C 
ATOM      4  N   LIG    1       32.600 -16.230   8.740  0.00  0.00    -0.129 NA
ATOM      5  H   LIG    1       32.646 -15.413   9.343  0.00  0.00    +0.306 HD
BRANCH   3   7
ATOM      6  C   LIG    1       32.813 -16.561  11.740  0.00  0.00    +0.241 C 
ATOM      7  N   LIG    1       31.966 -17.259  10.773  0.00  0.00    -0.268 N 
ATOM      8  C   LIG    1       30.636 -17.587  11.278  0.00  0.00    +0.241 C 
ENDBRANCH   3   7
ENDBRANCH   1   3
BRANCH   1   9
ATOM      9  C   LIG    1       31.285 -18.907   7.809  0.00  0.00    +0.386 C 
ATOM     10  N   LIG    1       31.502 -19.855   6.960  0.00  0.00    -0.129 NA
ATOM     11  H   LIG    1       32.451 -20.199   7.183  0.00  0.00    +0.306 HD
BRANCH   9  12
ATOM     12  N   LIG    1       30.124 -18.216   7.724  0.00  0.00    -0.289 N 
ATOM     13  H   LIG    1       29.373 -18.900   7.660  0.00  0.00    +0.255 HD
ATOM     14  H   LIG    1       30.097 -17.643   6.884  0.00  0.00    +0.255 HD
ENDBRANCH   9  12
ENDBRANCH   1   9
TORSDOF 4
ENDMDL
MODEL 6
REMARK VINA RESULT:      -4.6      1.346      2.066
REMARK  Name = *****
REMARK                            x       y       z     vdW  Elec       q    Type
REMARK                         _______ _______ _______ _____ _____    ______ ____
ROOT
ATOM      1  N   LIG    1       31.220 -18.796  10.026  0.00  0.00    -0.186 N 
ATOM      2  H   LIG    1       30.922 -19.279  10.858  0.00  0.00    +0.271 HD
ENDROOT
BRANCH   1   3
ATOM      3  C   LIG    1       31.104 -17.433  10.080  0.00  0.00    +0.390 C 
ATOM      4  N   LIG    1       30.072 -16.852   9.552  0.00  0.00    -0.129 NA
ATOM      5  H   LIG    1       30.123 -15.846   9.691  0.00  0.00    +0.306 HD
BRANCH   3   7
ATOM      6  C   LIG    1       33.025 -15.851  10.076  0.00  0.00    +0.241 C 
ATOM      7  N   LIG    1       32.107 -16.765  10.754  0.00  0.00    -0.268 N 
ATOM      8  C   LIG    1       32.088 -16.619  12.207  0.00  0.00    +0.241 C 
ENDBRANCH   3   7
ENDBRANCH   1   3
BRANCH   1   9
ATOM      9  C   LIG    1       31.630 -19.640   9.054  0.00  0.00    +0.386 C 
ATOM     10  N   LIG    1       31.994 -20.872   9.188  0.00  0.00    -0.129 NA
ATOM     11  H   LIG    1       31.927 -21.060  10.202  0.00  0.00    +0.306 HD
BRANCH   9  12
ATOM     12  N   LIG    1       31.673 -19.083   7.821  0.00  0.00    -0.289 N 
ATOM     13  H   LIG    1       30.779 -18.618   7.671  0.00  0.00    +0.255 HD
ATOM     14  H   LIG    1       31.778 -19.794   7.099  0.00  0.00    +0.255 HD
ENDBRANCH   9  12
ENDBRANCH   1   9
TORSDOF 4
ENDMDL
MODEL 7
REMARK VINA RESULT:      -4.5      2.580      4.207
REMARK  Name = *****
REMARK                            x       y       z     vdW  Elec       q    Type
REMARK                         _______ _______ _______ _____ _____    ______ ____
ROOT
ATOM      1  N   LIG    1       30.114 -18.549   7.883  0.00  0.00    -0.186 N 
ATOM      2  H   LIG    1       29.434 -18.313   8.588  0.00  0.00    +0.271 HD
ENDROOT
BRANCH   1   3
ATOM      3  C   LIG    1       29.588 -18.883   6.664  0.00  0.00    +0.390 C 
ATOM      4  N   LIG    1       29.988 -18.264   5.598  0.00  0.00    -0.129 NA
ATOM      5  H   LIG    1       29.520 -18.637   4.776  0.00  0.00    +0.306 HD
BRANCH   3   7
ATOM      6  C   LIG    1       27.580 -19.987   5.695  0.00  0.00    +0.241 C 
ATOM      7  N   LIG    1       28.675 -19.919   6.662  0.00  0.00    -0.268 N 
ATOM      8  C   LIG    1       28.947 -21.182   7.342  0.00  0.00    +0.241 C 
ENDBRANCH   3   7
ENDBRANCH   1   3
BRANCH   1   9
ATOM      9  C   LIG    1       31.382 -18.502   8.350  0.00  0.00    +0.386 C 
ATOM     10  N   LIG    1       32.236 -17.545   8.202  0.00  0.00    -0.129 NA
ATOM     11  H   LIG    1       31.746 -16.838   7.628  0.00  0.00    +0.306 HD
BRANCH   9  12
ATOM     12  N   LIG    1       31.765 -19.613   9.021  0.00  0.00    -0.289 N 
ATOM     13  H   LIG    1       32.215 -20.230   8.348  0.00  0.00    +0.255 HD
ATOM     14  H   LIG    1       30.962 -20.105   9.407  0.00  0.00    +0.255 HD
ENDBRANCH   9  12
ENDBRANCH   1   9
TORSDOF 4
ENDMDL
MODEL 8
REMARK VINA RESULT:      -4.5      1.552      2.856
REMARK  Name = *****
REMARK                            x       y       z     vdW  Elec       q    Type
REMARK                         _______ _______ _______ _____ _____    ______ ____
ROOT
ATOM      1  N   LIG    1       30.242 -21.541   8.043  0.00  0.00    -0.186 N 
ATOM      2  H   LIG    1       30.523 -22.468   7.768  0.00  0.00    +0.271 HD
ENDROOT
BRANCH   1   3
ATOM      3  C   LIG    1       31.173 -20.848   8.768  0.00  0.00    +0.390 C 
ATOM      4  N   LIG    1       32.059 -21.491   9.462  0.00  0.00    -0.129 NA
ATOM      5  H   LIG    1       32.687 -20.840   9.926  0.00  0.00    +0.306 HD
BRANCH   3   7
ATOM      6  C   LIG    1       31.044 -18.605   9.838  0.00  0.00    +0.241 C 
ATOM      7  N   LIG    1       31.122 -19.472   8.663  0.00  0.00    -0.268 N 
ATOM      8  C   LIG    1       31.523 -18.781   7.441  0.00  0.00    +0.241 C 
ENDBRANCH   3   7
ENDBRANCH   1   3
BRANCH   1   9
ATOM      9  C   LIG    1       28.987 -21.239   7.641  0.00  0.00    +0.386 C 
ATOM     10  N   LIG    1       27.930 -21.144   8.377  0.00  0.00    -0.129 NA
ATOM     11  H   LIG    1       28.250 -21.376   9.332  0.00  0.00    +0.306 HD
BRANCH   9  12
ATOM     12  N   LIG    1       28.866 -21.044   6.307  0.00  0.00    -0.289 N 
ATOM     13  H   LIG    1       27.921 -21.320   6.048  0.00  0.00    +0.255 HD
ATOM     14  H   LIG    1       29.515 -21.632   5.789  0.00  0.00    +0.255 HD
ENDBRANCH   9  12
ENDBRANCH   1   9
TORSDOF 4
ENDMDL
MODEL 9
REMARK VINA RESULT:      -4.5      8.677     10.451
REMARK  Name = *****
REMARK                            x       y       z     vdW  Elec       q    Type
REMARK                         _______ _______ _______ _____ _____    ______ ____
ROOT
ATOM      1  N   LIG    1       24.312 -27.275   6.122  0.00  0.00    -0.186 N 
ATOM      2  H   LIG    1       23.606 -27.109   6.821  0.00  0.00    +0.271 HD
ENDROOT
BRANCH   1   3
ATOM      3  C   LIG    1       25.007 -26.162   5.731  0.00  0.00    +0.390 C 
ATOM      4  N   LIG    1       25.775 -26.216   4.688  0.00  0.00    -0.129 NA
ATOM      5  H   LIG    1       26.204 -25.310   4.518  0.00  0.00    +0.306 HD
BRANCH   3   7
ATOM      6  C   LIG    1       25.890 -24.146   6.891  0.00  0.00    +0.241 C 
ATOM      7  N   LIG    1       24.794 -25.021   6.478  0.00  0.00    -0.268 N 
ATOM      8  C   LIG    1       23.473 -24.406   6.576  0.00  0.00    +0.241 C 
ENDBRANCH   3   7
ENDBRANCH   1   3
BRANCH   1   9
ATOM      9  C   LIG    1       24.361 -28.568   5.730  0.00  0.00    +0.386 C 
ATOM     10  N   LIG    1       23.367 -29.329   5.415  0.00  0.00    -0.129 NA
ATOM     11  H   LIG    1       22.528 -28.742   5.554  0.00  0.00    +0.306 HD
BRANCH   9  12
ATOM     12  N   LIG    1       25.610 -29.089   5.701  0.00  0.00    -0.289 N 
ATOM     13  H   LIG    1       25.599 -29.854   5.030  0.00  0.00    +0.255 HD
ATOM     14  H   LIG    1       25.870 -29.473   6.607  0.00  0.00    +0.255 HD
ENDBRANCH   9  12
ENDBRANCH   1   9
TORSDOF 4
ENDMDL
