MODEL 1
REMARK VINA RESULT:       8.9      0.000      0.000
REMARK  Name = *****
REMARK                            x       y       z     vdW  Elec       q    Type
REMARK                         _______ _______ _______ _____ _____    ______ ____
ROOT
ATOM      1  C   LIG    1       22.967 -19.825   4.172  0.00  0.00    +0.001 C 
ATOM      2  C   LIG    1       23.762 -18.522   4.645  0.00  0.00    +0.000 C 
ATOM      3  C   LIG    1       23.945 -18.438   6.177  0.00  0.00    +0.014 C 
ATOM      4  C   LIG    1       22.811 -17.325   4.243  0.00  0.00    +0.003 C 
ATOM      5  C   LIG    1       23.413 -15.954   3.837  0.00  0.00    +0.025 C 
ATOM      6  C   LIG    1       25.003 -16.169   2.840  0.00  0.00    +0.003 C 
ATOM      7  C   LIG    1       25.311 -17.675   2.702  0.00  0.00    +0.036 C 
ATOM      8  C   LIG    1       26.403 -15.131   3.450  0.00  0.00    -0.026 C 
ATOM      9  C   LIG    1       27.681 -15.904   3.713  0.00  0.00    +0.012 C 
ATOM     10  C   LIG    1       26.359 -13.609   4.533  0.00  0.00    +0.000 C 
ATOM     11  C   LIG    1       26.433 -12.400   3.649  0.00  0.00    +0.035 C 
ATOM     12  C   LIG    1       25.385 -12.748   2.647  0.00  0.00    +0.115 C 
ATOM     13  C   LIG    1       24.503 -13.869   3.278  0.00  0.00    +0.032 C 
ATOM     14  C   LIG    1       24.762 -13.489   5.583  0.00  0.00    +0.035 C 
ATOM     15  C   LIG    1       25.426 -15.183   4.421  0.00  0.00    +0.009 C 
ATOM     16  C   LIG    1       23.448 -14.801   5.325  0.00  0.00    +0.118 C 
ATOM     17  C   LIG    1       21.922 -17.902   3.141  0.00  0.00    +0.005 C 
ATOM     18  C   LIG    1       25.197 -18.466   4.004  0.00  0.00    +0.121 C 
ATOM     19  C   LIG    1       21.613 -19.289   3.662  0.00  0.00    +0.005 C 
ENDROOT
BRANCH   1  21
ATOM     20  C   LIG    1       21.321 -21.554   5.250  0.00  0.00    +0.008 C 
ATOM     21  C   LIG    1       22.761 -21.030   5.152  0.00  0.00    -0.010 C 
BRANCH  21  22
ATOM     22  C   LIG    1       23.252 -20.718   6.596  0.00  0.00    +0.015 C 
BRANCH  22  23
ATOM     23  C   LIG    1       24.431 -21.572   7.062  0.00  0.00    +0.121 C 
BRANCH  23  24
ATOM     24  C   LIG    1       25.727 -21.052   6.494  0.00  0.00    +0.305 C 
ATOM     25  O   LIG    1       26.444 -20.247   7.061  0.00  0.00    -0.251 OA
BRANCH  24  26
ATOM     26  O   LIG    1       26.012 -21.549   5.269  0.00  0.00    -0.481 OA
ATOM     27  H   LIG    1       26.126 -22.518   5.248  0.00  0.00    +0.295 HD
ENDBRANCH  24  26
ENDBRANCH  23  24
ENDBRANCH  22  23
ENDBRANCH  21  22
ENDBRANCH   1  21
BRANCH  12  28
ATOM     28  O   LIG    1       24.606 -11.615   2.301  0.00  0.00    -0.392 OA
ATOM     29  H   LIG    1       24.881 -11.318   1.415  0.00  0.00    +0.210 HD
ENDBRANCH  12  28
BRANCH  16  30
ATOM     30  O   LIG    1       22.175 -14.162   5.435  0.00  0.00    -0.392 OA
ATOM     31  H   LIG    1       22.329 -13.261   5.765  0.00  0.00    +0.210 HD
ENDBRANCH  16  30
BRANCH  18  32
ATOM     32  O   LIG    1       25.732 -19.777   3.798  0.00  0.00    -0.391 OA
ATOM     33  H   LIG    1       25.322 -20.384   4.439  0.00  0.00    +0.210 HD
ENDBRANCH  18  32
TORSDOF 8
ENDMDL
