MODEL 1
REMARK VINA RESULT:      -9.6      0.000      0.000
REMARK  Name = *****
REMARK                            x       y       z     vdW  Elec       q    Type
REMARK                         _______ _______ _______ _____ _____    ______ ____
ROOT
ATOM      1  C   LIG    1       26.728 -21.099   6.844  0.00  0.00    +0.068 C 
ATOM      2  C   LIG    1       27.824 -22.085   7.313  0.00  0.00    +0.044 C 
ATOM      3  C   LIG    1       29.149 -21.400   7.770  0.00  0.00    +0.086 C 
ATOM      4  N   LIG    1       29.423 -20.053   7.251  0.00  0.00    -0.300 NA
ATOM      5  C   LIG    1       28.876 -19.871   5.929  0.00  0.00    +0.086 C 
ATOM      6  C   LIG    1       27.370 -19.988   5.946  0.00  0.00    +0.044 C 
ENDROOT
BRANCH   1   8
ATOM      7  C   LIG    1       25.176 -23.225   6.191  0.00  0.00    +0.220 C 
ATOM      8  N   LIG    1       25.509 -21.847   6.065  0.00  0.00    -0.263 N 
ATOM      9  O   LIG    1       24.081 -23.712   5.868  0.00  0.00    -0.275 OA
BRANCH   8  10
ATOM     10  C   LIG    1       24.495 -20.977   5.298  0.00  0.00    +0.037 A 
ATOM     11  C   LIG    1       24.653 -20.527   3.973  0.00  0.00    +0.023 A 
ATOM     12  C   LIG    1       24.044 -19.349   3.487  0.00  0.00    +0.002 A 
ATOM     13  C   LIG    1       22.956 -18.820   4.147  0.00  0.00    +0.000 A 
ATOM     14  C   LIG    1       22.532 -19.463   5.292  0.00  0.00    +0.002 A 
ATOM     15  C   LIG    1       23.311 -20.484   5.869  0.00  0.00    +0.023 A 
ENDBRANCH   8  10
BRANCH   7  17
ATOM     16  C   LIG    1       25.531 -25.717   6.525  0.00  0.00    +0.013 C 
ATOM     17  C   LIG    1       26.091 -24.324   6.673  0.00  0.00    +0.093 C 
ENDBRANCH   7  17
ENDBRANCH   1   8
BRANCH   4  18
ATOM     18  C   LIG    1       30.846 -19.656   7.252  0.00  0.00    +0.108 C 
BRANCH  18  19
ATOM     19  C   LIG    1       31.241 -18.234   7.743  0.00  0.00    +0.166 C 
BRANCH  19  20
ATOM     20  N   LIG    1       31.435 -18.050   9.164  0.00  0.00    -0.192 N 
ATOM     21  C   LIG    1       31.856 -16.917   9.801  0.00  0.00    +0.364 C 
ATOM     22  O   LIG    1       32.355 -15.863   9.304  0.00  0.00    -0.243 OA
ATOM     23  N   LIG    1       31.608 -17.137  11.114  0.00  0.00    -0.194 N 
ATOM     24  N   LIG    1       30.880 -18.287  11.234  0.00  0.00    -0.043 NA
ATOM     25  N   LIG    1       30.783 -18.834  10.090  0.00  0.00    -0.043 NA
BRANCH  23  26
ATOM     26  C   LIG    1       31.759 -16.159  12.157  0.00  0.00    +0.147 C 
ATOM     27  C   LIG    1       32.979 -16.445  13.012  0.00  0.00    +0.029 C 
ENDBRANCH  23  26
ENDBRANCH  19  20
ENDBRANCH  18  19
ENDBRANCH   4  18
BRANCH   1  28
ATOM     28  C   LIG    1       26.263 -20.226   8.089  0.00  0.00    +0.185 C 
BRANCH  28  29
ATOM     29  O   LIG    1       26.025 -20.946   9.300  0.00  0.00    -0.381 OA
ATOM     30  C   LIG    1       24.882 -21.803   9.212  0.00  0.00    +0.193 C 
ENDBRANCH  28  29
ENDBRANCH   1  28
TORSDOF 9
ENDMDL
MODEL 2
REMARK VINA RESULT:      -9.1      1.192      3.262
REMARK  Name = *****
REMARK                            x       y       z     vdW  Elec       q    Type
REMARK                         _______ _______ _______ _____ _____    ______ ____
ROOT
ATOM      1  C   LIG    1       26.131 -21.165   6.353  0.00  0.00    +0.068 C 
ATOM      2  C   LIG    1       27.022 -22.276   6.959  0.00  0.00    +0.044 C 
ATOM      3  C   LIG    1       28.290 -21.749   7.698  0.00  0.00    +0.086 C 
ATOM      4  N   LIG    1       28.781 -20.416   7.323  0.00  0.00    -0.300 NA
ATOM      5  C   LIG    1       28.518 -20.124   5.934  0.00  0.00    +0.086 C 
ATOM      6  C   LIG    1       27.033 -20.088   5.661  0.00  0.00    +0.044 C 
ENDROOT
BRANCH   1   8
ATOM      7  C   LIG    1       24.515 -21.061   4.178  0.00  0.00    +0.220 C 
ATOM      8  N   LIG    1       25.022 -21.751   5.315  0.00  0.00    -0.263 N 
ATOM      9  O   LIG    1       23.938 -21.612   3.227  0.00  0.00    -0.275 OA
BRANCH   8  10
ATOM     10  C   LIG    1       24.639 -23.239   5.426  0.00  0.00    +0.037 A 
ATOM     11  C   LIG    1       23.755 -23.779   6.379  0.00  0.00    +0.023 A 
ATOM     12  C   LIG    1       23.829 -25.120   6.819  0.00  0.00    +0.002 A 
ATOM     13  C   LIG    1       24.485 -26.056   6.049  0.00  0.00    +0.000 A 
ATOM     14  C   LIG    1       25.079 -25.618   4.883  0.00  0.00    +0.002 A 
ATOM     15  C   LIG    1       25.187 -24.241   4.609  0.00  0.00    +0.023 A 
ENDBRANCH   8  10
BRANCH   7  17
ATOM     16  C   LIG    1       23.192 -18.896   4.102  0.00  0.00    +0.013 C 
ATOM     17  C   LIG    1       24.534 -19.569   3.957  0.00  0.00    +0.093 C 
ENDBRANCH   7  17
ENDBRANCH   1   8
BRANCH   4  18
ATOM     18  C   LIG    1       30.208 -20.166   7.615  0.00  0.00    +0.108 C 
BRANCH  18  19
ATOM     19  C   LIG    1       30.698 -18.705   7.827  0.00  0.00    +0.166 C 
BRANCH  19  20
ATOM     20  N   LIG    1       31.168 -18.345   9.146  0.00  0.00    -0.192 N 
ATOM     21  C   LIG    1       31.836 -17.209   9.504  0.00  0.00    +0.364 C 
ATOM     22  O   LIG    1       32.365 -16.328   8.761  0.00  0.00    -0.243 OA
ATOM     23  N   LIG    1       31.805 -17.191  10.858  0.00  0.00    -0.194 N 
ATOM     24  N   LIG    1       30.972 -18.187  11.287  0.00  0.00    -0.043 NA
ATOM     25  N   LIG    1       30.602 -18.875  10.284  0.00  0.00    -0.043 NA
BRANCH  23  26
ATOM     26  C   LIG    1       32.263 -16.105  11.680  0.00  0.00    +0.147 C 
ATOM     27  C   LIG    1       32.725 -16.596  13.039  0.00  0.00    +0.029 C 
ENDBRANCH  23  26
ENDBRANCH  19  20
ENDBRANCH  18  19
ENDBRANCH   4  18
BRANCH   1  28
ATOM     28  C   LIG    1       25.517 -20.303   7.540  0.00  0.00    +0.185 C 
BRANCH  28  29
ATOM     29  O   LIG    1       24.361 -20.852   8.175  0.00  0.00    -0.381 OA
ATOM     30  C   LIG    1       23.145 -20.480   7.516  0.00  0.00    +0.193 C 
ENDBRANCH  28  29
ENDBRANCH   1  28
TORSDOF 9
ENDMDL
MODEL 3
REMARK VINA RESULT:      -8.7      1.438      3.645
REMARK  Name = *****
REMARK                            x       y       z     vdW  Elec       q    Type
REMARK                         _______ _______ _______ _____ _____    ______ ____
ROOT
ATOM      1  C   LIG    1       26.227 -21.307   6.684  0.00  0.00    +0.068 C 
ATOM      2  C   LIG    1       26.263 -20.581   8.050  0.00  0.00    +0.044 C 
ATOM      3  C   LIG    1       27.594 -19.820   8.336  0.00  0.00    +0.086 C 
ATOM      4  N   LIG    1       28.792 -20.265   7.611  0.00  0.00    -0.300 NA
ATOM      5  C   LIG    1       28.754 -21.682   7.340  0.00  0.00    +0.086 C 
ATOM      6  C   LIG    1       27.594 -22.030   6.437  0.00  0.00    +0.044 C 
ENDROOT
BRANCH   1   8
ATOM      7  C   LIG    1       23.607 -21.993   6.531  0.00  0.00    +0.220 C 
ATOM      8  N   LIG    1       24.984 -22.353   6.568  0.00  0.00    -0.263 N 
ATOM      9  O   LIG    1       22.702 -22.737   6.121  0.00  0.00    -0.275 OA
BRANCH   8  10
ATOM     10  C   LIG    1       25.303 -23.828   6.257  0.00  0.00    +0.037 A 
ATOM     11  C   LIG    1       25.104 -24.454   5.012  0.00  0.00    +0.023 A 
ATOM     12  C   LIG    1       24.877 -25.842   4.882  0.00  0.00    +0.002 A 
ATOM     13  C   LIG    1       25.246 -26.694   5.900  0.00  0.00    +0.000 A 
ATOM     14  C   LIG    1       25.796 -26.130   7.033  0.00  0.00    +0.002 A 
ATOM     15  C   LIG    1       25.781 -24.734   7.217  0.00  0.00    +0.023 A 
ENDBRANCH   8  10
BRANCH   7  17
ATOM     16  C   LIG    1       22.604 -19.739   5.933  0.00  0.00    +0.013 C 
ATOM     17  C   LIG    1       23.009 -20.700   7.024  0.00  0.00    +0.093 C 
ENDBRANCH   7  17
ENDBRANCH   1   8
BRANCH   4  18
ATOM     18  C   LIG    1       30.079 -19.921   8.250  0.00  0.00    +0.108 C 
BRANCH  18  19
ATOM     19  C   LIG    1       30.478 -18.426   8.407  0.00  0.00    +0.166 C 
BRANCH  19  20
ATOM     20  N   LIG    1       31.182 -18.049   9.612  0.00  0.00    -0.192 N 
ATOM     21  C   LIG    1       32.007 -16.975   9.786  0.00  0.00    +0.364 C 
ATOM     22  O   LIG    1       32.498 -16.198   8.912  0.00  0.00    -0.243 OA
ATOM     23  N   LIG    1       32.191 -16.880  11.125  0.00  0.00    -0.194 N 
ATOM     24  N   LIG    1       31.340 -17.754  11.743  0.00  0.00    -0.043 NA
ATOM     25  N   LIG    1       30.751 -18.451  10.858  0.00  0.00    -0.043 NA
BRANCH  23  26
ATOM     26  C   LIG    1       32.878 -15.808  11.790  0.00  0.00    +0.147 C 
ATOM     27  C   LIG    1       32.634 -15.839  13.287  0.00  0.00    +0.029 C 
ENDBRANCH  23  26
ENDBRANCH  19  20
ENDBRANCH  18  19
ENDBRANCH   4  18
BRANCH   1  28
ATOM     28  C   LIG    1       26.266 -20.216   5.528  0.00  0.00    +0.185 C 
BRANCH  28  29
ATOM     29  O   LIG    1       25.581 -20.561   4.323  0.00  0.00    -0.381 OA
ATOM     30  C   LIG    1       25.187 -19.410   3.568  0.00  0.00    +0.193 C 
ENDBRANCH  28  29
ENDBRANCH   1  28
TORSDOF 9
ENDMDL
MODEL 4
REMARK VINA RESULT:      -8.5      1.463      2.151
REMARK  Name = *****
REMARK                            x       y       z     vdW  Elec       q    Type
REMARK                         _______ _______ _______ _____ _____    ______ ____
ROOT
ATOM      1  C   LIG    1       26.771 -20.823   6.640  0.00  0.00    +0.068 C 
ATOM      2  C   LIG    1       26.697 -20.288   8.090  0.00  0.00    +0.044 C 
ATOM      3  C   LIG    1       28.067 -19.825   8.673  0.00  0.00    +0.086 C 
ATOM      4  N   LIG    1       29.281 -20.390   8.068  0.00  0.00    -0.300 NA
ATOM      5  C   LIG    1       29.060 -21.732   7.587  0.00  0.00    +0.086 C 
ATOM      6  C   LIG    1       28.025 -21.749   6.486  0.00  0.00    +0.044 C 
ENDROOT
BRANCH   1   8
ATOM      7  C   LIG    1       25.013 -22.888   6.657  0.00  0.00    +0.220 C 
ATOM      8  N   LIG    1       25.413 -21.603   6.194  0.00  0.00    -0.263 N 
ATOM      9  O   LIG    1       23.855 -23.329   6.580  0.00  0.00    -0.275 OA
BRANCH   8  10
ATOM     10  C   LIG    1       24.362 -20.823   5.381  0.00  0.00    +0.037 A 
ATOM     11  C   LIG    1       24.447 -20.547   4.002  0.00  0.00    +0.023 A 
ATOM     12  C   LIG    1       23.819 -19.431   3.406  0.00  0.00    +0.002 A 
ATOM     13  C   LIG    1       22.774 -18.808   4.053  0.00  0.00    +0.000 A 
ATOM     14  C   LIG    1       22.412 -19.295   5.293  0.00  0.00    +0.002 A 
ATOM     15  C   LIG    1       23.216 -20.246   5.950  0.00  0.00    +0.023 A 
ENDBRANCH   8  10
BRANCH   7  17
ATOM     16  C   LIG    1       25.752 -25.317   6.657  0.00  0.00    +0.013 C 
ATOM     17  C   LIG    1       25.912 -23.941   7.255  0.00  0.00    +0.093 C 
ENDBRANCH   7  17
ENDBRANCH   1   8
BRANCH   4  18
ATOM     18  C   LIG    1       30.482 -20.368   8.928  0.00  0.00    +0.108 C 
BRANCH  18  19
ATOM     19  C   LIG    1       31.616 -19.346   8.629  0.00  0.00    +0.166 C 
BRANCH  19  20
ATOM     20  N   LIG    1       31.557 -18.070   9.307  0.00  0.00    -0.192 N 
ATOM     21  C   LIG    1       31.217 -17.841  10.609  0.00  0.00    +0.364 C 
ATOM     22  O   LIG    1       30.694 -18.635  11.448  0.00  0.00    -0.243 OA
ATOM     23  N   LIG    1       31.581 -16.558  10.850  0.00  0.00    -0.194 N 
ATOM     24  N   LIG    1       32.297 -16.101   9.779  0.00  0.00    -0.043 NA
ATOM     25  N   LIG    1       32.278 -16.983   8.864  0.00  0.00    -0.043 NA
BRANCH  23  26
ATOM     26  C   LIG    1       31.545 -15.918  12.136  0.00  0.00    +0.147 C 
ATOM     27  C   LIG    1       32.816 -16.182  12.922  0.00  0.00    +0.029 C 
ENDBRANCH  23  26
ENDBRANCH  19  20
ENDBRANCH  18  19
ENDBRANCH   4  18
BRANCH   1  28
ATOM     28  C   LIG    1       27.178 -19.626   5.677  0.00  0.00    +0.185 C 
BRANCH  28  29
ATOM     29  O   LIG    1       28.520 -19.649   5.189  0.00  0.00    -0.381 OA
ATOM     30  C   LIG    1       29.190 -18.396   5.369  0.00  0.00    +0.193 C 
ENDBRANCH  28  29
ENDBRANCH   1  28
TORSDOF 9
ENDMDL
MODEL 5
REMARK VINA RESULT:      -7.8      4.347      9.493
REMARK  Name = *****
REMARK                            x       y       z     vdW  Elec       q    Type
REMARK                         _______ _______ _______ _____ _____    ______ ____
ROOT
ATOM      1  C   LIG    1       25.247 -22.635   6.563  0.00  0.00    +0.068 C 
ATOM      2  C   LIG    1       23.767 -23.041   6.360  0.00  0.00    +0.044 C 
ATOM      3  C   LIG    1       23.473 -24.548   6.630  0.00  0.00    +0.086 C 
ATOM      4  N   LIG    1       24.603 -25.482   6.525  0.00  0.00    -0.300 NA
ATOM      5  C   LIG    1       25.564 -25.047   5.541  0.00  0.00    +0.086 C 
ATOM      6  C   LIG    1       26.180 -23.725   5.935  0.00  0.00    +0.044 C 
ENDROOT
BRANCH   1   8
ATOM      7  C   LIG    1       26.873 -20.574   5.879  0.00  0.00    +0.220 C 
ATOM      8  N   LIG    1       25.578 -21.162   5.952  0.00  0.00    -0.263 N 
ATOM      9  O   LIG    1       27.167 -19.624   5.137  0.00  0.00    -0.275 OA
BRANCH   8  10
ATOM     10  C   LIG    1       24.459 -20.421   5.196  0.00  0.00    +0.037 A 
ATOM     11  C   LIG    1       24.553 -19.946   3.873  0.00  0.00    +0.023 A 
ATOM     12  C   LIG    1       23.799 -18.850   3.399  0.00  0.00    +0.002 A 
ATOM     13  C   LIG    1       22.657 -18.466   4.067  0.00  0.00    +0.000 A 
ATOM     14  C   LIG    1       22.323 -19.164   5.210  0.00  0.00    +0.002 A 
ATOM     15  C   LIG    1       23.226 -20.084   5.776  0.00  0.00    +0.023 A 
ENDBRANCH   8  10
BRANCH   7  17
ATOM     16  C   LIG    1       29.126 -19.878   6.819  0.00  0.00    +0.013 C 
ATOM     17  C   LIG    1       28.072 -20.953   6.712  0.00  0.00    +0.093 C 
ENDBRANCH   7  17
ENDBRANCH   1   8
BRANCH   4  18
ATOM     18  C   LIG    1       24.234 -26.889   6.262  0.00  0.00    +0.108 C 
BRANCH  18  19
ATOM     19  C   LIG    1       25.059 -28.031   6.921  0.00  0.00    +0.166 C 
BRANCH  19  20
ATOM     20  N   LIG    1       24.453 -29.342   6.979  0.00  0.00    -0.192 N 
ATOM     21  C   LIG    1       24.736 -30.419   6.189  0.00  0.00    +0.364 C 
ATOM     22  O   LIG    1       25.421 -30.466   5.123  0.00  0.00    -0.243 OA
ATOM     23  N   LIG    1       24.139 -31.472   6.796  0.00  0.00    -0.194 N 
ATOM     24  N   LIG    1       23.680 -31.066   8.018  0.00  0.00    -0.043 NA
ATOM     25  N   LIG    1       23.853 -29.811   8.127  0.00  0.00    -0.043 NA
BRANCH  23  26
ATOM     26  C   LIG    1       24.283 -32.845   6.398  0.00  0.00    +0.147 C 
ATOM     27  C   LIG    1       23.218 -33.245   5.394  0.00  0.00    +0.029 C 
ENDBRANCH  23  26
ENDBRANCH  19  20
ENDBRANCH  18  19
ENDBRANCH   4  18
BRANCH   1  28
ATOM     28  C   LIG    1       25.612 -22.796   8.101  0.00  0.00    +0.185 C 
BRANCH  28  29
ATOM     29  O   LIG    1       25.014 -21.848   8.986  0.00  0.00    -0.381 OA
ATOM     30  C   LIG    1       25.805 -20.664   9.136  0.00  0.00    +0.193 C 
ENDBRANCH  28  29
ENDBRANCH   1  28
TORSDOF 9
ENDMDL
MODEL 6
REMARK VINA RESULT:      -7.7      4.124      8.880
REMARK  Name = *****
REMARK                            x       y       z     vdW  Elec       q    Type
REMARK                         _______ _______ _______ _____ _____    ______ ____
ROOT
ATOM      1  C   LIG    1       25.246 -22.580   6.569  0.00  0.00    +0.068 C 
ATOM      2  C   LIG    1       23.762 -22.974   6.378  0.00  0.00    +0.044 C 
ATOM      3  C   LIG    1       23.457 -24.478   6.659  0.00  0.00    +0.086 C 
ATOM      4  N   LIG    1       24.578 -25.422   6.553  0.00  0.00    -0.300 NA
ATOM      5  C   LIG    1       25.536 -25.000   5.560  0.00  0.00    +0.086 C 
ATOM      6  C   LIG    1       26.166 -23.681   5.942  0.00  0.00    +0.044 C 
ENDROOT
BRANCH   1   8
ATOM      7  C   LIG    1       26.883 -20.532   5.873  0.00  0.00    +0.220 C 
ATOM      8  N   LIG    1       25.585 -21.113   5.947  0.00  0.00    -0.263 N 
ATOM      9  O   LIG    1       27.184 -19.589   5.124  0.00  0.00    -0.275 OA
BRANCH   8  10
ATOM     10  C   LIG    1       24.472 -20.374   5.181  0.00  0.00    +0.037 A 
ATOM     11  C   LIG    1       24.586 -19.874   3.870  0.00  0.00    +0.023 A 
ATOM     12  C   LIG    1       23.827 -18.780   3.399  0.00  0.00    +0.002 A 
ATOM     13  C   LIG    1       22.666 -18.422   4.051  0.00  0.00    +0.000 A 
ATOM     14  C   LIG    1       22.319 -19.145   5.174  0.00  0.00    +0.002 A 
ATOM     15  C   LIG    1       23.223 -20.063   5.742  0.00  0.00    +0.023 A 
ENDBRANCH   8  10
BRANCH   7  17
ATOM     16  C   LIG    1       28.928 -19.742   7.153  0.00  0.00    +0.013 C 
ATOM     17  C   LIG    1       28.078 -20.909   6.712  0.00  0.00    +0.093 C 
ENDBRANCH   7  17
ENDBRANCH   1   8
BRANCH   4  18
ATOM     18  C   LIG    1       24.196 -26.827   6.300  0.00  0.00    +0.108 C 
BRANCH  18  19
ATOM     19  C   LIG    1       25.291 -27.931   6.323  0.00  0.00    +0.166 C 
BRANCH  19  20
ATOM     20  N   LIG    1       24.951 -29.194   6.939  0.00  0.00    -0.192 N 
ATOM     21  C   LIG    1       25.160 -29.564   8.237  0.00  0.00    +0.364 C 
ATOM     22  O   LIG    1       25.861 -28.991   9.125  0.00  0.00    -0.243 OA
ATOM     23  N   LIG    1       24.429 -30.692   8.407  0.00  0.00    -0.194 N 
ATOM     24  N   LIG    1       23.652 -30.877   7.298  0.00  0.00    -0.043 NA
ATOM     25  N   LIG    1       23.961 -30.004   6.427  0.00  0.00    -0.043 NA
BRANCH  23  26
ATOM     26  C   LIG    1       24.230 -31.364   9.660  0.00  0.00    +0.147 C 
ATOM     27  C   LIG    1       23.037 -30.799  10.408  0.00  0.00    +0.029 C 
ENDBRANCH  23  26
ENDBRANCH  19  20
ENDBRANCH  18  19
ENDBRANCH   4  18
BRANCH   1  28
ATOM     28  C   LIG    1       25.620 -22.735   8.106  0.00  0.00    +0.185 C 
BRANCH  28  29
ATOM     29  O   LIG    1       25.022 -21.786   8.991  0.00  0.00    -0.381 OA
ATOM     30  C   LIG    1       25.826 -20.614   9.162  0.00  0.00    +0.193 C 
ENDBRANCH  28  29
ENDBRANCH   1  28
TORSDOF 9
ENDMDL
MODEL 7
REMARK VINA RESULT:      -7.6      6.138     10.596
REMARK  Name = *****
REMARK                            x       y       z     vdW  Elec       q    Type
REMARK                         _______ _______ _______ _____ _____    ______ ____
ROOT
ATOM      1  C   LIG    1       24.742 -30.443   6.816  0.00  0.00    +0.068 C 
ATOM      2  C   LIG    1       23.855 -29.808   5.718  0.00  0.00    +0.044 C 
ATOM      3  C   LIG    1       24.498 -28.578   5.007  0.00  0.00    +0.086 C 
ATOM      4  N   LIG    1       25.547 -27.852   5.737  0.00  0.00    -0.300 NA
ATOM      5  C   LIG    1       25.329 -27.894   7.162  0.00  0.00    +0.086 C 
ATOM      6  C   LIG    1       25.398 -29.312   7.679  0.00  0.00    +0.044 C 
ENDROOT
BRANCH   1   8
ATOM      7  C   LIG    1       23.358 -32.722   7.315  0.00  0.00    +0.220 C 
ATOM      8  N   LIG    1       23.917 -31.488   7.754  0.00  0.00    -0.263 N 
ATOM      9  O   LIG    1       23.029 -33.648   8.073  0.00  0.00    -0.275 OA
BRANCH   8  10
ATOM     10  C   LIG    1       23.916 -31.252   9.276  0.00  0.00    +0.037 A 
ATOM     11  C   LIG    1       22.900 -30.588   9.992  0.00  0.00    +0.023 A 
ATOM     12  C   LIG    1       23.137 -29.917  11.212  0.00  0.00    +0.002 A 
ATOM     13  C   LIG    1       24.256 -30.225  11.955  0.00  0.00    +0.000 A 
ATOM     14  C   LIG    1       25.123 -31.167  11.440  0.00  0.00    +0.002 A 
ATOM     15  C   LIG    1       24.973 -31.630  10.119  0.00  0.00    +0.023 A 
ENDBRANCH   8  10
BRANCH   7  17
ATOM     16  C   LIG    1       24.114 -33.825   5.157  0.00  0.00    +0.013 C 
ATOM     17  C   LIG    1       23.019 -33.091   5.893  0.00  0.00    +0.093 C 
ENDBRANCH   7  17
ENDBRANCH   1   8
BRANCH   4  18
ATOM     18  C   LIG    1       25.755 -26.452   5.313  0.00  0.00    +0.108 C 
BRANCH  18  19
ATOM     19  C   LIG    1       26.015 -25.360   6.389  0.00  0.00    +0.166 C 
BRANCH  19  20
ATOM     20  N   LIG    1       24.908 -24.503   6.749  0.00  0.00    -0.192 N 
ATOM     21  C   LIG    1       24.920 -23.142   6.869  0.00  0.00    +0.364 C 
ATOM     22  O   LIG    1       25.913 -22.354   6.896  0.00  0.00    -0.243 OA
ATOM     23  N   LIG    1       23.617 -22.780   6.936  0.00  0.00    -0.194 N 
ATOM     24  N   LIG    1       22.846 -23.877   6.666  0.00  0.00    -0.043 NA
ATOM     25  N   LIG    1       23.600 -24.895   6.564  0.00  0.00    -0.043 NA
BRANCH  23  26
ATOM     26  C   LIG    1       23.135 -21.427   6.926  0.00  0.00    +0.147 C 
ATOM     27  C   LIG    1       22.708 -21.001   5.534  0.00  0.00    +0.029 C 
ENDBRANCH  23  26
ENDBRANCH  19  20
ENDBRANCH  18  19
ENDBRANCH   4  18
BRANCH   1  28
ATOM     28  C   LIG    1       26.033 -31.066   6.131  0.00  0.00    +0.185 C 
BRANCH  28  29
ATOM     29  O   LIG    1       26.857 -31.874   6.973  0.00  0.00    -0.381 OA
ATOM     30  C   LIG    1       27.461 -32.963   6.266  0.00  0.00    +0.193 C 
ENDBRANCH  28  29
ENDBRANCH   1  28
TORSDOF 9
ENDMDL
MODEL 8
REMARK VINA RESULT:      -7.5      4.453      9.547
REMARK  Name = *****
REMARK                            x       y       z     vdW  Elec       q    Type
REMARK                         _______ _______ _______ _____ _____    ______ ____
ROOT
ATOM      1  C   LIG    1       24.905 -23.214   6.286  0.00  0.00    +0.068 C 
ATOM      2  C   LIG    1       24.685 -23.964   4.950  0.00  0.00    +0.044 C 
ATOM      3  C   LIG    1       24.599 -25.514   5.092  0.00  0.00    +0.086 C 
ATOM      4  N   LIG    1       25.223 -26.116   6.279  0.00  0.00    -0.300 NA
ATOM      5  C   LIG    1       26.374 -25.363   6.714  0.00  0.00    +0.086 C 
ATOM      6  C   LIG    1       25.979 -23.969   7.140  0.00  0.00    +0.044 C 
ENDROOT
BRANCH   1   8
ATOM      7  C   LIG    1       26.588 -21.090   6.401  0.00  0.00    +0.220 C 
ATOM      8  N   LIG    1       25.326 -21.657   6.063  0.00  0.00    -0.263 N 
ATOM      9  O   LIG    1       27.017 -20.019   5.943  0.00  0.00    -0.275 OA
BRANCH   8  10
ATOM     10  C   LIG    1       24.387 -20.762   5.232  0.00  0.00    +0.037 A 
ATOM     11  C   LIG    1       24.635 -20.332   3.915  0.00  0.00    +0.023 A 
ATOM     12  C   LIG    1       24.095 -19.139   3.385  0.00  0.00    +0.002 A 
ATOM     13  C   LIG    1       22.990 -18.567   3.977  0.00  0.00    +0.000 A 
ATOM     14  C   LIG    1       22.481 -19.183   5.102  0.00  0.00    +0.002 A 
ATOM     15  C   LIG    1       23.190 -20.224   5.731  0.00  0.00    +0.023 A 
ENDBRANCH   8  10
BRANCH   7  17
ATOM     16  C   LIG    1       28.974 -21.083   7.269  0.00  0.00    +0.013 C 
ATOM     17  C   LIG    1       27.579 -21.646   7.393  0.00  0.00    +0.093 C 
ENDBRANCH   7  17
ENDBRANCH   1   8
BRANCH   4  18
ATOM     18  C   LIG    1       25.591 -27.540   6.142  0.00  0.00    +0.108 C 
BRANCH  18  19
ATOM     19  C   LIG    1       24.663 -28.496   5.339  0.00  0.00    +0.166 C 
BRANCH  19  20
ATOM     20  N   LIG    1       24.367 -29.784   5.925  0.00  0.00    -0.192 N 
ATOM     21  C   LIG    1       24.994 -30.971   5.672  0.00  0.00    +0.364 C 
ATOM     22  O   LIG    1       25.816 -31.257   4.749  0.00  0.00    -0.243 OA
ATOM     23  N   LIG    1       24.571 -31.810   6.647  0.00  0.00    -0.194 N 
ATOM     24  N   LIG    1       23.865 -31.087   7.568  0.00  0.00    -0.043 NA
ATOM     25  N   LIG    1       23.733 -29.896   7.143  0.00  0.00    -0.043 NA
BRANCH  23  26
ATOM     26  C   LIG    1       25.077 -33.137   6.871  0.00  0.00    +0.147 C 
ATOM     27  C   LIG    1       26.331 -33.114   7.724  0.00  0.00    +0.029 C 
ENDBRANCH  23  26
ENDBRANCH  19  20
ENDBRANCH  18  19
ENDBRANCH   4  18
BRANCH   1  28
ATOM     28  C   LIG    1       23.619 -23.414   7.199  0.00  0.00    +0.185 C 
BRANCH  28  29
ATOM     29  O   LIG    1       22.467 -23.946   6.544  0.00  0.00    -0.381 OA
ATOM     30  C   LIG    1       21.545 -22.926   6.143  0.00  0.00    +0.193 C 
ENDBRANCH  28  29
ENDBRANCH   1  28
TORSDOF 9
ENDMDL
MODEL 9
REMARK VINA RESULT:      -7.3      6.207     10.427
REMARK  Name = *****
REMARK                            x       y       z     vdW  Elec       q    Type
REMARK                         _______ _______ _______ _____ _____    ______ ____
ROOT
ATOM      1  C   LIG    1       25.378 -29.994   8.813  0.00  0.00    +0.068 C 
ATOM      2  C   LIG    1       24.104 -29.714   7.981  0.00  0.00    +0.044 C 
ATOM      3  C   LIG    1       24.366 -28.961   6.641  0.00  0.00    +0.086 C 
ATOM      4  N   LIG    1       25.599 -28.168   6.546  0.00  0.00    -0.300 NA
ATOM      5  C   LIG    1       25.981 -27.623   7.827  0.00  0.00    +0.086 C 
ATOM      6  C   LIG    1       26.295 -28.724   8.812  0.00  0.00    +0.044 C 
ENDROOT
BRANCH   1   8
ATOM      7  C   LIG    1       24.403 -31.689  10.693  0.00  0.00    +0.220 C 
ATOM      8  N   LIG    1       25.037 -30.465  10.334  0.00  0.00    -0.263 N 
ATOM      9  O   LIG    1       24.440 -32.187  11.830  0.00  0.00    -0.275 OA
BRANCH   8  10
ATOM     10  C   LIG    1       25.627 -29.646  11.498  0.00  0.00    +0.037 A 
ATOM     11  C   LIG    1       24.928 -28.673  12.238  0.00  0.00    +0.023 A 
ATOM     12  C   LIG    1       25.573 -27.594  12.884  0.00  0.00    +0.002 A 
ATOM     13  C   LIG    1       26.920 -27.673  13.165  0.00  0.00    +0.000 A 
ATOM     14  C   LIG    1       27.589 -28.810  12.760  0.00  0.00    +0.002 A 
ATOM     15  C   LIG    1       26.964 -29.744  11.913  0.00  0.00    +0.023 A 
ENDBRANCH   8  10
BRANCH   7  17
ATOM     16  C   LIG    1       22.079 -32.191   9.803  0.00  0.00    +0.013 C 
ATOM     17  C   LIG    1       23.546 -32.546   9.796  0.00  0.00    +0.093 C 
ENDBRANCH   7  17
ENDBRANCH   1   8
BRANCH   4  18
ATOM     18  C   LIG    1       25.576 -27.086   5.540  0.00  0.00    +0.108 C 
BRANCH  18  19
ATOM     19  C   LIG    1       25.980 -25.644   5.960  0.00  0.00    +0.166 C 
BRANCH  19  20
ATOM     20  N   LIG    1       24.947 -24.797   6.513  0.00  0.00    -0.192 N 
ATOM     21  C   LIG    1       25.027 -23.460   6.779  0.00  0.00    +0.364 C 
ATOM     22  O   LIG    1       26.051 -22.713   6.799  0.00  0.00    -0.243 OA
ATOM     23  N   LIG    1       23.752 -23.066   7.006  0.00  0.00    -0.194 N 
ATOM     24  N   LIG    1       22.914 -24.099   6.690  0.00  0.00    -0.043 NA
ATOM     25  N   LIG    1       23.612 -25.124   6.408  0.00  0.00    -0.043 NA
BRANCH  23  26
ATOM     26  C   LIG    1       23.329 -21.705   7.189  0.00  0.00    +0.147 C 
ATOM     27  C   LIG    1       23.005 -21.042   5.862  0.00  0.00    +0.029 C 
ENDBRANCH  23  26
ENDBRANCH  19  20
ENDBRANCH  18  19
ENDBRANCH   4  18
BRANCH   1  28
ATOM     28  C   LIG    1       26.297 -31.012   8.010  0.00  0.00    +0.185 C 
BRANCH  28  29
ATOM     29  O   LIG    1       25.610 -31.949   7.179  0.00  0.00    -0.381 OA
ATOM     30  C   LIG    1       26.312 -32.219   5.960  0.00  0.00    +0.193 C 
ENDBRANCH  28  29
ENDBRANCH   1  28
TORSDOF 9
ENDMDL
