MODEL 1
REMARK VINA RESULT:      -2.2      0.000      0.000
REMARK  Name = *****
REMARK                            x       y       z     vdW  Elec       q    Type
REMARK                         _______ _______ _______ _____ _____    ______ ____
ROOT
ATOM      1  C   LIG    1       24.154 -14.921   4.231  0.00  0.00    +0.162 A 
ATOM      2  C   LIG    1       25.197 -15.454   3.464  0.00  0.00    +0.162 A 
ATOM      3  C   LIG    1       25.195 -16.823   3.167  0.00  0.00    +0.054 A 
ATOM      4  C   LIG    1       24.207 -17.693   3.661  0.00  0.00    -0.023 A 
ATOM      5  C   LIG    1       24.218 -19.180   3.309  0.00  0.00    +0.094 C 
ATOM      6  N   LIG    1       23.488 -20.021   4.282  0.00  0.00    -0.294 NA
ATOM      7  C   LIG    1       22.120 -19.484   4.432  0.00  0.00    +0.089 C 
ATOM      8  C   LIG    1       22.059 -18.039   4.966  0.00  0.00    +0.051 C 
ATOM      9  C   LIG    1       24.166 -20.149   5.584  0.00  0.00    +0.096 C 
ATOM     10  C   LIG    1       25.671 -20.473   5.562  0.00  0.00    +0.070 C 
ATOM     11  C   LIG    1       26.346 -19.809   4.374  0.00  0.00    +0.139 C 
ATOM     12  O   LIG    1       27.514 -19.395   4.411  0.00  0.00    -0.297 OA
ATOM     13  C   LIG    1       25.588 -19.812   3.079  0.00  0.00    +0.098 C 
ATOM     14  C   LIG    1       23.158 -17.151   4.424  0.00  0.00    -0.038 A 
ATOM     15  C   LIG    1       23.156 -15.777   4.721  0.00  0.00    +0.053 A 
ENDROOT
BRANCH   1  17
ATOM     16  C   LIG    1       23.851 -12.652   3.584  0.00  0.00    +0.277 C 
ATOM     17  O   LIG    1       24.008 -13.613   4.623  0.00  0.00    -0.491 OA
ENDBRANCH   1  17
BRANCH   2  18
ATOM     18  O   LIG    1       26.176 -14.619   2.995  0.00  0.00    -0.491 OA
ATOM     19  C   LIG    1       27.333 -14.467   3.810  0.00  0.00    +0.277 C 
ENDBRANCH   2  18
BRANCH  10  20
ATOM     20  C   LIG    1       26.361 -20.041   6.880  0.00  0.00    +0.015 C 
BRANCH  20  21
ATOM     21  C   LIG    1       27.828 -20.484   7.062  0.00  0.00    -0.016 C 
ATOM     22  C   LIG    1       28.768 -19.282   6.914  0.00  0.00    +0.007 C 
ATOM     23  C   LIG    1       28.231 -21.570   6.066  0.00  0.00    +0.007 C 
ENDBRANCH  20  21
ENDBRANCH  10  20
TORSDOF 4
ENDMDL
MODEL 2
REMARK VINA RESULT:       0.3      1.254      1.831
REMARK  Name = *****
REMARK                            x       y       z     vdW  Elec       q    Type
REMARK                         _______ _______ _______ _____ _____    ______ ____
ROOT
ATOM      1  C   LIG    1       22.654 -16.286   5.115  0.00  0.00    +0.162 A 
ATOM      2  C   LIG    1       23.749 -16.197   4.247  0.00  0.00    +0.162 A 
ATOM      3  C   LIG    1       24.315 -17.374   3.740  0.00  0.00    +0.054 A 
ATOM      4  C   LIG    1       23.855 -18.647   4.117  0.00  0.00    -0.023 A 
ATOM      5  C   LIG    1       24.479 -19.915   3.538  0.00  0.00    +0.094 C 
ATOM      6  N   LIG    1       24.282 -21.111   4.385  0.00  0.00    -0.294 NA
ATOM      7  C   LIG    1       22.837 -21.261   4.654  0.00  0.00    +0.089 C 
ATOM      8  C   LIG    1       22.203 -20.076   5.409  0.00  0.00    +0.051 C 
ATOM      9  C   LIG    1       25.065 -21.090   5.633  0.00  0.00    +0.096 C 
ATOM     10  C   LIG    1       26.553 -20.706   5.521  0.00  0.00    +0.070 C 
ATOM     11  C   LIG    1       26.757 -19.665   4.433  0.00  0.00    +0.139 C 
ATOM     12  O   LIG    1       27.626 -18.784   4.504  0.00  0.00    -0.297 OA
ATOM     13  C   LIG    1       25.959 -19.838   3.175  0.00  0.00    +0.098 C 
ATOM     14  C   LIG    1       22.750 -18.731   4.984  0.00  0.00    -0.038 A 
ATOM     15  C   LIG    1       22.179 -17.552   5.492  0.00  0.00    +0.053 A 
ENDROOT
BRANCH   1  17
ATOM     16  C   LIG    1       21.329 -15.527   6.939  0.00  0.00    +0.277 C 
ATOM     17  O   LIG    1       21.990 -15.242   5.711  0.00  0.00    -0.491 OA
ENDBRANCH   1  17
BRANCH   2  18
ATOM     18  O   LIG    1       24.218 -14.962   3.888  0.00  0.00    -0.491 OA
ATOM     19  C   LIG    1       25.607 -14.866   3.588  0.00  0.00    +0.277 C 
ENDBRANCH   2  18
BRANCH  10  20
ATOM     20  C   LIG    1       27.104 -20.186   6.871  0.00  0.00    +0.015 C 
BRANCH  20  21
ATOM     21  C   LIG    1       28.634 -20.265   7.061  0.00  0.00    -0.016 C 
ATOM     22  C   LIG    1       29.318 -19.080   6.369  0.00  0.00    +0.007 C 
ATOM     23  C   LIG    1       29.216 -21.571   6.524  0.00  0.00    +0.007 C 
ENDBRANCH  20  21
ENDBRANCH  10  20
TORSDOF 4
ENDMDL
