MODEL 1
REMARK VINA RESULT:      -5.0      0.000      0.000
REMARK  Name = *****
REMARK                            x       y       z     vdW  Elec       q    Type
REMARK                         _______ _______ _______ _____ _____    ______ ____
ROOT
ATOM      1  C   LIG    1       24.901 -13.663   3.560  0.00  0.00    +0.123 C 
ATOM      2  C   LIG    1       24.991 -12.722   4.752  0.00  0.00    +0.235 C 
ATOM      3  O   LIG    1       24.102 -11.934   5.071  0.00  0.00    -0.274 OA
ATOM      4  N   LIG    1       26.111 -12.836   5.525  0.00  0.00    -0.239 N 
ATOM      5  H   LIG    1       26.151 -12.219   6.326  0.00  0.00    +0.159 HD
ATOM      6  C   LIG    1       27.324 -13.219   5.046  0.00  0.00    +0.312 C 
ATOM      7  O   LIG    1       28.364 -12.913   5.616  0.00  0.00    -0.252 OA
ATOM      8  N   LIG    1       27.334 -13.875   3.855  0.00  0.00    -0.239 N 
ATOM      9  H   LIG    1       28.248 -14.056   3.463  0.00  0.00    +0.159 HD
ATOM     10  C   LIG    1       26.285 -13.934   2.979  0.00  0.00    +0.235 C 
ATOM     11  O   LIG    1       26.482 -14.270   1.812  0.00  0.00    -0.274 OA
ENDROOT
BRANCH   1  12
ATOM     12  C   LIG    1       23.969 -13.088   2.465  0.00  0.00    +0.022 C 
ATOM     13  C   LIG    1       24.448 -11.769   1.855  0.00  0.00    +0.005 C 
ENDBRANCH   1  12
BRANCH   1  14
ATOM     14  C   LIG    1       24.388 -15.048   4.069  0.00  0.00    +0.025 C 
BRANCH  14  15
ATOM     15  C   LIG    1       22.861 -15.218   4.134  0.00  0.00    +0.001 C 
BRANCH  15  17
ATOM     16  C   LIG    1       22.359 -17.679   4.452  0.00  0.00    +0.004 C 
ATOM     17  C   LIG    1       22.471 -16.320   5.126  0.00  0.00    -0.003 C 
ENDBRANCH  15  17
ENDBRANCH  14  15
ENDBRANCH   1  14
TORSDOF 4
ENDMDL
MODEL 2
REMARK VINA RESULT:      -4.5      2.011      2.345
REMARK  Name = *****
REMARK                            x       y       z     vdW  Elec       q    Type
REMARK                         _______ _______ _______ _____ _____    ______ ____
ROOT
ATOM      1  C   LIG    1       26.008 -14.166   4.024  0.00  0.00    +0.123 C 
ATOM      2  C   LIG    1       26.797 -13.709   5.242  0.00  0.00    +0.235 C 
ATOM      3  O   LIG    1       26.364 -13.748   6.392  0.00  0.00    -0.274 OA
ATOM      4  N   LIG    1       28.079 -13.299   5.009  0.00  0.00    -0.239 N 
ATOM      5  H   LIG    1       28.600 -13.016   5.828  0.00  0.00    +0.159 HD
ATOM      6  C   LIG    1       28.487 -12.718   3.850  0.00  0.00    +0.312 C 
ATOM      7  O   LIG    1       29.474 -11.993   3.810  0.00  0.00    -0.252 OA
ATOM      8  N   LIG    1       27.696 -12.901   2.760  0.00  0.00    -0.239 N 
ATOM      9  H   LIG    1       27.958 -12.375   1.937  0.00  0.00    +0.159 HD
ATOM     10  C   LIG    1       26.412 -13.370   2.787  0.00  0.00    +0.235 C 
ATOM     11  O   LIG    1       25.680 -13.205   1.812  0.00  0.00    -0.274 OA
ENDROOT
BRANCH   1  12
ATOM     12  C   LIG    1       24.484 -14.034   4.265  0.00  0.00    +0.022 C 
ATOM     13  C   LIG    1       23.991 -12.595   4.432  0.00  0.00    +0.005 C 
ENDBRANCH   1  12
BRANCH   1  14
ATOM     14  C   LIG    1       26.405 -15.644   3.712  0.00  0.00    +0.025 C 
BRANCH  14  15
ATOM     15  C   LIG    1       25.249 -16.591   3.350  0.00  0.00    +0.001 C 
BRANCH  15  17
ATOM     16  C   LIG    1       24.605 -19.019   3.668  0.00  0.00    +0.004 C 
ATOM     17  C   LIG    1       25.721 -18.048   3.308  0.00  0.00    -0.003 C 
ENDBRANCH  15  17
ENDBRANCH  14  15
ENDBRANCH   1  14
TORSDOF 4
ENDMDL
MODEL 3
REMARK VINA RESULT:      -4.2      1.281      1.481
REMARK  Name = *****
REMARK                            x       y       z     vdW  Elec       q    Type
REMARK                         _______ _______ _______ _____ _____    ______ ____
ROOT
ATOM      1  C   LIG    1       25.194 -13.794   3.535  0.00  0.00    +0.123 C 
ATOM      2  C   LIG    1       25.171 -12.848   4.726  0.00  0.00    +0.235 C 
ATOM      3  O   LIG    1       24.204 -12.151   5.029  0.00  0.00    -0.274 OA
ATOM      4  N   LIG    1       26.283 -12.851   5.519  0.00  0.00    -0.239 N 
ATOM      5  H   LIG    1       26.249 -12.233   6.319  0.00  0.00    +0.159 HD
ATOM      6  C   LIG    1       27.536 -13.113   5.061  0.00  0.00    +0.312 C 
ATOM      7  O   LIG    1       28.531 -12.706   5.648  0.00  0.00    -0.252 OA
ATOM      8  N   LIG    1       27.630 -13.765   3.871  0.00  0.00    -0.239 N 
ATOM      9  H   LIG    1       28.564 -13.856   3.496  0.00  0.00    +0.159 HD
ATOM     10  C   LIG    1       26.608 -13.928   2.978  0.00  0.00    +0.235 C 
ATOM     11  O   LIG    1       26.856 -14.243   1.815  0.00  0.00    -0.274 OA
ENDROOT
BRANCH   1  12
ATOM     12  C   LIG    1       24.229 -13.313   2.423  0.00  0.00    +0.022 C 
ATOM     13  C   LIG    1       24.578 -11.948   1.828  0.00  0.00    +0.005 C 
ENDBRANCH   1  12
BRANCH   1  14
ATOM     14  C   LIG    1       24.811 -15.222   4.038  0.00  0.00    +0.025 C 
BRANCH  14  15
ATOM     15  C   LIG    1       25.452 -16.397   3.281  0.00  0.00    +0.001 C 
BRANCH  15  17
ATOM     16  C   LIG    1       25.709 -18.901   3.552  0.00  0.00    +0.004 C 
ATOM     17  C   LIG    1       24.754 -17.719   3.620  0.00  0.00    -0.003 C 
ENDBRANCH  15  17
ENDBRANCH  14  15
ENDBRANCH   1  14
TORSDOF 4
ENDMDL
MODEL 4
REMARK VINA RESULT:      -4.1      4.884      7.042
REMARK  Name = *****
REMARK                            x       y       z     vdW  Elec       q    Type
REMARK                         _______ _______ _______ _____ _____    ______ ____
ROOT
ATOM      1  C   LIG    1       23.703 -20.441   4.907  0.00  0.00    +0.123 C 
ATOM      2  C   LIG    1       24.705 -20.166   3.796  0.00  0.00    +0.235 C 
ATOM      3  O   LIG    1       24.461 -20.318   2.600  0.00  0.00    -0.274 OA
ATOM      4  N   LIG    1       25.913 -19.661   4.187  0.00  0.00    -0.239 N 
ATOM      5  H   LIG    1       26.564 -19.464   3.438  0.00  0.00    +0.159 HD
ATOM      6  C   LIG    1       26.494 -19.935   5.384  0.00  0.00    +0.312 C 
ATOM      7  O   LIG    1       27.705 -19.843   5.544  0.00  0.00    -0.252 OA
ATOM      8  N   LIG    1       25.682 -20.407   6.367  0.00  0.00    -0.239 N 
ATOM      9  H   LIG    1       26.147 -20.705   7.213  0.00  0.00    +0.159 HD
ATOM     10  C   LIG    1       24.415 -20.886   6.181  0.00  0.00    +0.235 C 
ATOM     11  O   LIG    1       23.886 -21.571   7.054  0.00  0.00    -0.274 OA
ENDROOT
BRANCH   1  12
ATOM     12  C   LIG    1       22.670 -21.511   4.474  0.00  0.00    +0.022 C 
ATOM     13  C   LIG    1       21.220 -21.168   4.820  0.00  0.00    +0.005 C 
ENDBRANCH   1  12
BRANCH   1  14
ATOM     14  C   LIG    1       23.001 -19.095   5.276  0.00  0.00    +0.025 C 
BRANCH  14  15
ATOM     15  C   LIG    1       22.810 -18.097   4.121  0.00  0.00    +0.001 C 
BRANCH  15  17
ATOM     16  C   LIG    1       23.067 -15.597   4.433  0.00  0.00    +0.004 C 
ATOM     17  C   LIG    1       22.155 -16.802   4.614  0.00  0.00    -0.003 C 
ENDBRANCH  15  17
ENDBRANCH  14  15
ENDBRANCH   1  14
TORSDOF 4
ENDMDL
MODEL 5
REMARK VINA RESULT:      -4.0      2.156      4.281
REMARK  Name = *****
REMARK                            x       y       z     vdW  Elec       q    Type
REMARK                         _______ _______ _______ _____ _____    ______ ____
ROOT
ATOM      1  C   LIG    1       24.896 -13.687   3.764  0.00  0.00    +0.123 C 
ATOM      2  C   LIG    1       25.941 -14.052   2.719  0.00  0.00    +0.235 C 
ATOM      3  O   LIG    1       26.349 -13.275   1.858  0.00  0.00    -0.274 OA
ATOM      4  N   LIG    1       26.479 -15.303   2.818  0.00  0.00    -0.239 N 
ATOM      5  H   LIG    1       27.186 -15.528   2.131  0.00  0.00    +0.159 HD
ATOM      6  C   LIG    1       25.807 -16.378   3.310  0.00  0.00    +0.312 C 
ATOM      7  O   LIG    1       26.120 -17.523   3.007  0.00  0.00    -0.252 OA
ATOM      8  N   LIG    1       24.714 -16.120   4.075  0.00  0.00    -0.239 N 
ATOM      9  H   LIG    1       24.167 -16.927   4.342  0.00  0.00    +0.159 HD
ATOM     10  C   LIG    1       24.079 -14.912   4.162  0.00  0.00    +0.235 C 
ATOM     11  O   LIG    1       22.938 -14.852   4.618  0.00  0.00    -0.274 OA
ENDROOT
BRANCH   1  12
ATOM     12  C   LIG    1       23.959 -12.568   3.246  0.00  0.00    +0.022 C 
ATOM     13  C   LIG    1       23.694 -11.448   4.254  0.00  0.00    +0.005 C 
ENDBRANCH   1  12
BRANCH   1  14
ATOM     14  C   LIG    1       25.640 -13.246   5.064  0.00  0.00    +0.025 C 
BRANCH  14  15
ATOM     15  C   LIG    1       27.095 -13.724   5.204  0.00  0.00    +0.001 C 
BRANCH  15  17
ATOM     16  C   LIG    1       29.034 -12.761   3.892  0.00  0.00    +0.004 C 
ATOM     17  C   LIG    1       28.076 -12.556   5.057  0.00  0.00    -0.003 C 
ENDBRANCH  15  17
ENDBRANCH  14  15
ENDBRANCH   1  14
TORSDOF 4
ENDMDL
MODEL 6
REMARK VINA RESULT:      -4.0      1.574      1.765
REMARK  Name = *****
REMARK                            x       y       z     vdW  Elec       q    Type
REMARK                         _______ _______ _______ _____ _____    ______ ____
ROOT
ATOM      1  C   LIG    1       25.149 -13.726   4.010  0.00  0.00    +0.123 C 
ATOM      2  C   LIG    1       26.192 -13.652   5.116  0.00  0.00    +0.235 C 
ATOM      3  O   LIG    1       25.918 -13.519   6.307  0.00  0.00    -0.274 OA
ATOM      4  N   LIG    1       27.492 -13.812   4.729  0.00  0.00    -0.239 N 
ATOM      5  H   LIG    1       28.174 -13.780   5.474  0.00  0.00    +0.159 HD
ATOM      6  C   LIG    1       27.968 -13.442   3.510  0.00  0.00    +0.312 C 
ATOM      7  O   LIG    1       29.155 -13.195   3.335  0.00  0.00    -0.252 OA
ATOM      8  N   LIG    1       27.052 -13.267   2.521  0.00  0.00    -0.239 N 
ATOM      9  H   LIG    1       27.411 -12.890   1.655  0.00  0.00    +0.159 HD
ATOM     10  C   LIG    1       25.702 -13.158   2.706  0.00  0.00    +0.235 C 
ATOM     11  O   LIG    1       24.997 -12.693   1.812  0.00  0.00    -0.274 OA
ENDROOT
BRANCH   1  12
ATOM     12  C   LIG    1       23.857 -12.973   4.412  0.00  0.00    +0.022 C 
ATOM     13  C   LIG    1       24.063 -11.492   4.740  0.00  0.00    +0.005 C 
ENDBRANCH   1  12
BRANCH   1  14
ATOM     14  C   LIG    1       24.857 -15.231   3.714  0.00  0.00    +0.025 C 
BRANCH  14  15
ATOM     15  C   LIG    1       23.509 -15.769   4.223  0.00  0.00    +0.001 C 
BRANCH  15  17
ATOM     16  C   LIG    1       22.085 -17.842   4.514  0.00  0.00    +0.004 C 
ATOM     17  C   LIG    1       23.453 -17.298   4.126  0.00  0.00    -0.003 C 
ENDBRANCH  15  17
ENDBRANCH  14  15
ENDBRANCH   1  14
TORSDOF 4
ENDMDL
MODEL 7
REMARK VINA RESULT:      -3.7      4.681      6.670
REMARK  Name = *****
REMARK                            x       y       z     vdW  Elec       q    Type
REMARK                         _______ _______ _______ _____ _____    ______ ____
ROOT
ATOM      1  C   LIG    1       23.288 -19.857   4.465  0.00  0.00    +0.123 C 
ATOM      2  C   LIG    1       23.072 -18.362   4.282  0.00  0.00    +0.235 C 
ATOM      3  O   LIG    1       21.975 -17.813   4.369  0.00  0.00    -0.274 OA
ATOM      4  N   LIG    1       24.195 -17.613   4.078  0.00  0.00    -0.239 N 
ATOM      5  H   LIG    1       24.042 -16.618   3.977  0.00  0.00    +0.159 HD
ATOM      6  C   LIG    1       25.311 -18.078   3.455  0.00  0.00    +0.312 C 
ATOM      7  O   LIG    1       26.104 -17.320   2.912  0.00  0.00    -0.252 OA
ATOM      8  N   LIG    1       25.455 -19.428   3.382  0.00  0.00    -0.239 N 
ATOM      9  H   LIG    1       26.232 -19.755   2.825  0.00  0.00    +0.159 HD
ATOM     10  C   LIG    1       24.465 -20.341   3.623  0.00  0.00    +0.235 C 
ATOM     11  O   LIG    1       24.594 -21.499   3.232  0.00  0.00    -0.274 OA
ENDROOT
BRANCH   1  12
ATOM     12  C   LIG    1       22.011 -20.653   4.098  0.00  0.00    +0.022 C 
ATOM     13  C   LIG    1       21.497 -21.572   5.209  0.00  0.00    +0.005 C 
ENDBRANCH   1  12
BRANCH   1  14
ATOM     14  C   LIG    1       23.708 -20.113   5.947  0.00  0.00    +0.025 C 
BRANCH  14  15
ATOM     15  C   LIG    1       24.892 -21.072   6.157  0.00  0.00    +0.001 C 
BRANCH  15  17
ATOM     16  C   LIG    1       27.355 -20.585   6.477  0.00  0.00    +0.004 C 
ATOM     17  C   LIG    1       25.958 -20.444   7.062  0.00  0.00    -0.003 C 
ENDBRANCH  15  17
ENDBRANCH  14  15
ENDBRANCH   1  14
TORSDOF 4
ENDMDL
MODEL 8
REMARK VINA RESULT:      -3.6      2.099      4.073
REMARK  Name = *****
REMARK                            x       y       z     vdW  Elec       q    Type
REMARK                         _______ _______ _______ _____ _____    ______ ____
ROOT
ATOM      1  C   LIG    1       26.309 -14.568   3.649  0.00  0.00    +0.123 C 
ATOM      2  C   LIG    1       25.541 -13.786   4.706  0.00  0.00    +0.235 C 
ATOM      3  O   LIG    1       26.052 -12.943   5.440  0.00  0.00    -0.274 OA
ATOM      4  N   LIG    1       24.196 -14.017   4.765  0.00  0.00    -0.239 N 
ATOM      5  H   LIG    1       23.693 -13.478   5.457  0.00  0.00    +0.159 HD
ATOM      6  C   LIG    1       23.619 -15.205   4.445  0.00  0.00    +0.312 C 
ATOM      7  O   LIG    1       22.526 -15.528   4.894  0.00  0.00    -0.252 OA
ATOM      8  N   LIG    1       24.352 -16.057   3.680  0.00  0.00    -0.239 N 
ATOM      9  H   LIG    1       23.952 -16.975   3.542  0.00  0.00    +0.159 HD
ATOM     10  C   LIG    1       25.695 -15.949   3.445  0.00  0.00    +0.235 C 
ATOM     11  O   LIG    1       26.320 -16.917   3.017  0.00  0.00    -0.274 OA
ENDROOT
BRANCH   1  12
ATOM     12  C   LIG    1       27.803 -14.702   4.033  0.00  0.00    +0.022 C 
ATOM     13  C   LIG    1       28.645 -13.456   3.747  0.00  0.00    +0.005 C 
ENDBRANCH   1  12
BRANCH   1  14
ATOM     14  C   LIG    1       26.140 -13.834   2.281  0.00  0.00    +0.025 C 
BRANCH  14  15
ATOM     15  C   LIG    1       25.831 -12.330   2.356  0.00  0.00    +0.001 C 
BRANCH  15  17
ATOM     16  C   LIG    1       23.518 -11.447   2.886  0.00  0.00    +0.004 C 
ATOM     17  C   LIG    1       24.430 -12.026   1.814  0.00  0.00    -0.003 C 
ENDBRANCH  15  17
ENDBRANCH  14  15
ENDBRANCH   1  14
TORSDOF 4
ENDMDL
MODEL 9
REMARK VINA RESULT:      -3.5      2.310      3.798
REMARK  Name = *****
REMARK                            x       y       z     vdW  Elec       q    Type
REMARK                         _______ _______ _______ _____ _____    ______ ____
ROOT
ATOM      1  C   LIG    1       26.042 -14.415   3.671  0.00  0.00    +0.123 C 
ATOM      2  C   LIG    1       26.683 -13.273   2.896  0.00  0.00    +0.235 C 
ATOM      3  O   LIG    1       27.882 -13.004   2.940  0.00  0.00    -0.274 OA
ATOM      4  N   LIG    1       25.856 -12.571   2.066  0.00  0.00    -0.239 N 
ATOM      5  H   LIG    1       26.297 -11.827   1.541  0.00  0.00    +0.159 HD
ATOM      6  C   LIG    1       24.529 -12.390   2.297  0.00  0.00    +0.312 C 
ATOM      7  O   LIG    1       23.917 -11.447   1.812  0.00  0.00    -0.252 OA
ATOM      8  N   LIG    1       23.936 -13.250   3.167  0.00  0.00    -0.239 N 
ATOM      9  H   LIG    1       22.978 -13.035   3.409  0.00  0.00    +0.159 HD
ATOM     10  C   LIG    1       24.596 -14.084   4.026  0.00  0.00    +0.235 C 
ATOM     11  O   LIG    1       23.996 -14.581   4.978  0.00  0.00    -0.274 OA
ENDROOT
BRANCH   1  12
ATOM     12  C   LIG    1       26.845 -14.736   4.955  0.00  0.00    +0.022 C 
ATOM     13  C   LIG    1       27.093 -13.531   5.865  0.00  0.00    +0.005 C 
ENDBRANCH   1  12
BRANCH   1  14
ATOM     14  C   LIG    1       25.961 -15.659   2.729  0.00  0.00    +0.025 C 
BRANCH  14  15
ATOM     15  C   LIG    1       26.380 -17.002   3.349  0.00  0.00    +0.001 C 
BRANCH  15  17
ATOM     16  C   LIG    1       25.580 -19.299   4.051  0.00  0.00    +0.004 C 
ATOM     17  C   LIG    1       25.206 -17.988   3.376  0.00  0.00    -0.003 C 
ENDBRANCH  15  17
ENDBRANCH  14  15
ENDBRANCH   1  14
TORSDOF 4
ENDMDL
