MODEL 1
REMARK VINA RESULT:      -8.2      0.000      0.000
REMARK  Name = *****
REMARK                            x       y       z     vdW  Elec       q    Type
REMARK                         _______ _______ _______ _____ _____    ______ ____
ROOT
ATOM      1  S   LIG    1       30.712 -19.517   8.149  0.00  0.00    +0.073 S 
ATOM      2  O   LIG    1       31.781 -19.567   7.169  0.00  0.00    -0.150 OA
ATOM      3  O   LIG    1       30.855 -20.183   9.424  0.00  0.00    -0.150 OA
ENDROOT
BRANCH   1   7
ATOM      4  C   LIG    1       26.799 -20.998   6.288  0.00  0.00    +0.025 A 
ATOM      5  C   LIG    1       27.521 -19.967   5.678  0.00  0.00    +0.024 A 
ATOM      6  C   LIG    1       28.738 -19.527   6.213  0.00  0.00    +0.030 A 
ATOM      7  C   LIG    1       29.265 -20.169   7.335  0.00  0.00    +0.109 A 
ATOM      8  C   LIG    1       28.595 -21.259   7.900  0.00  0.00    +0.030 A 
ATOM      9  C   LIG    1       27.380 -21.686   7.356  0.00  0.00    +0.024 A 
BRANCH   4  10
ATOM     10  N   LIG    1       25.613 -21.472   5.709  0.00  0.00    -0.358 N 
ATOM     11  H   LIG    1       24.836 -20.824   5.798  0.00  0.00    +0.142 HD
ATOM     12  H   LIG    1       25.358 -22.405   6.022  0.00  0.00    +0.142 HD
ENDBRANCH   4  10
ENDBRANCH   1   7
BRANCH   1  13
ATOM     13  N   LIG    1       30.342 -17.879   8.365  0.00  0.00    -0.200 N 
ATOM     14  H   LIG    1       29.351 -17.780   8.573  0.00  0.00    +0.175 HD
BRANCH  13  15
ATOM     15  C   LIG    1       31.063 -17.247   9.399  0.00  0.00    +0.138 A 
ATOM     16  N   LIG    1       32.265 -16.785   9.021  0.00  0.00    -0.239 NA
ATOM     17  C   LIG    1       32.995 -16.188   9.992  0.00  0.00    +0.113 A 
ATOM     18  C   LIG    1       32.578 -16.056  11.310  0.00  0.00    +0.020 A 
ATOM     19  C   LIG    1       31.325 -16.552  11.658  0.00  0.00    +0.005 A 
ATOM     20  C   LIG    1       30.541 -17.152  10.678  0.00  0.00    +0.045 A 
ENDBRANCH  13  15
ENDBRANCH   1  13
TORSDOF 4
ENDMDL
MODEL 2
REMARK VINA RESULT:      -7.9      3.547      4.736
REMARK  Name = *****
REMARK                            x       y       z     vdW  Elec       q    Type
REMARK                         _______ _______ _______ _____ _____    ______ ____
ROOT
ATOM      1  S   LIG    1       26.512 -21.319   8.041  0.00  0.00    +0.073 S 
ATOM      2  O   LIG    1       26.035 -22.521   8.700  0.00  0.00    -0.150 OA
ATOM      3  O   LIG    1       26.818 -20.134   8.810  0.00  0.00    -0.150 OA
ENDROOT
BRANCH   1   7
ATOM      4  C   LIG    1       23.347 -19.897   5.051  0.00  0.00    +0.025 A 
ATOM      5  C   LIG    1       24.677 -20.058   4.645  0.00  0.00    +0.024 A 
ATOM      6  C   LIG    1       25.649 -20.527   5.536  0.00  0.00    +0.030 A 
ATOM      7  C   LIG    1       25.273 -20.897   6.828  0.00  0.00    +0.109 A 
ATOM      8  C   LIG    1       23.932 -20.824   7.218  0.00  0.00    +0.030 A 
ATOM      9  C   LIG    1       22.972 -20.352   6.318  0.00  0.00    +0.024 A 
BRANCH   4  10
ATOM     10  N   LIG    1       22.371 -19.486   4.134  0.00  0.00    -0.358 N 
ATOM     11  H   LIG    1       22.539 -19.821   3.191  0.00  0.00    +0.142 HD
ATOM     12  H   LIG    1       22.202 -18.484   4.149  0.00  0.00    +0.142 HD
ENDBRANCH   4  10
ENDBRANCH   1   7
BRANCH   1  13
ATOM     13  N   LIG    1       27.841 -21.787   7.104  0.00  0.00    -0.200 N 
ATOM     14  H   LIG    1       27.576 -21.804   6.122  0.00  0.00    +0.175 HD
BRANCH  13  15
ATOM     15  C   LIG    1       28.969 -20.949   7.229  0.00  0.00    +0.138 A 
ATOM     16  N   LIG    1       29.775 -21.268   8.253  0.00  0.00    -0.239 NA
ATOM     17  C   LIG    1       30.859 -20.474   8.417  0.00  0.00    +0.113 A 
ATOM     18  C   LIG    1       31.150 -19.380   7.614  0.00  0.00    +0.020 A 
ATOM     19  C   LIG    1       30.286 -19.084   6.564  0.00  0.00    +0.005 A 
ATOM     20  C   LIG    1       29.174 -19.893   6.356  0.00  0.00    +0.045 A 
ENDBRANCH  13  15
ENDBRANCH   1  13
TORSDOF 4
ENDMDL
MODEL 3
REMARK VINA RESULT:      -7.8      3.670      5.377
REMARK  Name = *****
REMARK                            x       y       z     vdW  Elec       q    Type
REMARK                         _______ _______ _______ _____ _____    ______ ____
ROOT
ATOM      1  S   LIG    1       25.932 -21.470   8.018  0.00  0.00    +0.073 S 
ATOM      2  O   LIG    1       25.491 -21.570   9.397  0.00  0.00    -0.150 OA
ATOM      3  O   LIG    1       25.580 -20.320   7.217  0.00  0.00    -0.150 OA
ENDROOT
BRANCH   1   7
ATOM      4  C   LIG    1       24.374 -25.389   6.233  0.00  0.00    +0.025 A 
ATOM      5  C   LIG    1       23.486 -24.350   6.530  0.00  0.00    +0.024 A 
ATOM      6  C   LIG    1       23.950 -23.132   7.041  0.00  0.00    +0.030 A 
ATOM      7  C   LIG    1       25.322 -22.933   7.198  0.00  0.00    +0.109 A 
ATOM      8  C   LIG    1       26.225 -23.932   6.822  0.00  0.00    +0.030 A 
ATOM      9  C   LIG    1       25.747 -25.144   6.314  0.00  0.00    +0.024 A 
BRANCH   4  10
ATOM     10  N   LIG    1       23.906 -26.581   5.664  0.00  0.00    -0.358 N 
ATOM     11  H   LIG    1       24.576 -27.019   5.040  0.00  0.00    +0.142 HD
ATOM     12  H   LIG    1       22.994 -26.486   5.224  0.00  0.00    +0.142 HD
ENDBRANCH   4  10
ENDBRANCH   1   7
BRANCH   1  13
ATOM     13  N   LIG    1       27.609 -21.697   8.038  0.00  0.00    -0.200 N 
ATOM     14  H   LIG    1       27.847 -22.519   7.489  0.00  0.00    +0.175 HD
BRANCH  13  15
ATOM     15  C   LIG    1       28.353 -20.612   7.530  0.00  0.00    +0.138 A 
ATOM     16  N   LIG    1       29.020 -19.921   8.468  0.00  0.00    -0.239 NA
ATOM     17  C   LIG    1       29.730 -18.860   8.020  0.00  0.00    +0.113 A 
ATOM     18  C   LIG    1       29.782 -18.462   6.691  0.00  0.00    +0.020 A 
ATOM     19  C   LIG    1       29.073 -19.206   5.753  0.00  0.00    +0.005 A 
ATOM     20  C   LIG    1       28.350 -20.315   6.177  0.00  0.00    +0.045 A 
ENDBRANCH  13  15
ENDBRANCH   1  13
TORSDOF 4
ENDMDL
MODEL 4
REMARK VINA RESULT:      -7.8      3.853      7.324
REMARK  Name = *****
REMARK                            x       y       z     vdW  Elec       q    Type
REMARK                         _______ _______ _______ _____ _____    ______ ____
ROOT
ATOM      1  S   LIG    1       26.036 -21.552   6.990  0.00  0.00    +0.073 S 
ATOM      2  O   LIG    1       25.252 -20.472   7.559  0.00  0.00    -0.150 OA
ATOM      3  O   LIG    1       26.004 -22.872   7.580  0.00  0.00    -0.150 OA
ENDROOT
BRANCH   1   7
ATOM      4  C   LIG    1       30.273 -19.825   7.199  0.00  0.00    +0.025 A 
ATOM      5  C   LIG    1       29.928 -20.937   7.976  0.00  0.00    +0.024 A 
ATOM      6  C   LIG    1       28.649 -21.499   7.897  0.00  0.00    +0.030 A 
ATOM      7  C   LIG    1       27.728 -20.982   6.985  0.00  0.00    +0.109 A 
ATOM      8  C   LIG    1       28.090 -19.928   6.140  0.00  0.00    +0.030 A 
ATOM      9  C   LIG    1       29.371 -19.375   6.232  0.00  0.00    +0.024 A 
BRANCH   4  10
ATOM     10  N   LIG    1       31.575 -19.308   7.241  0.00  0.00    -0.358 N 
ATOM     11  H   LIG    1       31.803 -18.864   8.125  0.00  0.00    +0.142 HD
ATOM     12  H   LIG    1       31.793 -18.704   6.453  0.00  0.00    +0.142 HD
ENDBRANCH   4  10
ENDBRANCH   1   7
BRANCH   1  13
ATOM     13  N   LIG    1       25.635 -21.618   5.348  0.00  0.00    -0.200 N 
ATOM     14  H   LIG    1       25.324 -22.557   5.111  0.00  0.00    +0.175 HD
BRANCH  13  15
ATOM     15  C   LIG    1       24.619 -20.720   4.958  0.00  0.00    +0.138 A 
ATOM     16  N   LIG    1       25.042 -19.738   4.147  0.00  0.00    -0.239 NA
ATOM     17  C   LIG    1       24.099 -18.845   3.766  0.00  0.00    +0.113 A 
ATOM     18  C   LIG    1       22.773 -18.890   4.175  0.00  0.00    +0.020 A 
ATOM     19  C   LIG    1       22.379 -19.925   5.018  0.00  0.00    +0.005 A 
ATOM     20  C   LIG    1       23.319 -20.871   5.411  0.00  0.00    +0.045 A 
ENDBRANCH  13  15
ENDBRANCH   1  13
TORSDOF 4
ENDMDL
MODEL 5
REMARK VINA RESULT:      -7.7      7.553      8.432
REMARK  Name = *****
REMARK                            x       y       z     vdW  Elec       q    Type
REMARK                         _______ _______ _______ _____ _____    ______ ____
ROOT
ATOM      1  S   LIG    1       24.843 -22.880   6.079  0.00  0.00    +0.073 S 
ATOM      2  O   LIG    1       26.070 -22.166   6.382  0.00  0.00    -0.150 OA
ATOM      3  O   LIG    1       23.712 -22.806   6.975  0.00  0.00    -0.150 OA
ENDROOT
BRANCH   1   7
ATOM      4  C   LIG    1       25.691 -27.366   5.719  0.00  0.00    +0.025 A 
ATOM      5  C   LIG    1       25.367 -26.619   4.581  0.00  0.00    +0.024 A 
ATOM      6  C   LIG    1       25.141 -25.240   4.668  0.00  0.00    +0.030 A 
ATOM      7  C   LIG    1       25.303 -24.594   5.895  0.00  0.00    +0.109 A 
ATOM      8  C   LIG    1       25.712 -25.316   7.020  0.00  0.00    +0.030 A 
ATOM      9  C   LIG    1       25.932 -26.693   6.919  0.00  0.00    +0.024 A 
BRANCH   4  10
ATOM     10  N   LIG    1       25.975 -28.734   5.611  0.00  0.00    -0.358 N 
ATOM     11  H   LIG    1       25.879 -29.235   6.489  0.00  0.00    +0.142 HD
ATOM     12  H   LIG    1       26.870 -28.926   5.168  0.00  0.00    +0.142 HD
ENDBRANCH   4  10
ENDBRANCH   1   7
BRANCH   1  13
ATOM     13  N   LIG    1       24.400 -22.418   4.512  0.00  0.00    -0.200 N 
ATOM     14  H   LIG    1       23.677 -23.044   4.165  0.00  0.00    +0.175 HD
BRANCH  13  15
ATOM     15  C   LIG    1       23.911 -21.099   4.407  0.00  0.00    +0.138 A 
ATOM     16  N   LIG    1       24.729 -20.266   3.744  0.00  0.00    -0.239 NA
ATOM     17  C   LIG    1       24.302 -18.986   3.639  0.00  0.00    +0.113 A 
ATOM     18  C   LIG    1       23.114 -18.514   4.180  0.00  0.00    +0.020 A 
ATOM     19  C   LIG    1       22.298 -19.412   4.861  0.00  0.00    +0.005 A 
ATOM     20  C   LIG    1       22.697 -20.740   4.969  0.00  0.00    +0.045 A 
ENDBRANCH  13  15
ENDBRANCH   1  13
TORSDOF 4
ENDMDL
MODEL 6
REMARK VINA RESULT:      -7.6      4.924      8.251
REMARK  Name = *****
REMARK                            x       y       z     vdW  Elec       q    Type
REMARK                         _______ _______ _______ _____ _____    ______ ____
ROOT
ATOM      1  S   LIG    1       23.940 -21.318   6.156  0.00  0.00    +0.073 S 
ATOM      2  O   LIG    1       24.100 -21.889   4.831  0.00  0.00    -0.150 OA
ATOM      3  O   LIG    1       22.965 -20.278   6.393  0.00  0.00    -0.150 OA
ENDROOT
BRANCH   1   7
ATOM      4  C   LIG    1       28.173 -20.068   7.380  0.00  0.00    +0.025 A 
ATOM      5  C   LIG    1       27.799 -20.056   6.032  0.00  0.00    +0.024 A 
ATOM      6  C   LIG    1       26.498 -20.399   5.644  0.00  0.00    +0.030 A 
ATOM      7  C   LIG    1       25.548 -20.697   6.621  0.00  0.00    +0.109 A 
ATOM      8  C   LIG    1       25.887 -20.627   7.976  0.00  0.00    +0.030 A 
ATOM      9  C   LIG    1       27.189 -20.284   8.349  0.00  0.00    +0.024 A 
BRANCH   4  10
ATOM     10  N   LIG    1       29.459 -19.663   7.762  0.00  0.00    -0.358 N 
ATOM     11  H   LIG    1       30.067 -19.460   6.975  0.00  0.00    +0.142 HD
ATOM     12  H   LIG    1       29.902 -20.298   8.421  0.00  0.00    +0.142 HD
ENDBRANCH   4  10
ENDBRANCH   1   7
BRANCH   1  13
ATOM     13  N   LIG    1       23.698 -22.621   7.208  0.00  0.00    -0.200 N 
ATOM     14  H   LIG    1       22.701 -22.788   7.319  0.00  0.00    +0.175 HD
BRANCH  13  15
ATOM     15  C   LIG    1       24.291 -23.830   6.788  0.00  0.00    +0.138 A 
ATOM     16  N   LIG    1       23.412 -24.745   6.351  0.00  0.00    -0.239 NA
ATOM     17  C   LIG    1       23.942 -25.926   5.956  0.00  0.00    +0.113 A 
ATOM     18  C   LIG    1       25.297 -26.225   6.000  0.00  0.00    +0.020 A 
ATOM     19  C   LIG    1       26.172 -25.247   6.463  0.00  0.00    +0.005 A 
ATOM     20  C   LIG    1       25.662 -24.015   6.856  0.00  0.00    +0.045 A 
ENDBRANCH  13  15
ENDBRANCH   1  13
TORSDOF 4
ENDMDL
MODEL 7
REMARK VINA RESULT:      -7.5      0.901      1.427
REMARK  Name = *****
REMARK                            x       y       z     vdW  Elec       q    Type
REMARK                         _______ _______ _______ _____ _____    ______ ____
ROOT
ATOM      1  S   LIG    1       29.894 -19.545   7.818  0.00  0.00    +0.073 S 
ATOM      2  O   LIG    1       30.784 -19.638   6.676  0.00  0.00    -0.150 OA
ATOM      3  O   LIG    1       30.127 -20.348   8.997  0.00  0.00    -0.150 OA
ENDROOT
BRANCH   1   7
ATOM      4  C   LIG    1       25.827 -20.816   6.138  0.00  0.00    +0.025 A 
ATOM      5  C   LIG    1       26.069 -20.876   7.515  0.00  0.00    +0.024 A 
ATOM      6  C   LIG    1       27.293 -20.457   8.048  0.00  0.00    +0.030 A 
ATOM      7  C   LIG    1       28.260 -19.914   7.201  0.00  0.00    +0.109 A 
ATOM      8  C   LIG    1       27.996 -19.768   5.836  0.00  0.00    +0.030 A 
ATOM      9  C   LIG    1       26.770 -20.193   5.316  0.00  0.00    +0.024 A 
BRANCH   4  10
ATOM     10  N   LIG    1       24.577 -21.181   5.621  0.00  0.00    -0.358 N 
ATOM     11  H   LIG    1       23.852 -20.493   5.800  0.00  0.00    +0.142 HD
ATOM     12  H   LIG    1       24.283 -22.114   5.900  0.00  0.00    +0.142 HD
ENDBRANCH   4  10
ENDBRANCH   1   7
BRANCH   1  13
ATOM     13  N   LIG    1       29.804 -17.902   8.217  0.00  0.00    -0.200 N 
ATOM     14  H   LIG    1       28.860 -17.677   8.520  0.00  0.00    +0.175 HD
BRANCH  13  15
ATOM     15  C   LIG    1       30.689 -17.500   9.240  0.00  0.00    +0.138 A 
ATOM     16  N   LIG    1       31.909 -17.154   8.800  0.00  0.00    -0.239 NA
ATOM     17  C   LIG    1       32.792 -16.779   9.754  0.00  0.00    +0.113 A 
ATOM     18  C   LIG    1       32.508 -16.757  11.113  0.00  0.00    +0.020 A 
ATOM     19  C   LIG    1       31.231 -17.126  11.525  0.00  0.00    +0.005 A 
ATOM     20  C   LIG    1       30.293 -17.496  10.567  0.00  0.00    +0.045 A 
ENDBRANCH  13  15
ENDBRANCH   1  13
TORSDOF 4
ENDMDL
MODEL 8
REMARK VINA RESULT:      -7.3      7.385     10.989
REMARK  Name = *****
REMARK                            x       y       z     vdW  Elec       q    Type
REMARK                         _______ _______ _______ _____ _____    ______ ____
ROOT
ATOM      1  S   LIG    1       25.479 -26.390   5.937  0.00  0.00    +0.073 S 
ATOM      2  O   LIG    1       26.408 -26.884   6.936  0.00  0.00    -0.150 OA
ATOM      3  O   LIG    1       25.912 -26.175   4.575  0.00  0.00    -0.150 OA
ENDROOT
BRANCH   1   7
ATOM      4  C   LIG    1       23.930 -22.285   7.252  0.00  0.00    +0.025 A 
ATOM      5  C   LIG    1       23.032 -23.276   6.839  0.00  0.00    +0.024 A 
ATOM      6  C   LIG    1       23.486 -24.548   6.469  0.00  0.00    +0.030 A 
ATOM      7  C   LIG    1       24.845 -24.848   6.574  0.00  0.00    +0.109 A 
ATOM      8  C   LIG    1       25.739 -23.894   7.069  0.00  0.00    +0.030 A 
ATOM      9  C   LIG    1       25.273 -22.628   7.433  0.00  0.00    +0.024 A 
BRANCH   4  10
ATOM     10  N   LIG    1       23.460 -21.036   7.679  0.00  0.00    -0.358 N 
ATOM     11  H   LIG    1       23.268 -20.997   8.675  0.00  0.00    +0.142 HD
ATOM     12  H   LIG    1       22.671 -20.696   7.135  0.00  0.00    +0.142 HD
ENDBRANCH   4  10
ENDBRANCH   1   7
BRANCH   1  13
ATOM     13  N   LIG    1       24.137 -27.420   5.986  0.00  0.00    -0.200 N 
ATOM     14  H   LIG    1       23.612 -27.336   5.119  0.00  0.00    +0.175 HD
BRANCH  13  15
ATOM     15  C   LIG    1       24.453 -28.784   6.165  0.00  0.00    +0.138 A 
ATOM     16  N   LIG    1       24.033 -29.291   7.335  0.00  0.00    -0.239 NA
ATOM     17  C   LIG    1       24.334 -30.592   7.551  0.00  0.00    +0.113 A 
ATOM     18  C   LIG    1       25.043 -31.386   6.660  0.00  0.00    +0.020 A 
ATOM     19  C   LIG    1       25.461 -30.818   5.461  0.00  0.00    +0.005 A 
ATOM     20  C   LIG    1       25.149 -29.489   5.198  0.00  0.00    +0.045 A 
ENDBRANCH  13  15
ENDBRANCH   1  13
TORSDOF 4
ENDMDL
MODEL 9
REMARK VINA RESULT:      -7.3      7.348     10.862
REMARK  Name = *****
REMARK                            x       y       z     vdW  Elec       q    Type
REMARK                         _______ _______ _______ _____ _____    ______ ____
ROOT
ATOM      1  S   LIG    1       25.473 -26.312   5.875  0.00  0.00    +0.073 S 
ATOM      2  O   LIG    1       26.487 -26.773   6.806  0.00  0.00    -0.150 OA
ATOM      3  O   LIG    1       25.799 -26.093   4.485  0.00  0.00    -0.150 OA
ENDROOT
BRANCH   1   7
ATOM      4  C   LIG    1       23.924 -22.241   7.290  0.00  0.00    +0.025 A 
ATOM      5  C   LIG    1       23.024 -23.232   6.881  0.00  0.00    +0.024 A 
ATOM      6  C   LIG    1       23.479 -24.494   6.481  0.00  0.00    +0.030 A 
ATOM      7  C   LIG    1       24.842 -24.785   6.551  0.00  0.00    +0.109 A 
ATOM      8  C   LIG    1       25.740 -23.832   7.041  0.00  0.00    +0.030 A 
ATOM      9  C   LIG    1       25.272 -22.576   7.435  0.00  0.00    +0.024 A 
BRANCH   4  10
ATOM     10  N   LIG    1       23.454 -21.002   7.746  0.00  0.00    -0.358 N 
ATOM     11  H   LIG    1       23.103 -21.032   8.699  0.00  0.00    +0.142 HD
ATOM     12  H   LIG    1       22.784 -20.568   7.116  0.00  0.00    +0.142 HD
ENDBRANCH   4  10
ENDBRANCH   1   7
BRANCH   1  13
ATOM     13  N   LIG    1       24.169 -27.381   6.027  0.00  0.00    -0.200 N 
ATOM     14  H   LIG    1       23.608 -27.355   5.179  0.00  0.00    +0.175 HD
BRANCH  13  15
ATOM     15  C   LIG    1       24.537 -28.723   6.256  0.00  0.00    +0.138 A 
ATOM     16  N   LIG    1       25.088 -29.327   5.191  0.00  0.00    -0.239 NA
ATOM     17  C   LIG    1       25.437 -30.623   5.367  0.00  0.00    +0.113 A 
ATOM     18  C   LIG    1       25.242 -31.329   6.546  0.00  0.00    +0.020 A 
ATOM     19  C   LIG    1       24.665 -30.664   7.624  0.00  0.00    +0.005 A 
ATOM     20  C   LIG    1       24.314 -29.326   7.483  0.00  0.00    +0.045 A 
ENDBRANCH  13  15
ENDBRANCH   1  13
TORSDOF 4
ENDMDL
