MODEL 1
REMARK VINA RESULT:      -6.4      0.000      0.000
REMARK  Name = *****
REMARK                            x       y       z     vdW  Elec       q    Type
REMARK                         _______ _______ _______ _____ _____    ______ ____
ROOT
ATOM      1  C   LIG    1       25.530 -19.919   3.804  0.00  0.00    +0.155 C 
ATOM      2  N   LIG    1       25.552 -20.335   5.192  0.00  0.00    -0.280 N 
ATOM      3  C   LIG    1       24.387 -20.870   5.750  0.00  0.00    +0.333 C 
ATOM      4  O   LIG    1       23.352 -20.994   5.087  0.00  0.00    -0.246 OA
ATOM      5  N   LIG    1       24.440 -21.264   7.103  0.00  0.00    -0.262 N 
ATOM      6  C   LIG    1       23.220 -21.811   7.663  0.00  0.00    +0.157 C 
ATOM      7  C   LIG    1       25.559 -21.169   7.932  0.00  0.00    +0.282 C 
ATOM      8  O   LIG    1       25.600 -21.516   9.108  0.00  0.00    -0.265 OA
ATOM      9  C   LIG    1       26.681 -20.615   7.269  0.00  0.00    +0.150 A 
ATOM     10  N   LIG    1       27.940 -20.359   7.725  0.00  0.00    -0.327 N 
ATOM     11  H   LIG    1       28.295 -20.532   8.656  0.00  0.00    +0.168 HD
ATOM     12  C   LIG    1       28.636 -19.819   6.674  0.00  0.00    +0.178 A 
ATOM     13 BR   LIG    1       30.422 -19.284   6.768  0.00  0.00    -0.008 Br
ATOM     14  N   LIG    1       27.890 -19.723   5.592  0.00  0.00    -0.203 NA
ATOM     15  C   LIG    1       26.679 -20.219   5.969  0.00  0.00    +0.169 A 
ENDROOT
TORSDOF 0
ENDMDL
MODEL 2
REMARK VINA RESULT:      -6.4      1.334      2.821
REMARK  Name = *****
REMARK                            x       y       z     vdW  Elec       q    Type
REMARK                         _______ _______ _______ _____ _____    ______ ____
ROOT
ATOM      1  C   LIG    1       25.621 -21.176   9.022  0.00  0.00    +0.155 C 
ATOM      2  N   LIG    1       25.530 -20.878   7.607  0.00  0.00    -0.280 N 
ATOM      3  C   LIG    1       24.302 -21.058   6.962  0.00  0.00    +0.333 C 
ATOM      4  O   LIG    1       23.306 -21.460   7.572  0.00  0.00    -0.246 OA
ATOM      5  N   LIG    1       24.246 -20.762   5.584  0.00  0.00    -0.262 N 
ATOM      6  C   LIG    1       22.966 -20.961   4.934  0.00  0.00    +0.157 C 
ATOM      7  C   LIG    1       25.313 -20.301   4.810  0.00  0.00    +0.282 C 
ATOM      8  O   LIG    1       25.257 -20.042   3.613  0.00  0.00    -0.265 OA
ATOM      9  C   LIG    1       26.506 -20.154   5.560  0.00  0.00    +0.150 A 
ATOM     10  N   LIG    1       27.746 -19.739   5.176  0.00  0.00    -0.327 N 
ATOM     11  H   LIG    1       28.030 -19.452   4.249  0.00  0.00    +0.168 HD
ATOM     12  C   LIG    1       28.538 -19.783   6.294  0.00  0.00    +0.178 A 
ATOM     13 BR   LIG    1       30.344 -19.312   6.314  0.00  0.00    -0.008 Br
ATOM     14  N   LIG    1       27.869 -20.200   7.350  0.00  0.00    -0.203 NA
ATOM     15  C   LIG    1       26.609 -20.428   6.887  0.00  0.00    +0.169 A 
ENDROOT
TORSDOF 0
ENDMDL
MODEL 3
REMARK VINA RESULT:      -6.3      3.181      4.990
REMARK  Name = *****
REMARK                            x       y       z     vdW  Elec       q    Type
REMARK                         _______ _______ _______ _____ _____    ______ ____
ROOT
ATOM      1  C   LIG    1       26.913 -22.248   8.156  0.00  0.00    +0.155 C 
ATOM      2  N   LIG    1       27.655 -21.246   7.418  0.00  0.00    -0.280 N 
ATOM      3  C   LIG    1       28.954 -20.934   7.833  0.00  0.00    +0.333 C 
ATOM      4  O   LIG    1       29.472 -21.493   8.805  0.00  0.00    -0.246 OA
ATOM      5  N   LIG    1       29.650 -19.954   7.097  0.00  0.00    -0.262 N 
ATOM      6  C   LIG    1       30.992 -19.641   7.547  0.00  0.00    +0.157 C 
ATOM      7  C   LIG    1       29.153 -19.270   5.985  0.00  0.00    +0.282 C 
ATOM      8  O   LIG    1       29.764 -18.420   5.346  0.00  0.00    -0.265 OA
ATOM      9  C   LIG    1       27.834 -19.661   5.651  0.00  0.00    +0.150 A 
ATOM     10  N   LIG    1       27.011 -19.234   4.651  0.00  0.00    -0.327 N 
ATOM     11  H   LIG    1       27.219 -18.535   3.951  0.00  0.00    +0.168 HD
ATOM     12  C   LIG    1       25.841 -19.937   4.779  0.00  0.00    +0.178 A 
ATOM     13 BR   LIG    1       24.369 -19.729   3.650  0.00  0.00    -0.008 Br
ATOM     14  N   LIG    1       25.883 -20.775   5.795  0.00  0.00    -0.203 NA
ATOM     15  C   LIG    1       27.122 -20.598   6.331  0.00  0.00    +0.169 A 
ENDROOT
TORSDOF 0
ENDMDL
MODEL 4
REMARK VINA RESULT:      -5.7      3.027      4.164
REMARK  Name = *****
REMARK                            x       y       z     vdW  Elec       q    Type
REMARK                         _______ _______ _______ _____ _____    ______ ____
ROOT
ATOM      1  C   LIG    1       25.947 -19.552   4.064  0.00  0.00    +0.155 C 
ATOM      2  N   LIG    1       26.460 -20.141   5.284  0.00  0.00    -0.280 N 
ATOM      3  C   LIG    1       27.712 -19.728   5.752  0.00  0.00    +0.333 C 
ATOM      4  O   LIG    1       28.377 -18.879   5.151  0.00  0.00    -0.246 OA
ATOM      5  N   LIG    1       28.185 -20.322   6.940  0.00  0.00    -0.262 N 
ATOM      6  C   LIG    1       29.487 -19.884   7.405  0.00  0.00    +0.157 C 
ATOM      7  C   LIG    1       27.508 -21.284   7.692  0.00  0.00    +0.282 C 
ATOM      8  O   LIG    1       27.923 -21.795   8.727  0.00  0.00    -0.265 OA
ATOM      9  C   LIG    1       26.255 -21.630   7.130  0.00  0.00    +0.150 A 
ATOM     10  N   LIG    1       25.310 -22.516   7.554  0.00  0.00    -0.327 N 
ATOM     11  H   LIG    1       25.352 -23.100   8.379  0.00  0.00    +0.168 HD
ATOM     12  C   LIG    1       24.287 -22.465   6.643  0.00  0.00    +0.178 A 
ATOM     13 BR   LIG    1       22.735 -23.495   6.756  0.00  0.00    -0.008 Br
ATOM     14  N   LIG    1       24.535 -21.602   5.678  0.00  0.00    -0.203 NA
ATOM     15  C   LIG    1       25.757 -21.088   5.988  0.00  0.00    +0.169 A 
ENDROOT
TORSDOF 0
ENDMDL
MODEL 5
REMARK VINA RESULT:      -5.6      3.798      4.861
REMARK  Name = *****
REMARK                            x       y       z     vdW  Elec       q    Type
REMARK                         _______ _______ _______ _____ _____    ______ ____
ROOT
ATOM      1  C   LIG    1       22.058 -23.168   6.756  0.00  0.00    +0.155 C 
ATOM      2  N   LIG    1       23.492 -23.030   6.902  0.00  0.00    -0.280 N 
ATOM      3  C   LIG    1       24.004 -21.814   7.367  0.00  0.00    +0.333 C 
ATOM      4  O   LIG    1       23.263 -20.869   7.653  0.00  0.00    -0.246 OA
ATOM      5  N   LIG    1       25.405 -21.710   7.496  0.00  0.00    -0.262 N 
ATOM      6  C   LIG    1       25.916 -20.441   7.974  0.00  0.00    +0.157 C 
ATOM      7  C   LIG    1       26.324 -22.720   7.203  0.00  0.00    +0.282 C 
ATOM      8  O   LIG    1       27.541 -22.625   7.321  0.00  0.00    -0.265 OA
ATOM      9  C   LIG    1       25.701 -23.905   6.741  0.00  0.00    +0.150 A 
ATOM     10  N   LIG    1       26.241 -25.095   6.355  0.00  0.00    -0.327 N 
ATOM     11  H   LIG    1       27.222 -25.339   6.336  0.00  0.00    +0.168 HD
ATOM     12  C   LIG    1       25.193 -25.904   5.997  0.00  0.00    +0.178 A 
ATOM     13 BR   LIG    1       25.388 -27.656   5.385  0.00  0.00    -0.008 Br
ATOM     14  N   LIG    1       24.034 -25.292   6.135  0.00  0.00    -0.203 NA
ATOM     15  C   LIG    1       24.357 -24.052   6.598  0.00  0.00    +0.169 A 
ENDROOT
TORSDOF 0
ENDMDL
MODEL 6
REMARK VINA RESULT:      -5.6      2.471      2.974
REMARK  Name = *****
REMARK                            x       y       z     vdW  Elec       q    Type
REMARK                         _______ _______ _______ _____ _____    ______ ____
ROOT
ATOM      1  C   LIG    1       23.194 -20.727   7.233  0.00  0.00    +0.155 C 
ATOM      2  N   LIG    1       24.092 -21.843   7.013  0.00  0.00    -0.280 N 
ATOM      3  C   LIG    1       23.544 -23.097   6.722  0.00  0.00    +0.333 C 
ATOM      4  O   LIG    1       22.323 -23.265   6.649  0.00  0.00    -0.246 OA
ATOM      5  N   LIG    1       24.443 -24.163   6.515  0.00  0.00    -0.262 N 
ATOM      6  C   LIG    1       23.855 -25.455   6.221  0.00  0.00    +0.157 C 
ATOM      7  C   LIG    1       25.835 -24.073   6.573  0.00  0.00    +0.282 C 
ATOM      8  O   LIG    1       26.613 -25.003   6.389  0.00  0.00    -0.265 OA
ATOM      9  C   LIG    1       26.283 -22.763   6.874  0.00  0.00    +0.150 A 
ATOM     10  N   LIG    1       27.546 -22.272   7.019  0.00  0.00    -0.327 N 
ATOM     11  H   LIG    1       28.412 -22.787   6.930  0.00  0.00    +0.168 HD
ATOM     12  C   LIG    1       27.418 -20.938   7.309  0.00  0.00    +0.178 A 
ATOM     13 BR   LIG    1       28.859 -19.791   7.607  0.00  0.00    -0.008 Br
ATOM     14  N   LIG    1       26.154 -20.568   7.354  0.00  0.00    -0.203 NA
ATOM     15  C   LIG    1       25.456 -21.705   7.083  0.00  0.00    +0.169 A 
ENDROOT
TORSDOF 0
ENDMDL
MODEL 7
REMARK VINA RESULT:      -5.5      3.307      4.617
REMARK  Name = *****
REMARK                            x       y       z     vdW  Elec       q    Type
REMARK                         _______ _______ _______ _____ _____    ______ ____
ROOT
ATOM      1  C   LIG    1       27.500 -18.722   4.613  0.00  0.00    +0.155 C 
ATOM      2  N   LIG    1       28.077 -19.479   5.704  0.00  0.00    -0.280 N 
ATOM      3  C   LIG    1       29.365 -19.151   6.140  0.00  0.00    +0.333 C 
ATOM      4  O   LIG    1       30.009 -18.237   5.618  0.00  0.00    -0.246 OA
ATOM      5  N   LIG    1       29.900 -19.908   7.203  0.00  0.00    -0.262 N 
ATOM      6  C   LIG    1       31.237 -19.556   7.636  0.00  0.00    +0.157 C 
ATOM      7  C   LIG    1       29.251 -20.956   7.860  0.00  0.00    +0.282 C 
ATOM      8  O   LIG    1       29.720 -21.609   8.786  0.00  0.00    -0.265 OA
ATOM      9  C   LIG    1       27.957 -21.205   7.341  0.00  0.00    +0.150 A 
ATOM     10  N   LIG    1       27.021 -22.128   7.701  0.00  0.00    -0.327 N 
ATOM     11  H   LIG    1       27.103 -22.820   8.434  0.00  0.00    +0.168 HD
ATOM     12  C   LIG    1       25.944 -21.939   6.875  0.00  0.00    +0.178 A 
ATOM     13 BR   LIG    1       24.380 -22.955   6.950  0.00  0.00    -0.008 Br
ATOM     14  N   LIG    1       26.149 -20.955   6.023  0.00  0.00    -0.203 NA
ATOM     15  C   LIG    1       27.399 -20.504   6.318  0.00  0.00    +0.169 A 
ENDROOT
TORSDOF 0
ENDMDL
MODEL 8
REMARK VINA RESULT:      -5.4      3.133      4.725
REMARK  Name = *****
REMARK                            x       y       z     vdW  Elec       q    Type
REMARK                         _______ _______ _______ _____ _____    ______ ____
ROOT
ATOM      1  C   LIG    1       29.100 -18.072   5.006  0.00  0.00    +0.155 C 
ATOM      2  N   LIG    1       28.992 -19.103   6.019  0.00  0.00    -0.280 N 
ATOM      3  C   LIG    1       30.044 -19.263   6.927  0.00  0.00    +0.333 C 
ATOM      4  O   LIG    1       31.050 -18.549   6.881  0.00  0.00    -0.246 OA
ATOM      5  N   LIG    1       29.909 -20.276   7.899  0.00  0.00    -0.262 N 
ATOM      6  C   LIG    1       31.013 -20.430   8.826  0.00  0.00    +0.157 C 
ATOM      7  C   LIG    1       28.813 -21.131   8.034  0.00  0.00    +0.282 C 
ATOM      8  O   LIG    1       28.700 -22.008   8.884  0.00  0.00    -0.265 OA
ATOM      9  C   LIG    1       27.808 -20.883   7.067  0.00  0.00    +0.150 A 
ATOM     10  N   LIG    1       26.606 -21.492   6.865  0.00  0.00    -0.327 N 
ATOM     11  H   LIG    1       26.216 -22.257   7.399  0.00  0.00    +0.168 HD
ATOM     12  C   LIG    1       26.024 -20.866   5.793  0.00  0.00    +0.178 A 
ATOM     13 BR   LIG    1       24.353 -21.324   5.097  0.00  0.00    -0.008 Br
ATOM     14  N   LIG    1       26.787 -19.905   5.315  0.00  0.00    -0.203 NA
ATOM     15  C   LIG    1       27.893 -19.921   6.111  0.00  0.00    +0.169 A 
ENDROOT
TORSDOF 0
ENDMDL
MODEL 9
REMARK VINA RESULT:      -5.4      2.326      3.135
REMARK  Name = *****
REMARK                            x       y       z     vdW  Elec       q    Type
REMARK                         _______ _______ _______ _____ _____    ______ ____
ROOT
ATOM      1  C   LIG    1       26.032 -25.026   6.966  0.00  0.00    +0.155 C 
ATOM      2  N   LIG    1       25.281 -23.791   6.865  0.00  0.00    -0.280 N 
ATOM      3  C   LIG    1       23.907 -23.862   6.618  0.00  0.00    +0.333 C 
ATOM      4  O   LIG    1       23.329 -24.946   6.488  0.00  0.00    -0.246 OA
ATOM      5  N   LIG    1       23.204 -22.643   6.522  0.00  0.00    -0.262 N 
ATOM      6  C   LIG    1       21.781 -22.738   6.260  0.00  0.00    +0.157 C 
ATOM      7  C   LIG    1       23.764 -21.371   6.657  0.00  0.00    +0.282 C 
ATOM      8  O   LIG    1       23.147 -20.314   6.576  0.00  0.00    -0.265 OA
ATOM      9  C   LIG    1       25.158 -21.414   6.904  0.00  0.00    +0.150 A 
ATOM     10  N   LIG    1       26.055 -20.405   7.090  0.00  0.00    -0.327 N 
ATOM     11  H   LIG    1       25.862 -19.412   7.081  0.00  0.00    +0.168 HD
ATOM     12  C   LIG    1       27.275 -20.996   7.291  0.00  0.00    +0.178 A 
ATOM     13 BR   LIG    1       28.857 -20.052   7.593  0.00  0.00    -0.008 Br
ATOM     14  N   LIG    1       27.195 -22.311   7.242  0.00  0.00    -0.203 NA
ATOM     15  C   LIG    1       25.878 -22.562   7.003  0.00  0.00    +0.169 A 
ENDROOT
TORSDOF 0
ENDMDL
