MODEL 1
REMARK VINA RESULT:      -8.1      0.000      0.000
REMARK  Name = *****
REMARK                            x       y       z     vdW  Elec       q    Type
REMARK                         _______ _______ _______ _____ _____    ______ ____
ROOT
ATOM      1  N   LIG    1       24.827 -27.720   5.464  0.00  0.00    -0.302 N 
ATOM      2  H   LIG    1       23.944 -27.351   5.801  0.00  0.00    +0.149 HD
ATOM      3  C   LIG    1       25.849 -26.810   5.231  0.00  0.00    +0.299 C 
ATOM      4  O   LIG    1       26.936 -27.094   4.773  0.00  0.00    -0.265 OA
ENDROOT
BRANCH   3   5
ATOM      5  C   LIG    1       25.451 -25.349   5.501  0.00  0.00    +0.299 C 
ATOM      6  N   LIG    1       25.785 -24.892   6.761  0.00  0.00    -0.302 N 
ATOM      7  H   LIG    1       26.194 -25.576   7.401  0.00  0.00    +0.149 HD
ATOM      8  O   LIG    1       24.970 -24.682   4.601  0.00  0.00    -0.265 OA
BRANCH   6   9
ATOM      9  C   LIG    1       25.531 -23.543   7.261  0.00  0.00    +0.155 C 
BRANCH   9  10
ATOM     10  C   LIG    1       26.721 -22.569   7.144  0.00  0.00    +0.152 C 
BRANCH  10  11
ATOM     11  N   LIG    1       26.444 -21.169   6.544  0.00  0.00    +0.247 N 
BRANCH  11  12
ATOM     12  C   LIG    1       27.776 -20.419   6.243  0.00  0.00    +0.130 C 
ATOM     13  C   LIG    1       29.009 -20.990   6.944  0.00  0.00    +0.060 C 
ENDBRANCH  11  12
BRANCH  11  14
ATOM     14  C   LIG    1       25.664 -20.364   7.628  0.00  0.00    +0.130 C 
ATOM     15  C   LIG    1       26.055 -20.685   9.069  0.00  0.00    +0.060 C 
ENDBRANCH  11  14
BRANCH  11  16
ATOM     16  C   LIG    1       25.610 -21.330   5.228  0.00  0.00    +0.171 C 
BRANCH  16  17
ATOM     17  C   LIG    1       24.454 -20.404   4.913  0.00  0.00    +0.015 A 
ATOM     18  C   LIG    1       23.129 -20.641   5.331  0.00  0.00    +0.049 A 
ATOM     19 CL   LIG    1       22.658 -22.040   6.216  0.00  0.00    -0.083 Cl
ATOM     20  C   LIG    1       22.086 -19.789   4.956  0.00  0.00    +0.020 A 
ATOM     21  C   LIG    1       22.328 -18.710   4.113  0.00  0.00    +0.001 A 
ATOM     22  C   LIG    1       23.614 -18.488   3.636  0.00  0.00    +0.001 A 
ATOM     23  C   LIG    1       24.665 -19.323   4.033  0.00  0.00    +0.010 A 
ENDBRANCH  16  17
ENDBRANCH  11  16
ENDBRANCH  10  11
ENDBRANCH   9  10
ENDBRANCH   6   9
ENDBRANCH   3   5
BRANCH   1  24
ATOM     24  C   LIG    1       24.999 -29.164   5.257  0.00  0.00    +0.155 C 
BRANCH  24  25
ATOM     25  C   LIG    1       24.555 -29.950   6.511  0.00  0.00    +0.152 C 
BRANCH  25  26
ATOM     26  N   LIG    1       24.908 -31.456   6.620  0.00  0.00    +0.247 N 
BRANCH  26  28
ATOM     27  C   LIG    1       23.069 -33.204   7.143  0.00  0.00    +0.060 C 
ATOM     28  C   LIG    1       23.659 -32.250   6.099  0.00  0.00    +0.130 C 
ENDBRANCH  26  28
BRANCH  26  29
ATOM     29  C   LIG    1       26.155 -31.758   5.726  0.00  0.00    +0.130 C 
ATOM     30  C   LIG    1       27.137 -32.766   6.330  0.00  0.00    +0.060 C 
ENDBRANCH  26  29
BRANCH  26  31
ATOM     31  C   LIG    1       25.236 -31.933   8.092  0.00  0.00    +0.171 C 
BRANCH  31  32
ATOM     32  C   LIG    1       25.591 -30.919   9.169  0.00  0.00    +0.015 A 
ATOM     33  C   LIG    1       24.615 -30.316   9.990  0.00  0.00    +0.049 A 
ATOM     34 CL   LIG    1       22.939 -30.730   9.893  0.00  0.00    -0.083 Cl
ATOM     35  C   LIG    1       24.967 -29.383  10.980  0.00  0.00    +0.020 A 
ATOM     36  C   LIG    1       26.303 -29.068  11.206  0.00  0.00    +0.001 A 
ATOM     37  C   LIG    1       27.286 -29.713  10.471  0.00  0.00    +0.001 A 
ATOM     38  C   LIG    1       26.930 -30.631   9.479  0.00  0.00    +0.010 A 
ENDBRANCH  31  32
ENDBRANCH  26  31
ENDBRANCH  25  26
ENDBRANCH  24  25
ENDBRANCH   1  24
TORSDOF 15
ENDMDL
MODEL 2
REMARK VINA RESULT:      -7.8      2.048      3.234
REMARK  Name = *****
REMARK                            x       y       z     vdW  Elec       q    Type
REMARK                         _______ _______ _______ _____ _____    ______ ____
ROOT
ATOM      1  N   LIG    1       25.647 -28.515   7.624  0.00  0.00    -0.302 N 
ATOM      2  H   LIG    1       26.402 -27.919   7.948  0.00  0.00    +0.149 HD
ATOM      3  C   LIG    1       25.014 -28.153   6.443  0.00  0.00    +0.299 C 
ATOM      4  O   LIG    1       24.061 -28.732   5.965  0.00  0.00    -0.265 OA
ENDROOT
BRANCH   3   5
ATOM      5  C   LIG    1       25.556 -26.857   5.820  0.00  0.00    +0.299 C 
ATOM      6  N   LIG    1       25.005 -25.701   6.340  0.00  0.00    -0.302 N 
ATOM      7  H   LIG    1       24.257 -25.821   7.025  0.00  0.00    +0.149 HD
ATOM      8  O   LIG    1       26.464 -26.914   5.008  0.00  0.00    -0.265 OA
BRANCH   6   9
ATOM      9  C   LIG    1       25.358 -24.343   5.932  0.00  0.00    +0.155 C 
BRANCH   9  10
ATOM     10  C   LIG    1       25.841 -23.425   7.072  0.00  0.00    +0.152 C 
BRANCH  10  11
ATOM     11  N   LIG    1       26.011 -21.919   6.755  0.00  0.00    +0.247 N 
BRANCH  11  12
ATOM     12  C   LIG    1       27.493 -21.475   6.940  0.00  0.00    +0.130 C 
ATOM     13  C   LIG    1       27.913 -20.270   6.100  0.00  0.00    +0.060 C 
ENDBRANCH  11  12
BRANCH  11  14
ATOM     14  C   LIG    1       25.136 -21.143   7.786  0.00  0.00    +0.130 C 
ATOM     15  C   LIG    1       25.899 -20.592   8.987  0.00  0.00    +0.060 C 
ENDBRANCH  11  14
BRANCH  11  16
ATOM     16  C   LIG    1       25.550 -21.650   5.282  0.00  0.00    +0.171 C 
BRANCH  16  17
ATOM     17  C   LIG    1       24.517 -20.589   4.965  0.00  0.00    +0.015 A 
ATOM     18  C   LIG    1       23.159 -20.690   5.327  0.00  0.00    +0.049 A 
ATOM     19 CL   LIG    1       22.503 -22.058   6.141  0.00  0.00    -0.083 Cl
ATOM     20  C   LIG    1       22.231 -19.714   4.951  0.00  0.00    +0.020 A 
ATOM     21  C   LIG    1       22.623 -18.641   4.159  0.00  0.00    +0.001 A 
ATOM     22  C   LIG    1       23.943 -18.548   3.735  0.00  0.00    +0.001 A 
ATOM     23  C   LIG    1       24.880 -19.508   4.135  0.00  0.00    +0.010 A 
ENDBRANCH  16  17
ENDBRANCH  11  16
ENDBRANCH  10  11
ENDBRANCH   9  10
ENDBRANCH   6   9
ENDBRANCH   3   5
BRANCH   1  24
ATOM     24  C   LIG    1       25.271 -29.716   8.382  0.00  0.00    +0.155 C 
BRANCH  24  25
ATOM     25  C   LIG    1       24.826 -29.338   9.813  0.00  0.00    +0.152 C 
BRANCH  25  26
ATOM     26  N   LIG    1       25.356 -30.170  11.009  0.00  0.00    +0.247 N 
BRANCH  26  28
ATOM     27  C   LIG    1       24.188 -32.465  10.723  0.00  0.00    +0.060 C 
ATOM     28  C   LIG    1       25.471 -31.653  10.510  0.00  0.00    +0.130 C 
ENDBRANCH  26  28
BRANCH  26  29
ATOM     29  C   LIG    1       26.761 -29.629  11.431  0.00  0.00    +0.130 C 
ATOM     30  C   LIG    1       27.037 -28.185  11.005  0.00  0.00    +0.060 C 
ENDBRANCH  26  29
BRANCH  26  31
ATOM     31  C   LIG    1       24.417 -30.133  12.282  0.00  0.00    +0.171 C 
BRANCH  31  32
ATOM     32  C   LIG    1       23.591 -28.895  12.593  0.00  0.00    +0.015 A 
ATOM     33  C   LIG    1       22.187 -28.870  12.461  0.00  0.00    +0.049 A 
ATOM     34 CL   LIG    1       21.275 -30.267  12.003  0.00  0.00    -0.083 Cl
ATOM     35  C   LIG    1       21.444 -27.715  12.756  0.00  0.00    +0.020 A 
ATOM     36  C   LIG    1       22.079 -26.574  13.236  0.00  0.00    +0.001 A 
ATOM     37  C   LIG    1       23.447 -26.602  13.457  0.00  0.00    +0.001 A 
ATOM     38  C   LIG    1       24.184 -27.750  13.150  0.00  0.00    +0.010 A 
ENDBRANCH  31  32
ENDBRANCH  26  31
ENDBRANCH  25  26
ENDBRANCH  24  25
ENDBRANCH   1  24
TORSDOF 15
ENDMDL
MODEL 3
REMARK VINA RESULT:      -7.8      0.993     10.529
REMARK  Name = *****
REMARK                            x       y       z     vdW  Elec       q    Type
REMARK                         _______ _______ _______ _____ _____    ______ ____
ROOT
ATOM      1  N   LIG    1       25.831 -24.973   6.807  0.00  0.00    -0.302 N 
ATOM      2  H   LIG    1       26.307 -25.611   7.437  0.00  0.00    +0.149 HD
ATOM      3  C   LIG    1       25.523 -25.444   5.538  0.00  0.00    +0.299 C 
ATOM      4  O   LIG    1       25.012 -24.780   4.661  0.00  0.00    -0.265 OA
ENDROOT
BRANCH   3   5
ATOM      5  C   LIG    1       25.992 -26.885   5.281  0.00  0.00    +0.299 C 
ATOM      6  N   LIG    1       25.064 -27.854   5.611  0.00  0.00    -0.302 N 
ATOM      7  H   LIG    1       24.200 -27.527   6.047  0.00  0.00    +0.149 HD
ATOM      8  O   LIG    1       27.068 -27.080   4.742  0.00  0.00    -0.265 OA
BRANCH   6   9
ATOM      9  C   LIG    1       25.256 -29.293   5.450  0.00  0.00    +0.155 C 
BRANCH   9  10
ATOM     10  C   LIG    1       24.523 -30.168   6.486  0.00  0.00    +0.152 C 
BRANCH  10  11
ATOM     11  N   LIG    1       24.965 -31.646   6.616  0.00  0.00    +0.247 N 
BRANCH  11  12
ATOM     12  C   LIG    1       26.354 -31.873   5.946  0.00  0.00    +0.130 C 
ATOM     13  C   LIG    1       26.454 -33.129   5.082  0.00  0.00    +0.060 C 
ENDBRANCH  11  12
BRANCH  11  14
ATOM     14  C   LIG    1       23.908 -32.499   5.851  0.00  0.00    +0.130 C 
ATOM     15  C   LIG    1       22.993 -33.336   6.742  0.00  0.00    +0.060 C 
ENDBRANCH  11  14
BRANCH  11  16
ATOM     16  C   LIG    1       25.033 -32.030   8.134  0.00  0.00    +0.171 C 
BRANCH  16  17
ATOM     17  C   LIG    1       25.386 -31.001   9.188  0.00  0.00    +0.015 A 
ATOM     18  C   LIG    1       24.434 -30.375  10.016  0.00  0.00    +0.049 A 
ATOM     19 CL   LIG    1       22.743 -30.678   9.900  0.00  0.00    -0.083 Cl
ATOM     20  C   LIG    1       24.804 -29.381  10.927  0.00  0.00    +0.020 A 
ATOM     21  C   LIG    1       26.123 -28.949  10.998  0.00  0.00    +0.001 A 
ATOM     22  C   LIG    1       27.072 -29.505  10.149  0.00  0.00    +0.001 A 
ATOM     23  C   LIG    1       26.710 -30.521   9.256  0.00  0.00    +0.010 A 
ENDBRANCH  16  17
ENDBRANCH  11  16
ENDBRANCH  10  11
ENDBRANCH   9  10
ENDBRANCH   6   9
ENDBRANCH   3   5
BRANCH   1  24
ATOM     24  C   LIG    1       25.479 -23.617   7.249  0.00  0.00    +0.155 C 
BRANCH  24  25
ATOM     25  C   LIG    1       26.645 -22.638   6.983  0.00  0.00    +0.152 C 
BRANCH  25  26
ATOM     26  N   LIG    1       26.326 -21.208   6.475  0.00  0.00    +0.247 N 
BRANCH  26  28
ATOM     27  C   LIG    1       25.899 -20.514   8.934  0.00  0.00    +0.060 C 
ATOM     28  C   LIG    1       25.333 -20.574   7.510  0.00  0.00    +0.130 C 
ENDBRANCH  26  28
BRANCH  26  29
ATOM     29  C   LIG    1       27.648 -20.377   6.410  0.00  0.00    +0.130 C 
ATOM     30  C   LIG    1       28.872 -21.088   6.995  0.00  0.00    +0.060 C 
ENDBRANCH  26  29
BRANCH  26  31
ATOM     31  C   LIG    1       25.657 -21.172   5.041  0.00  0.00    +0.171 C 
BRANCH  31  32
ATOM     32  C   LIG    1       24.380 -20.381   4.807  0.00  0.00    +0.015 A 
ATOM     33  C   LIG    1       24.370 -19.143   4.132  0.00  0.00    +0.049 A 
ATOM     34 CL   LIG    1       25.800 -18.450   3.448  0.00  0.00    -0.083 Cl
ATOM     35  C   LIG    1       23.177 -18.431   3.925  0.00  0.00    +0.020 A 
ATOM     36  C   LIG    1       21.961 -18.960   4.344  0.00  0.00    +0.001 A 
ATOM     37  C   LIG    1       21.934 -20.216   4.932  0.00  0.00    +0.001 A 
ATOM     38  C   LIG    1       23.125 -20.915   5.147  0.00  0.00    +0.010 A 
ENDBRANCH  31  32
ENDBRANCH  26  31
ENDBRANCH  25  26
ENDBRANCH  24  25
ENDBRANCH   1  24
TORSDOF 15
ENDMDL
MODEL 4
REMARK VINA RESULT:      -7.7      2.229      4.316
REMARK  Name = *****
REMARK                            x       y       z     vdW  Elec       q    Type
REMARK                         _______ _______ _______ _____ _____    ______ ____
ROOT
ATOM      1  N   LIG    1       25.595 -28.286   7.160  0.00  0.00    -0.302 N 
ATOM      2  H   LIG    1       26.340 -27.734   7.572  0.00  0.00    +0.149 HD
ATOM      3  C   LIG    1       24.987 -27.782   6.019  0.00  0.00    +0.299 C 
ATOM      4  O   LIG    1       24.047 -28.298   5.453  0.00  0.00    -0.265 OA
ENDROOT
BRANCH   3   5
ATOM      5  C   LIG    1       25.540 -26.418   5.572  0.00  0.00    +0.299 C 
ATOM      6  N   LIG    1       24.586 -25.553   5.074  0.00  0.00    -0.302 N 
ATOM      7  H   LIG    1       23.636 -25.920   4.989  0.00  0.00    +0.149 HD
ATOM      8  O   LIG    1       26.715 -26.156   5.759  0.00  0.00    -0.265 OA
BRANCH   6   9
ATOM      9  C   LIG    1       24.846 -24.196   4.597  0.00  0.00    +0.155 C 
BRANCH   9  10
ATOM     10  C   LIG    1       24.969 -23.129   5.703  0.00  0.00    +0.152 C 
BRANCH  10  11
ATOM     11  N   LIG    1       24.208 -21.796   5.499  0.00  0.00    +0.247 N 
BRANCH  11  12
ATOM     12  C   LIG    1       22.726 -21.925   5.966  0.00  0.00    +0.130 C 
ATOM     13  C   LIG    1       22.439 -23.120   6.873  0.00  0.00    +0.060 C 
ENDBRANCH  11  12
BRANCH  11  14
ATOM     14  C   LIG    1       24.215 -21.506   3.967  0.00  0.00    +0.130 C 
ATOM     15  C   LIG    1       24.134 -20.028   3.596  0.00  0.00    +0.060 C 
ENDBRANCH  11  14
BRANCH  11  16
ATOM     16  C   LIG    1       24.928 -20.665   6.309  0.00  0.00    +0.171 C 
BRANCH  16  17
ATOM     17  C   LIG    1       26.424 -20.699   6.543  0.00  0.00    +0.015 A 
ATOM     18  C   LIG    1       27.022 -21.274   7.682  0.00  0.00    +0.049 A 
ATOM     19 CL   LIG    1       26.115 -21.973   8.968  0.00  0.00    -0.083 Cl
ATOM     20  C   LIG    1       28.404 -21.219   7.883  0.00  0.00    +0.020 A 
ATOM     21  C   LIG    1       29.220 -20.545   6.982  0.00  0.00    +0.001 A 
ATOM     22  C   LIG    1       28.650 -19.915   5.882  0.00  0.00    +0.001 A 
ATOM     23  C   LIG    1       27.270 -19.993   5.663  0.00  0.00    +0.010 A 
ENDBRANCH  16  17
ENDBRANCH  11  16
ENDBRANCH  10  11
ENDBRANCH   9  10
ENDBRANCH   6   9
ENDBRANCH   3   5
BRANCH   1  24
ATOM     24  C   LIG    1       25.205 -29.571   7.756  0.00  0.00    +0.155 C 
BRANCH  24  25
ATOM     25  C   LIG    1       24.709 -29.370   9.206  0.00  0.00    +0.152 C 
BRANCH  25  26
ATOM     26  N   LIG    1       25.632 -29.784  10.381  0.00  0.00    +0.247 N 
BRANCH  26  28
ATOM     27  C   LIG    1       25.517 -32.371  10.456  0.00  0.00    +0.060 C 
ATOM     28  C   LIG    1       26.297 -31.144   9.972  0.00  0.00    +0.130 C 
ENDBRANCH  26  28
BRANCH  26  29
ATOM     29  C   LIG    1       26.724 -28.686  10.591  0.00  0.00    +0.130 C 
ATOM     30  C   LIG    1       27.930 -29.141  11.417  0.00  0.00    +0.060 C 
ENDBRANCH  26  29
BRANCH  26  31
ATOM     31  C   LIG    1       24.871 -29.983  11.754  0.00  0.00    +0.171 C 
BRANCH  31  32
ATOM     32  C   LIG    1       23.909 -28.921  12.263  0.00  0.00    +0.015 A 
ATOM     33  C   LIG    1       22.508 -29.066  12.178  0.00  0.00    +0.049 A 
ATOM     34 CL   LIG    1       21.761 -30.497  11.556  0.00  0.00    -0.083 Cl
ATOM     35  C   LIG    1       21.639 -28.072  12.657  0.00  0.00    +0.020 A 
ATOM     36  C   LIG    1       22.145 -26.932  13.273  0.00  0.00    +0.001 A 
ATOM     37  C   LIG    1       23.515 -26.806  13.446  0.00  0.00    +0.001 A 
ATOM     38  C   LIG    1       24.377 -27.793  12.957  0.00  0.00    +0.010 A 
ENDBRANCH  31  32
ENDBRANCH  26  31
ENDBRANCH  25  26
ENDBRANCH  24  25
ENDBRANCH   1  24
TORSDOF 15
ENDMDL
MODEL 5
REMARK VINA RESULT:      -7.7      1.685      3.386
REMARK  Name = *****
REMARK                            x       y       z     vdW  Elec       q    Type
REMARK                         _______ _______ _______ _____ _____    ______ ____
ROOT
ATOM      1  N   LIG    1       25.955 -28.793   5.620  0.00  0.00    -0.302 N 
ATOM      2  H   LIG    1       26.960 -28.668   5.689  0.00  0.00    +0.149 HD
ATOM      3  C   LIG    1       25.166 -27.653   5.691  0.00  0.00    +0.299 C 
ATOM      4  O   LIG    1       23.953 -27.652   5.683  0.00  0.00    -0.265 OA
ENDROOT
BRANCH   3   5
ATOM      5  C   LIG    1       25.966 -26.357   5.898  0.00  0.00    +0.299 C 
ATOM      6  N   LIG    1       25.241 -25.325   6.461  0.00  0.00    -0.302 N 
ATOM      7  H   LIG    1       24.247 -25.499   6.619  0.00  0.00    +0.149 HD
ATOM      8  O   LIG    1       27.159 -26.342   5.651  0.00  0.00    -0.265 OA
BRANCH   6   9
ATOM      9  C   LIG    1       25.769 -23.998   6.774  0.00  0.00    +0.155 C 
BRANCH   9  10
ATOM     10  C   LIG    1       25.297 -22.871   5.834  0.00  0.00    +0.152 C 
BRANCH  10  11
ATOM     11  N   LIG    1       24.293 -21.838   6.403  0.00  0.00    +0.247 N 
BRANCH  11  12
ATOM     12  C   LIG    1       23.262 -22.526   7.347  0.00  0.00    +0.130 C 
ATOM     13  C   LIG    1       22.264 -23.449   6.648  0.00  0.00    +0.060 C 
ENDBRANCH  11  12
BRANCH  11  14
ATOM     14  C   LIG    1       23.521 -21.247   5.184  0.00  0.00    +0.130 C 
ATOM     15  C   LIG    1       22.795 -19.933   5.463  0.00  0.00    +0.060 C 
ENDBRANCH  11  14
BRANCH  11  16
ATOM     16  C   LIG    1       25.082 -20.732   7.184  0.00  0.00    +0.171 C 
BRANCH  16  17
ATOM     17  C   LIG    1       26.578 -20.572   7.018  0.00  0.00    +0.015 A 
ATOM     18  C   LIG    1       27.181 -20.026   5.868  0.00  0.00    +0.049 A 
ATOM     19 CL   LIG    1       26.285 -19.513   4.490  0.00  0.00    -0.083 Cl
ATOM     20  C   LIG    1       28.572 -19.962   5.736  0.00  0.00    +0.020 A 
ATOM     21  C   LIG    1       29.396 -20.489   6.724  0.00  0.00    +0.001 A 
ATOM     22  C   LIG    1       28.828 -21.089   7.841  0.00  0.00    +0.001 A 
ATOM     23  C   LIG    1       27.437 -21.128   7.989  0.00  0.00    +0.010 A 
ENDBRANCH  16  17
ENDBRANCH  11  16
ENDBRANCH  10  11
ENDBRANCH   9  10
ENDBRANCH   6   9
ENDBRANCH   3   5
BRANCH   1  24
ATOM     24  C   LIG    1       25.385 -30.134   5.435  0.00  0.00    +0.155 C 
BRANCH  24  25
ATOM     25  C   LIG    1       25.066 -30.783   6.801  0.00  0.00    +0.152 C 
BRANCH  25  26
ATOM     26  N   LIG    1       25.814 -32.079   7.210  0.00  0.00    +0.247 N 
BRANCH  26  28
ATOM     27  C   LIG    1       23.425 -32.638   8.044  0.00  0.00    +0.060 C 
ATOM     28  C   LIG    1       24.718 -33.181   7.425  0.00  0.00    +0.130 C 
ENDBRANCH  26  28
BRANCH  26  29
ATOM     29  C   LIG    1       26.787 -32.497   6.061  0.00  0.00    +0.130 C 
ATOM     30  C   LIG    1       28.080 -33.164   6.537  0.00  0.00    +0.060 C 
ENDBRANCH  26  29
BRANCH  26  31
ATOM     31  C   LIG    1       26.660 -31.938   8.539  0.00  0.00    +0.171 C 
BRANCH  31  32
ATOM     32  C   LIG    1       26.329 -30.853   9.552  0.00  0.00    +0.015 A 
ATOM     33  C   LIG    1       25.645 -31.126  10.755  0.00  0.00    +0.049 A 
ATOM     34 CL   LIG    1       25.189 -32.729  11.218  0.00  0.00    -0.083 Cl
ATOM     35  C   LIG    1       25.351 -30.108  11.677  0.00  0.00    +0.020 A 
ATOM     36  C   LIG    1       25.774 -28.803  11.443  0.00  0.00    +0.001 A 
ATOM     37  C   LIG    1       26.523 -28.526  10.309  0.00  0.00    +0.001 A 
ATOM     38  C   LIG    1       26.803 -29.541   9.389  0.00  0.00    +0.010 A 
ENDBRANCH  31  32
ENDBRANCH  26  31
ENDBRANCH  25  26
ENDBRANCH  24  25
ENDBRANCH   1  24
TORSDOF 15
ENDMDL
MODEL 6
REMARK VINA RESULT:      -7.7      1.747     10.350
REMARK  Name = *****
REMARK                            x       y       z     vdW  Elec       q    Type
REMARK                         _______ _______ _______ _____ _____    ______ ____
ROOT
ATOM      1  N   LIG    1       25.082 -24.525   4.963  0.00  0.00    -0.302 N 
ATOM      2  H   LIG    1       25.799 -24.857   4.325  0.00  0.00    +0.149 HD
ATOM      3  C   LIG    1       24.421 -25.477   5.727  0.00  0.00    +0.299 C 
ATOM      4  O   LIG    1       23.505 -25.238   6.485  0.00  0.00    -0.265 OA
ENDROOT
BRANCH   3   5
ATOM      5  C   LIG    1       24.875 -26.919   5.450  0.00  0.00    +0.299 C 
ATOM      6  N   LIG    1       23.979 -27.887   5.860  0.00  0.00    -0.302 N 
ATOM      7  H   LIG    1       23.149 -27.559   6.359  0.00  0.00    +0.149 HD
ATOM      8  O   LIG    1       25.907 -27.116   4.832  0.00  0.00    -0.265 OA
BRANCH   6   9
ATOM      9  C   LIG    1       24.164 -29.328   5.702  0.00  0.00    +0.155 C 
BRANCH   9  10
ATOM     10  C   LIG    1       25.099 -29.983   6.738  0.00  0.00    +0.152 C 
BRANCH  10  11
ATOM     11  N   LIG    1       25.116 -31.530   6.809  0.00  0.00    +0.247 N 
BRANCH  11  12
ATOM     12  C   LIG    1       26.298 -32.112   5.977  0.00  0.00    +0.130 C 
ATOM     13  C   LIG    1       26.017 -32.270   4.483  0.00  0.00    +0.060 C 
ENDBRANCH  11  12
BRANCH  11  14
ATOM     14  C   LIG    1       23.781 -32.023   6.173  0.00  0.00    +0.130 C 
ATOM     15  C   LIG    1       23.190 -33.275   6.815  0.00  0.00    +0.060 C 
ENDBRANCH  11  14
BRANCH  11  16
ATOM     16  C   LIG    1       25.245 -31.973   8.306  0.00  0.00    +0.171 C 
BRANCH  16  17
ATOM     17  C   LIG    1       25.632 -30.985   9.386  0.00  0.00    +0.015 A 
ATOM     18  C   LIG    1       24.698 -30.224  10.117  0.00  0.00    +0.049 A 
ATOM     19 CL   LIG    1       23.001 -30.298   9.839  0.00  0.00    -0.083 Cl
ATOM     20  C   LIG    1       25.111 -29.274  11.057  0.00  0.00    +0.020 A 
ATOM     21  C   LIG    1       26.464 -29.022  11.254  0.00  0.00    +0.001 A 
ATOM     22  C   LIG    1       27.406 -29.714  10.502  0.00  0.00    +0.001 A 
ATOM     23  C   LIG    1       26.996 -30.685   9.581  0.00  0.00    +0.010 A 
ENDBRANCH  16  17
ENDBRANCH  11  16
ENDBRANCH  10  11
ENDBRANCH   9  10
ENDBRANCH   6   9
ENDBRANCH   3   5
BRANCH   1  24
ATOM     24  C   LIG    1       24.789 -23.090   5.068  0.00  0.00    +0.155 C 
BRANCH  24  25
ATOM     25  C   LIG    1       25.543 -22.467   6.265  0.00  0.00    +0.152 C 
BRANCH  25  26
ATOM     26  N   LIG    1       25.735 -20.929   6.315  0.00  0.00    +0.247 N 
BRANCH  26  28
ATOM     27  C   LIG    1       23.210 -20.375   6.490  0.00  0.00    +0.060 C 
ATOM     28  C   LIG    1       24.475 -20.297   5.627  0.00  0.00    +0.130 C 
ENDBRANCH  26  28
BRANCH  26  29
ATOM     29  C   LIG    1       25.827 -20.470   7.806  0.00  0.00    +0.130 C 
ATOM     30  C   LIG    1       25.746 -21.609   8.826  0.00  0.00    +0.060 C 
ENDBRANCH  26  29
BRANCH  26  31
ATOM     31  C   LIG    1       27.032 -20.420   5.566  0.00  0.00    +0.171 C 
BRANCH  31  32
ATOM     32  C   LIG    1       28.350 -20.288   6.313  0.00  0.00    +0.015 A 
ATOM     33  C   LIG    1       29.221 -19.194   6.123  0.00  0.00    +0.049 A 
ATOM     34 CL   LIG    1       28.831 -17.871   5.079  0.00  0.00    -0.083 Cl
ATOM     35  C   LIG    1       30.433 -19.092   6.826  0.00  0.00    +0.020 A 
ATOM     36  C   LIG    1       30.781 -20.054   7.769  0.00  0.00    +0.001 A 
ATOM     37  C   LIG    1       29.902 -21.092   8.037  0.00  0.00    +0.001 A 
ATOM     38  C   LIG    1       28.703 -21.196   7.326  0.00  0.00    +0.010 A 
ENDBRANCH  31  32
ENDBRANCH  26  31
ENDBRANCH  25  26
ENDBRANCH  24  25
ENDBRANCH   1  24
TORSDOF 15
ENDMDL
MODEL 7
REMARK VINA RESULT:      -7.7      1.564     10.204
REMARK  Name = *****
REMARK                            x       y       z     vdW  Elec       q    Type
REMARK                         _______ _______ _______ _____ _____    ______ ____
ROOT
ATOM      1  N   LIG    1       25.214 -25.312   6.594  0.00  0.00    -0.302 N 
ATOM      2  H   LIG    1       24.260 -25.497   6.884  0.00  0.00    +0.149 HD
ATOM      3  C   LIG    1       25.907 -26.349   5.986  0.00  0.00    +0.299 C 
ATOM      4  O   LIG    1       27.069 -26.295   5.642  0.00  0.00    -0.265 OA
ENDROOT
BRANCH   3   5
ATOM      5  C   LIG    1       25.100 -27.653   5.875  0.00  0.00    +0.299 C 
ATOM      6  N   LIG    1       25.852 -28.761   5.536  0.00  0.00    -0.302 N 
ATOM      7  H   LIG    1       26.839 -28.597   5.329  0.00  0.00    +0.149 HD
ATOM      8  O   LIG    1       23.917 -27.654   6.169  0.00  0.00    -0.265 OA
BRANCH   6   9
ATOM      9  C   LIG    1       25.330 -30.117   5.382  0.00  0.00    +0.155 C 
BRANCH   9  10
ATOM     10  C   LIG    1       24.937 -30.819   6.697  0.00  0.00    +0.152 C 
BRANCH  10  11
ATOM     11  N   LIG    1       25.419 -32.276   6.903  0.00  0.00    +0.247 N 
BRANCH  11  12
ATOM     12  C   LIG    1       26.587 -32.618   5.930  0.00  0.00    +0.130 C 
ATOM     13  C   LIG    1       27.883 -33.057   6.611  0.00  0.00    +0.060 C 
ENDBRANCH  11  12
BRANCH  11  14
ATOM     14  C   LIG    1       24.211 -33.200   6.560  0.00  0.00    +0.130 C 
ATOM     15  C   LIG    1       24.175 -33.698   5.117  0.00  0.00    +0.060 C 
ENDBRANCH  11  14
BRANCH  11  16
ATOM     16  C   LIG    1       25.887 -32.457   8.387  0.00  0.00    +0.171 C 
BRANCH  16  17
ATOM     17  C   LIG    1       25.861 -31.300   9.364  0.00  0.00    +0.015 A 
ATOM     18  C   LIG    1       24.704 -30.889  10.056  0.00  0.00    +0.049 A 
ATOM     19 CL   LIG    1       23.166 -31.633   9.840  0.00  0.00    -0.083 Cl
ATOM     20  C   LIG    1       24.718 -29.771  10.896  0.00  0.00    +0.020 A 
ATOM     21  C   LIG    1       25.870 -29.004  11.026  0.00  0.00    +0.001 A 
ATOM     22  C   LIG    1       27.007 -29.350  10.307  0.00  0.00    +0.001 A 
ATOM     23  C   LIG    1       27.005 -30.485   9.488  0.00  0.00    +0.010 A 
ENDBRANCH  16  17
ENDBRANCH  11  16
ENDBRANCH  10  11
ENDBRANCH   9  10
ENDBRANCH   6   9
ENDBRANCH   3   5
BRANCH   1  24
ATOM     24  C   LIG    1       25.810 -23.986   6.805  0.00  0.00    +0.155 C 
BRANCH  24  25
ATOM     25  C   LIG    1       25.233 -22.964   5.800  0.00  0.00    +0.152 C 
BRANCH  25  26
ATOM     26  N   LIG    1       24.302 -21.838   6.323  0.00  0.00    +0.247 N 
BRANCH  26  28
ATOM     27  C   LIG    1       22.755 -19.985   5.384  0.00  0.00    +0.060 C 
ATOM     28  C   LIG    1       23.564 -21.249   5.071  0.00  0.00    +0.130 C 
ENDBRANCH  26  28
BRANCH  26  29
ATOM     29  C   LIG    1       23.270 -22.448   7.326  0.00  0.00    +0.130 C 
ATOM     30  C   LIG    1       22.288 -23.441   6.698  0.00  0.00    +0.060 C 
ENDBRANCH  26  29
BRANCH  26  31
ATOM     31  C   LIG    1       25.067 -20.666   7.061  0.00  0.00    +0.171 C 
BRANCH  31  32
ATOM     32  C   LIG    1       26.572 -20.511   6.907  0.00  0.00    +0.015 A 
ATOM     33  C   LIG    1       27.162 -19.991   5.737  0.00  0.00    +0.049 A 
ATOM     34 CL   LIG    1       26.224 -19.415   4.403  0.00  0.00    -0.083 Cl
ATOM     35  C   LIG    1       28.555 -19.854   5.618  0.00  0.00    +0.020 A 
ATOM     36  C   LIG    1       29.388 -20.190   6.681  0.00  0.00    +0.001 A 
ATOM     37  C   LIG    1       28.826 -20.621   7.873  0.00  0.00    +0.001 A 
ATOM     38  C   LIG    1       27.440 -20.766   7.982  0.00  0.00    +0.010 A 
ENDBRANCH  31  32
ENDBRANCH  26  31
ENDBRANCH  25  26
ENDBRANCH  24  25
ENDBRANCH   1  24
TORSDOF 15
ENDMDL
MODEL 8
REMARK VINA RESULT:      -7.7      2.138      9.994
REMARK  Name = *****
REMARK                            x       y       z     vdW  Elec       q    Type
REMARK                         _______ _______ _______ _____ _____    ______ ____
ROOT
ATOM      1  N   LIG    1       25.324 -25.247   6.749  0.00  0.00    -0.302 N 
ATOM      2  H   LIG    1       24.411 -25.412   7.162  0.00  0.00    +0.149 HD
ATOM      3  C   LIG    1       25.953 -26.327   6.145  0.00  0.00    +0.299 C 
ATOM      4  O   LIG    1       27.066 -26.296   5.664  0.00  0.00    -0.265 OA
ENDROOT
BRANCH   3   5
ATOM      5  C   LIG    1       25.155 -27.637   6.232  0.00  0.00    +0.299 C 
ATOM      6  N   LIG    1       25.511 -28.452   7.289  0.00  0.00    -0.302 N 
ATOM      7  H   LIG    1       26.300 -28.142   7.858  0.00  0.00    +0.149 HD
ATOM      8  O   LIG    1       24.235 -27.833   5.456  0.00  0.00    -0.265 OA
BRANCH   6   9
ATOM      9  C   LIG    1       24.898 -29.742   7.601  0.00  0.00    +0.155 C 
BRANCH   9  10
ATOM     10  C   LIG    1       24.629 -29.990   9.099  0.00  0.00    +0.152 C 
BRANCH  10  11
ATOM     11  N   LIG    1       25.367 -31.172   9.772  0.00  0.00    +0.247 N 
BRANCH  11  12
ATOM     12  C   LIG    1       26.785 -31.367   9.156  0.00  0.00    +0.130 C 
ATOM     13  C   LIG    1       27.039 -32.747   8.550  0.00  0.00    +0.060 C 
ENDBRANCH  11  12
BRANCH  11  14
ATOM     14  C   LIG    1       24.526 -32.451   9.479  0.00  0.00    +0.130 C 
ATOM     15  C   LIG    1       23.018 -32.277   9.642  0.00  0.00    +0.060 C 
ENDBRANCH  11  14
BRANCH  11  16
ATOM     16  C   LIG    1       25.485 -30.894  11.310  0.00  0.00    +0.171 C 
BRANCH  16  17
ATOM     17  C   LIG    1       25.413 -29.486  11.860  0.00  0.00    +0.015 A 
ATOM     18  C   LIG    1       26.526 -28.627  11.953  0.00  0.00    +0.049 A 
ATOM     19 CL   LIG    1       28.116 -29.095  11.487  0.00  0.00    -0.083 Cl
ATOM     20  C   LIG    1       26.420 -27.359  12.532  0.00  0.00    +0.020 A 
ATOM     21  C   LIG    1       25.215 -26.935  13.080  0.00  0.00    +0.001 A 
ATOM     22  C   LIG    1       24.116 -27.786  13.058  0.00  0.00    +0.001 A 
ATOM     23  C   LIG    1       24.212 -29.045  12.454  0.00  0.00    +0.010 A 
ENDBRANCH  16  17
ENDBRANCH  11  16
ENDBRANCH  10  11
ENDBRANCH   9  10
ENDBRANCH   6   9
ENDBRANCH   3   5
BRANCH   1  24
ATOM     24  C   LIG    1       25.924 -23.906   6.785  0.00  0.00    +0.155 C 
BRANCH  24  25
ATOM     25  C   LIG    1       25.225 -22.970   5.774  0.00  0.00    +0.152 C 
BRANCH  25  26
ATOM     26  N   LIG    1       24.279 -21.861   6.305  0.00  0.00    +0.247 N 
BRANCH  26  28
ATOM     27  C   LIG    1       22.732 -20.009   5.364  0.00  0.00    +0.060 C 
ATOM     28  C   LIG    1       23.510 -21.294   5.061  0.00  0.00    +0.130 C 
ENDBRANCH  26  28
BRANCH  26  29
ATOM     29  C   LIG    1       23.275 -22.486   7.326  0.00  0.00    +0.130 C 
ATOM     30  C   LIG    1       22.293 -23.490   6.716  0.00  0.00    +0.060 C 
ENDBRANCH  26  29
BRANCH  26  31
ATOM     31  C   LIG    1       25.030 -20.669   7.025  0.00  0.00    +0.171 C 
BRANCH  31  32
ATOM     32  C   LIG    1       26.535 -20.507   6.880  0.00  0.00    +0.015 A 
ATOM     33  C   LIG    1       27.130 -19.997   5.707  0.00  0.00    +0.049 A 
ATOM     34 CL   LIG    1       26.197 -19.442   4.360  0.00  0.00    -0.083 Cl
ATOM     35  C   LIG    1       28.523 -19.853   5.596  0.00  0.00    +0.020 A 
ATOM     36  C   LIG    1       29.351 -20.171   6.668  0.00  0.00    +0.001 A 
ATOM     37  C   LIG    1       28.783 -20.592   7.862  0.00  0.00    +0.001 A 
ATOM     38  C   LIG    1       27.397 -20.744   7.963  0.00  0.00    +0.010 A 
ENDBRANCH  31  32
ENDBRANCH  26  31
ENDBRANCH  25  26
ENDBRANCH  24  25
ENDBRANCH   1  24
TORSDOF 15
ENDMDL
MODEL 9
REMARK VINA RESULT:      -7.6      2.517      9.987
REMARK  Name = *****
REMARK                            x       y       z     vdW  Elec       q    Type
REMARK                         _______ _______ _______ _____ _____    ______ ____
ROOT
ATOM      1  N   LIG    1       24.610 -26.317   5.834  0.00  0.00    -0.302 N 
ATOM      2  H   LIG    1       23.773 -26.309   6.409  0.00  0.00    +0.149 HD
ATOM      3  C   LIG    1       25.214 -27.546   5.606  0.00  0.00    +0.299 C 
ATOM      4  O   LIG    1       26.248 -27.703   4.992  0.00  0.00    -0.265 OA
ENDROOT
BRANCH   3   5
ATOM      5  C   LIG    1       24.511 -28.721   6.305  0.00  0.00    +0.299 C 
ATOM      6  N   LIG    1       24.953 -28.964   7.591  0.00  0.00    -0.302 N 
ATOM      7  H   LIG    1       25.734 -28.394   7.921  0.00  0.00    +0.149 HD
ATOM      8  O   LIG    1       23.587 -29.286   5.748  0.00  0.00    -0.265 OA
BRANCH   6   9
ATOM      9  C   LIG    1       24.440 -30.011   8.473  0.00  0.00    +0.155 C 
BRANCH   9  10
ATOM     10  C   LIG    1       24.288 -29.600   9.952  0.00  0.00    +0.152 C 
BRANCH  10  11
ATOM     11  N   LIG    1       25.209 -30.293  10.985  0.00  0.00    +0.247 N 
BRANCH  11  12
ATOM     12  C   LIG    1       26.700 -29.908  10.748  0.00  0.00    +0.130 C 
ATOM     13  C   LIG    1       26.961 -28.410  10.589  0.00  0.00    +0.060 C 
ENDBRANCH  11  12
BRANCH  11  14
ATOM     14  C   LIG    1       25.059 -31.828  10.762  0.00  0.00    +0.130 C 
ATOM     15  C   LIG    1       23.701 -32.403  11.156  0.00  0.00    +0.060 C 
ENDBRANCH  11  14
BRANCH  11  16
ATOM     16  C   LIG    1       24.770 -29.870  12.429  0.00  0.00    +0.171 C 
BRANCH  16  17
ATOM     17  C   LIG    1       23.761 -28.762  12.648  0.00  0.00    +0.015 A 
ATOM     18  C   LIG    1       24.098 -27.490  13.153  0.00  0.00    +0.049 A 
ATOM     19 CL   LIG    1       25.698 -27.057  13.620  0.00  0.00    -0.083 Cl
ATOM     20  C   LIG    1       23.119 -26.524  13.402  0.00  0.00    +0.020 A 
ATOM     21  C   LIG    1       21.775 -26.819  13.204  0.00  0.00    +0.001 A 
ATOM     22  C   LIG    1       21.409 -28.085  12.766  0.00  0.00    +0.001 A 
ATOM     23  C   LIG    1       22.389 -29.045  12.489  0.00  0.00    +0.010 A 
ENDBRANCH  16  17
ENDBRANCH  11  16
ENDBRANCH  10  11
ENDBRANCH   9  10
ENDBRANCH   6   9
ENDBRANCH   3   5
BRANCH   1  24
ATOM     24  C   LIG    1       25.132 -25.067   5.265  0.00  0.00    +0.155 C 
BRANCH  24  25
ATOM     25  C   LIG    1       25.518 -24.078   6.388  0.00  0.00    +0.152 C 
BRANCH  25  26
ATOM     26  N   LIG    1       24.995 -22.619   6.319  0.00  0.00    +0.247 N 
BRANCH  26  28
ATOM     27  C   LIG    1       22.619 -23.485   6.881  0.00  0.00    +0.060 C 
ATOM     28  C   LIG    1       23.758 -22.540   7.280  0.00  0.00    +0.130 C 
ENDBRANCH  26  28
BRANCH  26  29
ATOM     29  C   LIG    1       26.119 -21.645   6.798  0.00  0.00    +0.130 C 
ATOM     30  C   LIG    1       25.698 -20.699   7.926  0.00  0.00    +0.060 C 
ENDBRANCH  26  29
BRANCH  26  31
ATOM     31  C   LIG    1       24.544 -22.168   4.871  0.00  0.00    +0.171 C 
BRANCH  31  32
ATOM     32  C   LIG    1       23.803 -20.855   4.669  0.00  0.00    +0.015 A 
ATOM     33  C   LIG    1       24.450 -19.683   4.226  0.00  0.00    +0.049 A 
ATOM     34 CL   LIG    1       26.127 -19.654   3.803  0.00  0.00    -0.083 Cl
ATOM     35  C   LIG    1       23.745 -18.481   4.044  0.00  0.00    +0.020 A 
ATOM     36  C   LIG    1       22.371 -18.434   4.255  0.00  0.00    +0.001 A 
ATOM     37  C   LIG    1       21.698 -19.595   4.607  0.00  0.00    +0.001 A 
ATOM     38  C   LIG    1       22.406 -20.785   4.797  0.00  0.00    +0.010 A 
ENDBRANCH  31  32
ENDBRANCH  26  31
ENDBRANCH  25  26
ENDBRANCH  24  25
ENDBRANCH   1  24
TORSDOF 15
ENDMDL
