MODEL 1
REMARK VINA RESULT:      -8.4      0.000      0.000
REMARK  Name = *****
REMARK                            x       y       z     vdW  Elec       q    Type
REMARK                         _______ _______ _______ _____ _____    ______ ____
ROOT
ATOM      1  C   LIG    1       26.632 -20.199   7.130  0.00  0.00    -0.000 C 
ATOM      2  C   LIG    1       25.574 -20.282   6.288  0.00  0.00    -0.066 C 
ATOM      3  C   LIG    1       24.199 -20.797   6.698  0.00  0.00    +0.021 C 
ATOM      4  C   LIG    1       23.973 -21.379   8.106  0.00  0.00    +0.009 C 
ATOM      5  C   LIG    1       22.985 -22.523   7.944  0.00  0.00    +0.005 C 
ATOM      6  C   LIG    1       23.251 -23.114   6.551  0.00  0.00    -0.002 C 
ATOM      7  C   LIG    1       23.605 -21.844   5.695  0.00  0.00    -0.022 C 
ATOM      8  C   LIG    1       22.283 -21.226   5.143  0.00  0.00    +0.012 C 
ATOM      9  C   LIG    1       24.515 -22.109   4.478  0.00  0.00    +0.008 C 
ATOM     10  C   LIG    1       25.038 -20.824   3.840  0.00  0.00    +0.005 C 
ATOM     11  C   LIG    1       25.601 -19.812   4.845  0.00  0.00    +0.031 C 
ENDROOT
BRANCH   1  15
ATOM     12  C   LIG    1       30.701 -19.132   5.560  0.00  0.00    +0.012 C 
ATOM     13  C   LIG    1       30.367 -19.462   6.821  0.00  0.00    -0.051 C 
ATOM     14  C   LIG    1       29.131 -20.168   7.144  0.00  0.00    -0.042 C 
ATOM     15  C   LIG    1       27.926 -19.640   6.820  0.00  0.00    +0.004 C 
ATOM     16  C   LIG    1       29.376 -21.452   7.893  0.00  0.00    +0.066 C 
ATOM     17  C   LIG    1       30.247 -21.213   9.135  0.00  0.00    +0.119 C 
ATOM     18  C   LIG    1       31.542 -20.477   8.781  0.00  0.00    +0.036 C 
ATOM     19  C   LIG    1       31.263 -19.192   8.004  0.00  0.00    +0.037 C 
BRANCH  17  20
ATOM     20  O   LIG    1       30.569 -22.460   9.749  0.00  0.00    -0.392 OA
ATOM     21  H   LIG    1       31.338 -22.829   9.281  0.00  0.00    +0.210 HD
ENDBRANCH  17  20
ENDBRANCH   1  15
BRANCH   6  22
ATOM     22  C   LIG    1       24.210 -24.360   6.543  0.00  0.00    -0.010 C 
ATOM     23  C   LIG    1       25.668 -23.899   6.755  0.00  0.00    +0.008 C 
BRANCH  22  24
ATOM     24  C   LIG    1       24.110 -25.296   5.314  0.00  0.00    +0.003 C 
BRANCH  24  25
ATOM     25  C   LIG    1       25.461 -25.902   4.877  0.00  0.00    +0.000 C 
BRANCH  25  26
ATOM     26  C   LIG    1       25.587 -27.418   5.146  0.00  0.00    +0.003 C 
BRANCH  26  27
ATOM     27  C   LIG    1       24.836 -27.928   6.396  0.00  0.00    -0.017 C 
ATOM     28  C   LIG    1       25.745 -27.998   7.625  0.00  0.00    +0.007 C 
ATOM     29  C   LIG    1       24.183 -29.292   6.159  0.00  0.00    +0.007 C 
ENDBRANCH  26  27
ENDBRANCH  25  26
ENDBRANCH  24  25
ENDBRANCH  22  24
ENDBRANCH   6  22
TORSDOF 7
ENDMDL
MODEL 2
REMARK VINA RESULT:      -8.4      1.609      2.312
REMARK  Name = *****
REMARK                            x       y       z     vdW  Elec       q    Type
REMARK                         _______ _______ _______ _____ _____    ______ ____
ROOT
ATOM      1  C   LIG    1       27.376 -21.160   7.788  0.00  0.00    -0.000 C 
ATOM      2  C   LIG    1       26.600 -20.512   6.887  0.00  0.00    -0.066 C 
ATOM      3  C   LIG    1       25.086 -20.377   7.011  0.00  0.00    +0.021 C 
ATOM      4  C   LIG    1       24.330 -21.098   8.143  0.00  0.00    +0.009 C 
ATOM      5  C   LIG    1       22.999 -21.541   7.556  0.00  0.00    +0.005 C 
ATOM      6  C   LIG    1       23.269 -21.828   6.071  0.00  0.00    -0.002 C 
ATOM      7  C   LIG    1       24.322 -20.725   5.688  0.00  0.00    -0.022 C 
ATOM      8  C   LIG    1       23.561 -19.431   5.264  0.00  0.00    +0.012 C 
ATOM      9  C   LIG    1       25.260 -21.095   4.520  0.00  0.00    +0.008 C 
ATOM     10  C   LIG    1       26.420 -20.114   4.361  0.00  0.00    +0.005 C 
ATOM     11  C   LIG    1       27.140 -19.780   5.673  0.00  0.00    +0.031 C 
ENDROOT
BRANCH   1  15
ATOM     12  C   LIG    1       31.766 -21.665   8.591  0.00  0.00    +0.012 C 
ATOM     13  C   LIG    1       31.125 -20.549   8.195  0.00  0.00    -0.051 C 
ATOM     14  C   LIG    1       29.683 -20.378   8.348  0.00  0.00    -0.042 C 
ATOM     15  C   LIG    1       28.818 -21.243   7.768  0.00  0.00    +0.004 C 
ATOM     16  C   LIG    1       29.327 -19.148   9.142  0.00  0.00    +0.066 C 
ATOM     17  C   LIG    1       29.999 -17.897   8.559  0.00  0.00    +0.119 C 
ATOM     18  C   LIG    1       31.511 -18.088   8.409  0.00  0.00    +0.036 C 
ATOM     19  C   LIG    1       31.841 -19.353   7.619  0.00  0.00    +0.037 C 
BRANCH  17  20
ATOM     20  O   LIG    1       29.749 -16.774   9.403  0.00  0.00    -0.392 OA
ATOM     21  H   LIG    1       30.243 -16.017   9.040  0.00  0.00    +0.210 HD
ENDBRANCH  17  20
ENDBRANCH   1  15
BRANCH   6  22
ATOM     22  C   LIG    1       23.558 -23.338   5.741  0.00  0.00    -0.010 C 
ATOM     23  C   LIG    1       22.820 -24.245   6.749  0.00  0.00    +0.008 C 
BRANCH  22  24
ATOM     24  C   LIG    1       25.048 -23.746   5.635  0.00  0.00    +0.003 C 
BRANCH  24  25
ATOM     25  C   LIG    1       25.630 -24.335   6.939  0.00  0.00    +0.000 C 
BRANCH  25  26
ATOM     26  C   LIG    1       25.984 -25.836   6.847  0.00  0.00    +0.003 C 
BRANCH  26  27
ATOM     27  C   LIG    1       25.328 -26.595   5.673  0.00  0.00    -0.017 C 
ATOM     28  C   LIG    1       24.359 -27.676   6.155  0.00  0.00    +0.007 C 
ATOM     29  C   LIG    1       26.368 -27.216   4.736  0.00  0.00    +0.007 C 
ENDBRANCH  26  27
ENDBRANCH  25  26
ENDBRANCH  24  25
ENDBRANCH  22  24
ENDBRANCH   6  22
TORSDOF 7
ENDMDL
MODEL 3
REMARK VINA RESULT:      -7.6      5.435      9.449
REMARK  Name = *****
REMARK                            x       y       z     vdW  Elec       q    Type
REMARK                         _______ _______ _______ _____ _____    ______ ____
ROOT
ATOM      1  C   LIG    1       26.237 -28.951   9.652  0.00  0.00    -0.000 C 
ATOM      2  C   LIG    1       26.489 -28.737  10.965  0.00  0.00    -0.066 C 
ATOM      3  C   LIG    1       26.391 -29.818  12.036  0.00  0.00    +0.021 C 
ATOM      4  C   LIG    1       25.868 -31.222  11.681  0.00  0.00    +0.009 C 
ATOM      5  C   LIG    1       25.069 -31.699  12.883  0.00  0.00    +0.005 C 
ATOM      6  C   LIG    1       24.460 -30.437  13.511  0.00  0.00    -0.002 C 
ATOM      7  C   LIG    1       25.590 -29.364  13.304  0.00  0.00    -0.022 C 
ATOM      8  C   LIG    1       26.582 -29.441  14.505  0.00  0.00    +0.012 C 
ATOM      9  C   LIG    1       25.097 -27.903  13.225  0.00  0.00    +0.008 C 
ATOM     10  C   LIG    1       26.187 -26.937  12.765  0.00  0.00    +0.005 C 
ATOM     11  C   LIG    1       26.964 -27.412  11.532  0.00  0.00    +0.031 C 
ENDROOT
BRANCH   1  15
ATOM     12  C   LIG    1       26.041 -25.542   6.735  0.00  0.00    +0.012 C 
ATOM     13  C   LIG    1       25.900 -26.855   6.476  0.00  0.00    -0.051 C 
ATOM     14  C   LIG    1       25.582 -27.829   7.516  0.00  0.00    -0.042 C 
ATOM     15  C   LIG    1       26.398 -27.990   8.585  0.00  0.00    +0.004 C 
ATOM     16  C   LIG    1       24.333 -28.614   7.213  0.00  0.00    +0.066 C 
ATOM     17  C   LIG    1       24.406 -29.259   5.821  0.00  0.00    +0.119 C 
ATOM     18  C   LIG    1       24.733 -28.226   4.739  0.00  0.00    +0.036 C 
ATOM     19  C   LIG    1       25.992 -27.431   5.085  0.00  0.00    +0.037 C 
BRANCH  17  20
ATOM     20  O   LIG    1       23.162 -29.885   5.511  0.00  0.00    -0.392 OA
ATOM     21  H   LIG    1       23.360 -30.742   5.095  0.00  0.00    +0.210 HD
ENDBRANCH  17  20
ENDBRANCH   1  15
BRANCH   6  22
ATOM     22  C   LIG    1       22.988 -30.127  13.054  0.00  0.00    -0.010 C 
ATOM     23  C   LIG    1       22.102 -31.373  13.261  0.00  0.00    +0.008 C 
BRANCH  22  24
ATOM     24  C   LIG    1       22.816 -29.572  11.618  0.00  0.00    +0.003 C 
BRANCH  24  25
ATOM     25  C   LIG    1       22.284 -30.609  10.606  0.00  0.00    +0.000 C 
BRANCH  25  26
ATOM     26  C   LIG    1       23.131 -30.723   9.319  0.00  0.00    +0.003 C 
BRANCH  26  27
ATOM     27  C   LIG    1       23.422 -32.164   8.848  0.00  0.00    -0.017 C 
ATOM     28  C   LIG    1       23.226 -33.188   9.968  0.00  0.00    +0.007 C 
ATOM     29  C   LIG    1       24.829 -32.305   8.261  0.00  0.00    +0.007 C 
ENDBRANCH  26  27
ENDBRANCH  25  26
ENDBRANCH  24  25
ENDBRANCH  22  24
ENDBRANCH   6  22
TORSDOF 7
ENDMDL
MODEL 4
REMARK VINA RESULT:      -7.4      5.624     10.013
REMARK  Name = *****
REMARK                            x       y       z     vdW  Elec       q    Type
REMARK                         _______ _______ _______ _____ _____    ______ ____
ROOT
ATOM      1  C   LIG    1       26.228 -29.176   9.738  0.00  0.00    -0.000 C 
ATOM      2  C   LIG    1       26.557 -28.977  11.037  0.00  0.00    -0.066 C 
ATOM      3  C   LIG    1       26.546 -30.075  12.094  0.00  0.00    +0.021 C 
ATOM      4  C   LIG    1       26.030 -31.484  11.749  0.00  0.00    +0.009 C 
ATOM      5  C   LIG    1       25.316 -31.995  12.991  0.00  0.00    +0.005 C 
ATOM      6  C   LIG    1       24.722 -30.755  13.675  0.00  0.00    -0.002 C 
ATOM      7  C   LIG    1       25.816 -29.656  13.416  0.00  0.00    -0.022 C 
ATOM      8  C   LIG    1       26.882 -29.731  14.553  0.00  0.00    +0.012 C 
ATOM      9  C   LIG    1       25.292 -28.205  13.390  0.00  0.00    +0.008 C 
ATOM     10  C   LIG    1       26.332 -27.210  12.880  0.00  0.00    +0.005 C 
ATOM     11  C   LIG    1       27.041 -27.651  11.594  0.00  0.00    +0.031 C 
ENDROOT
BRANCH   1  15
ATOM     12  C   LIG    1       25.738 -25.773   6.850  0.00  0.00    +0.012 C 
ATOM     13  C   LIG    1       25.705 -27.091   6.580  0.00  0.00    -0.051 C 
ATOM     14  C   LIG    1       25.474 -28.096   7.614  0.00  0.00    -0.042 C 
ATOM     15  C   LIG    1       26.305 -28.197   8.679  0.00  0.00    +0.004 C 
ATOM     16  C   LIG    1       24.294 -28.980   7.308  0.00  0.00    +0.066 C 
ATOM     17  C   LIG    1       24.414 -29.605   5.911  0.00  0.00    +0.119 C 
ATOM     18  C   LIG    1       24.650 -28.540   4.837  0.00  0.00    +0.036 C 
ATOM     19  C   LIG    1       25.840 -27.646   5.184  0.00  0.00    +0.037 C 
BRANCH  17  20
ATOM     20  O   LIG    1       23.226 -30.330   5.599  0.00  0.00    -0.392 OA
ATOM     21  H   LIG    1       23.419 -31.277   5.715  0.00  0.00    +0.210 HD
ENDBRANCH  17  20
ENDBRANCH   1  15
BRANCH   6  22
ATOM     22  C   LIG    1       23.219 -30.468  13.315  0.00  0.00    -0.010 C 
ATOM     23  C   LIG    1       22.384 -31.753  13.491  0.00  0.00    +0.008 C 
BRANCH  22  24
ATOM     24  C   LIG    1       22.954 -29.835  11.926  0.00  0.00    +0.003 C 
BRANCH  24  25
ATOM     25  C   LIG    1       21.493 -29.383  11.712  0.00  0.00    +0.000 C 
BRANCH  25  26
ATOM     26  C   LIG    1       20.872 -28.668  12.932  0.00  0.00    +0.003 C 
BRANCH  26  27
ATOM     27  C   LIG    1       20.862 -27.125  12.855  0.00  0.00    -0.017 C 
ATOM     28  C   LIG    1       22.153 -26.511  13.398  0.00  0.00    +0.007 C 
ATOM     29  C   LIG    1       19.657 -26.521  13.582  0.00  0.00    +0.007 C 
ENDBRANCH  26  27
ENDBRANCH  25  26
ENDBRANCH  24  25
ENDBRANCH  22  24
ENDBRANCH   6  22
TORSDOF 7
ENDMDL
MODEL 5
REMARK VINA RESULT:      -7.3      1.156      2.057
REMARK  Name = *****
REMARK                            x       y       z     vdW  Elec       q    Type
REMARK                         _______ _______ _______ _____ _____    ______ ____
ROOT
ATOM      1  C   LIG    1       27.207 -21.289   7.239  0.00  0.00    -0.000 C 
ATOM      2  C   LIG    1       25.905 -21.501   6.934  0.00  0.00    -0.066 C 
ATOM      3  C   LIG    1       25.107 -22.710   7.411  0.00  0.00    +0.021 C 
ATOM      4  C   LIG    1       25.800 -23.844   8.189  0.00  0.00    +0.009 C 
ATOM      5  C   LIG    1       25.135 -25.137   7.745  0.00  0.00    +0.005 C 
ATOM      6  C   LIG    1       24.718 -24.915   6.283  0.00  0.00    -0.002 C 
ATOM      7  C   LIG    1       24.289 -23.403   6.268  0.00  0.00    -0.022 C 
ATOM      8  C   LIG    1       22.787 -23.303   6.676  0.00  0.00    +0.012 C 
ATOM      9  C   LIG    1       24.429 -22.697   4.903  0.00  0.00    +0.008 C 
ATOM     10  C   LIG    1       24.253 -21.183   5.000  0.00  0.00    +0.005 C 
ATOM     11  C   LIG    1       25.053 -20.533   6.135  0.00  0.00    +0.031 C 
ENDROOT
BRANCH   1  15
ATOM     12  C   LIG    1       29.960 -18.197   5.499  0.00  0.00    +0.012 C 
ATOM     13  C   LIG    1       29.962 -18.687   6.753  0.00  0.00    -0.051 C 
ATOM     14  C   LIG    1       29.311 -19.947   7.101  0.00  0.00    -0.042 C 
ATOM     15  C   LIG    1       27.985 -20.123   6.890  0.00  0.00    +0.004 C 
ATOM     16  C   LIG    1       30.257 -20.928   7.743  0.00  0.00    +0.066 C 
ATOM     17  C   LIG    1       30.981 -20.300   8.942  0.00  0.00    +0.119 C 
ATOM     18  C   LIG    1       31.663 -18.983   8.561  0.00  0.00    +0.036 C 
ATOM     19  C   LIG    1       30.685 -18.017   7.894  0.00  0.00    +0.037 C 
BRANCH  17  20
ATOM     20  O   LIG    1       31.961 -21.207   9.447  0.00  0.00    -0.392 OA
ATOM     21  H   LIG    1       32.571 -21.416   8.719  0.00  0.00    +0.210 HD
ENDBRANCH  17  20
ENDBRANCH   1  15
BRANCH   6  22
ATOM     22  C   LIG    1       25.748 -25.450   5.223  0.00  0.00    -0.010 C 
ATOM     23  C   LIG    1       25.029 -25.724   3.885  0.00  0.00    +0.008 C 
BRANCH  22  24
ATOM     24  C   LIG    1       26.593 -26.678   5.644  0.00  0.00    +0.003 C 
BRANCH  24  25
ATOM     25  C   LIG    1       25.867 -28.029   5.465  0.00  0.00    +0.000 C 
BRANCH  25  26
ATOM     26  C   LIG    1       24.814 -28.326   6.556  0.00  0.00    +0.003 C 
BRANCH  26  27
ATOM     27  C   LIG    1       25.275 -29.289   7.671  0.00  0.00    -0.017 C 
ATOM     28  C   LIG    1       24.099 -29.995   8.347  0.00  0.00    +0.007 C 
ATOM     29  C   LIG    1       26.129 -28.581   8.727  0.00  0.00    +0.007 C 
ENDBRANCH  26  27
ENDBRANCH  25  26
ENDBRANCH  24  25
ENDBRANCH  22  24
ENDBRANCH   6  22
TORSDOF 7
ENDMDL
MODEL 6
REMARK VINA RESULT:      -7.3      6.279     10.161
REMARK  Name = *****
REMARK                            x       y       z     vdW  Elec       q    Type
REMARK                         _______ _______ _______ _____ _____    ______ ____
ROOT
ATOM      1  C   LIG    1       23.633 -29.927   9.384  0.00  0.00    -0.000 C 
ATOM      2  C   LIG    1       23.408 -30.828  10.370  0.00  0.00    -0.066 C 
ATOM      3  C   LIG    1       22.882 -30.460  11.753  0.00  0.00    +0.021 C 
ATOM      4  C   LIG    1       22.688 -28.984  12.146  0.00  0.00    +0.009 C 
ATOM      5  C   LIG    1       23.054 -28.880  13.618  0.00  0.00    +0.005 C 
ATOM      6  C   LIG    1       24.143 -29.937  13.856  0.00  0.00    -0.002 C 
ATOM      7  C   LIG    1       23.695 -31.118  12.920  0.00  0.00    -0.022 C 
ATOM      8  C   LIG    1       22.693 -32.024  13.701  0.00  0.00    +0.012 C 
ATOM      9  C   LIG    1       24.836 -32.033  12.430  0.00  0.00    +0.008 C 
ATOM     10  C   LIG    1       24.392 -32.992  11.328  0.00  0.00    +0.005 C 
ATOM     11  C   LIG    1       23.587 -32.326  10.207  0.00  0.00    +0.031 C 
ENDROOT
BRANCH   1  15
ATOM     12  C   LIG    1       25.716 -31.048   5.566  0.00  0.00    +0.012 C 
ATOM     13  C   LIG    1       25.145 -29.869   5.876  0.00  0.00    -0.051 C 
ATOM     14  C   LIG    1       24.858 -29.476   7.253  0.00  0.00    -0.042 C 
ATOM     15  C   LIG    1       24.046 -30.227   8.033  0.00  0.00    +0.004 C 
ATOM     16  C   LIG    1       25.507 -28.168   7.628  0.00  0.00    +0.066 C 
ATOM     17  C   LIG    1       25.150 -27.062   6.625  0.00  0.00    +0.119 C 
ATOM     18  C   LIG    1       25.461 -27.486   5.187  0.00  0.00    +0.036 C 
ATOM     19  C   LIG    1       24.808 -28.824   4.842  0.00  0.00    +0.037 C 
BRANCH  17  20
ATOM     20  O   LIG    1       25.879 -25.875   6.932  0.00  0.00    -0.392 OA
ATOM     21  H   LIG    1       26.577 -25.776   6.261  0.00  0.00    +0.210 HD
ENDBRANCH  17  20
ENDBRANCH   1  15
BRANCH   6  22
ATOM     22  C   LIG    1       25.614 -29.387  13.777  0.00  0.00    -0.010 C 
ATOM     23  C   LIG    1       26.412 -29.847  15.015  0.00  0.00    +0.008 C 
BRANCH  22  24
ATOM     24  C   LIG    1       25.766 -27.859  13.572  0.00  0.00    +0.003 C 
BRANCH  24  25
ATOM     25  C   LIG    1       26.498 -27.472  12.269  0.00  0.00    +0.000 C 
BRANCH  25  26
ATOM     26  C   LIG    1       26.271 -28.459  11.104  0.00  0.00    +0.003 C 
BRANCH  26  27
ATOM     27  C   LIG    1       27.535 -29.201  10.614  0.00  0.00    -0.017 C 
ATOM     28  C   LIG    1       27.200 -30.545   9.965  0.00  0.00    +0.007 C 
ATOM     29  C   LIG    1       28.552 -29.409  11.739  0.00  0.00    +0.007 C 
ENDBRANCH  26  27
ENDBRANCH  25  26
ENDBRANCH  24  25
ENDBRANCH  22  24
ENDBRANCH   6  22
TORSDOF 7
ENDMDL
MODEL 7
REMARK VINA RESULT:      -7.2      4.691      9.276
REMARK  Name = *****
REMARK                            x       y       z     vdW  Elec       q    Type
REMARK                         _______ _______ _______ _____ _____    ______ ____
ROOT
ATOM      1  C   LIG    1       25.133 -29.050  11.883  0.00  0.00    -0.000 C 
ATOM      2  C   LIG    1       24.704 -30.263  11.458  0.00  0.00    -0.066 C 
ATOM      3  C   LIG    1       25.482 -31.149  10.491  0.00  0.00    +0.021 C 
ATOM      4  C   LIG    1       26.779 -30.637   9.838  0.00  0.00    +0.009 C 
ATOM      5  C   LIG    1       26.801 -31.202   8.426  0.00  0.00    +0.005 C 
ATOM      6  C   LIG    1       25.331 -31.307   7.993  0.00  0.00    -0.002 C 
ATOM      7  C   LIG    1       24.602 -31.716   9.325  0.00  0.00    -0.022 C 
ATOM      8  C   LIG    1       24.637 -33.269   9.460  0.00  0.00    +0.012 C 
ATOM      9  C   LIG    1       23.121 -31.293   9.416  0.00  0.00    +0.008 C 
ATOM     10  C   LIG    1       22.539 -31.477  10.816  0.00  0.00    +0.005 C 
ATOM     11  C   LIG    1       23.426 -30.926  11.938  0.00  0.00    +0.031 C 
ENDROOT
BRANCH   1  15
ATOM     12  C   LIG    1       22.832 -25.969  14.201  0.00  0.00    +0.012 C 
ATOM     13  C   LIG    1       24.146 -26.251  14.287  0.00  0.00    -0.051 C 
ATOM     14  C   LIG    1       24.863 -26.966  13.235  0.00  0.00    -0.042 C 
ATOM     15  C   LIG    1       24.482 -28.211  12.861  0.00  0.00    +0.004 C 
ATOM     16  C   LIG    1       26.043 -26.192  12.709  0.00  0.00    +0.066 C 
ATOM     17  C   LIG    1       26.974 -25.755  13.849  0.00  0.00    +0.119 C 
ATOM     18  C   LIG    1       26.210 -25.001  14.942  0.00  0.00    +0.036 C 
ATOM     19  C   LIG    1       25.008 -25.802  15.440  0.00  0.00    +0.037 C 
BRANCH  17  20
ATOM     20  O   LIG    1       28.009 -24.917  13.337  0.00  0.00    -0.392 OA
ATOM     21  H   LIG    1       28.184 -25.192  12.420  0.00  0.00    +0.210 HD
ENDBRANCH  17  20
ENDBRANCH   1  15
BRANCH   6  22
ATOM     22  C   LIG    1       24.809 -30.083   7.156  0.00  0.00    -0.010 C 
ATOM     23  C   LIG    1       25.152 -30.284   5.664  0.00  0.00    +0.008 C 
BRANCH  22  24
ATOM     24  C   LIG    1       25.264 -28.681   7.631  0.00  0.00    +0.003 C 
BRANCH  24  25
ATOM     25  C   LIG    1       25.085 -27.571   6.573  0.00  0.00    +0.000 C 
BRANCH  25  26
ATOM     26  C   LIG    1       25.976 -26.331   6.805  0.00  0.00    +0.003 C 
BRANCH  26  27
ATOM     27  C   LIG    1       25.378 -24.991   6.324  0.00  0.00    -0.017 C 
ATOM     28  C   LIG    1       25.893 -23.804   7.139  0.00  0.00    +0.007 C 
ATOM     29  C   LIG    1       23.847 -25.005   6.341  0.00  0.00    +0.007 C 
ENDBRANCH  26  27
ENDBRANCH  25  26
ENDBRANCH  24  25
ENDBRANCH  22  24
ENDBRANCH   6  22
TORSDOF 7
ENDMDL
MODEL 8
REMARK VINA RESULT:      -7.2      5.138     10.175
REMARK  Name = *****
REMARK                            x       y       z     vdW  Elec       q    Type
REMARK                         _______ _______ _______ _____ _____    ______ ____
ROOT
ATOM      1  C   LIG    1       23.590 -29.322  11.632  0.00  0.00    -0.000 C 
ATOM      2  C   LIG    1       23.686 -30.626  11.276  0.00  0.00    -0.066 C 
ATOM      3  C   LIG    1       24.911 -31.236  10.604  0.00  0.00    +0.021 C 
ATOM      4  C   LIG    1       26.090 -30.343  10.175  0.00  0.00    +0.009 C 
ATOM      5  C   LIG    1       26.622 -30.928   8.876  0.00  0.00    +0.005 C 
ATOM      6  C   LIG    1       25.408 -31.546   8.166  0.00  0.00    -0.002 C 
ATOM      7  C   LIG    1       24.559 -32.119   9.359  0.00  0.00    -0.022 C 
ATOM      8  C   LIG    1       25.059 -33.561   9.684  0.00  0.00    +0.012 C 
ATOM      9  C   LIG    1       23.043 -32.222   9.091  0.00  0.00    +0.008 C 
ATOM     10  C   LIG    1       22.241 -32.531  10.353  0.00  0.00    +0.005 C 
ATOM     11  C   LIG    1       22.615 -31.663  11.560  0.00  0.00    +0.031 C 
ENDROOT
BRANCH   1  15
ATOM     12  C   LIG    1       20.196 -26.822  13.178  0.00  0.00    +0.012 C 
ATOM     13  C   LIG    1       21.365 -27.090  13.789  0.00  0.00    -0.051 C 
ATOM     14  C   LIG    1       22.538 -27.562  13.060  0.00  0.00    -0.042 C 
ATOM     15  C   LIG    1       22.494 -28.712  12.347  0.00  0.00    +0.004 C 
ATOM     16  C   LIG    1       23.739 -26.673  13.258  0.00  0.00    +0.066 C 
ATOM     17  C   LIG    1       24.032 -26.458  14.749  0.00  0.00    +0.119 C 
ATOM     18  C   LIG    1       22.795 -25.958  15.500  0.00  0.00    +0.036 C 
ATOM     19  C   LIG    1       21.590 -26.866  15.264  0.00  0.00    +0.037 C 
BRANCH  17  20
ATOM     20  O   LIG    1       25.090 -25.513  14.905  0.00  0.00    -0.392 OA
ATOM     21  H   LIG    1       24.687 -24.654  15.122  0.00  0.00    +0.210 HD
ENDBRANCH  17  20
ENDBRANCH   1  15
BRANCH   6  22
ATOM     22  C   LIG    1       24.732 -30.611   7.098  0.00  0.00    -0.010 C 
ATOM     23  C   LIG    1       25.423 -30.793   5.730  0.00  0.00    +0.008 C 
BRANCH  22  24
ATOM     24  C   LIG    1       24.638 -29.108   7.462  0.00  0.00    +0.003 C 
BRANCH  24  25
ATOM     25  C   LIG    1       25.217 -28.165   6.385  0.00  0.00    +0.000 C 
BRANCH  25  26
ATOM     26  C   LIG    1       25.811 -26.857   6.950  0.00  0.00    +0.003 C 
BRANCH  26  27
ATOM     27  C   LIG    1       25.162 -25.558   6.423  0.00  0.00    -0.017 C 
ATOM     28  C   LIG    1       25.160 -25.493   4.894  0.00  0.00    +0.007 C 
ATOM     29  C   LIG    1       25.835 -24.306   6.992  0.00  0.00    +0.007 C 
ENDBRANCH  26  27
ENDBRANCH  25  26
ENDBRANCH  24  25
ENDBRANCH  22  24
ENDBRANCH   6  22
TORSDOF 7
ENDMDL
MODEL 9
REMARK VINA RESULT:      -7.0      2.330      7.350
REMARK  Name = *****
REMARK                            x       y       z     vdW  Elec       q    Type
REMARK                         _______ _______ _______ _____ _____    ______ ____
ROOT
ATOM      1  C   LIG    1       24.899 -24.237   5.772  0.00  0.00    -0.000 C 
ATOM      2  C   LIG    1       23.948 -23.285   5.924  0.00  0.00    -0.066 C 
ATOM      3  C   LIG    1       23.593 -22.260   4.853  0.00  0.00    +0.021 C 
ATOM      4  C   LIG    1       24.408 -22.180   3.549  0.00  0.00    +0.009 C 
ATOM      5  C   LIG    1       24.481 -20.708   3.178  0.00  0.00    +0.005 C 
ATOM      6  C   LIG    1       24.474 -19.938   4.507  0.00  0.00    -0.002 C 
ATOM      7  C   LIG    1       23.506 -20.795   5.402  0.00  0.00    -0.022 C 
ATOM      8  C   LIG    1       22.042 -20.316   5.157  0.00  0.00    +0.012 C 
ATOM      9  C   LIG    1       23.761 -20.695   6.920  0.00  0.00    +0.008 C 
ATOM     10  C   LIG    1       22.977 -21.734   7.719  0.00  0.00    +0.005 C 
ATOM     11  C   LIG    1       23.067 -23.156   7.153  0.00  0.00    +0.031 C 
ENDROOT
BRANCH   1  15
ATOM     12  C   LIG    1       26.719 -27.427   8.357  0.00  0.00    +0.012 C 
ATOM     13  C   LIG    1       25.700 -27.555   7.487  0.00  0.00    -0.051 C 
ATOM     14  C   LIG    1       25.452 -26.586   6.424  0.00  0.00    -0.042 C 
ATOM     15  C   LIG    1       25.216 -25.284   6.714  0.00  0.00    +0.004 C 
ATOM     16  C   LIG    1       25.436 -27.218   5.056  0.00  0.00    +0.066 C 
ATOM     17  C   LIG    1       24.458 -28.400   5.001  0.00  0.00    +0.119 C 
ATOM     18  C   LIG    1       24.734 -29.411   6.117  0.00  0.00    +0.036 C 
ATOM     19  C   LIG    1       24.765 -28.738   7.489  0.00  0.00    +0.037 C 
BRANCH  17  20
ATOM     20  O   LIG    1       24.561 -29.056   3.738  0.00  0.00    -0.392 OA
ATOM     21  H   LIG    1       25.399 -29.551   3.730  0.00  0.00    +0.210 HD
ENDBRANCH  17  20
ENDBRANCH   1  15
BRANCH   6  22
ATOM     22  C   LIG    1       25.901 -19.549   5.042  0.00  0.00    -0.010 C 
ATOM     23  C   LIG    1       26.681 -18.789   3.949  0.00  0.00    +0.008 C 
BRANCH  22  24
ATOM     24  C   LIG    1       26.759 -20.704   5.616  0.00  0.00    +0.003 C 
BRANCH  24  25
ATOM     25  C   LIG    1       27.501 -20.344   6.921  0.00  0.00    +0.000 C 
BRANCH  25  26
ATOM     26  C   LIG    1       29.002 -20.704   6.910  0.00  0.00    +0.003 C 
BRANCH  26  27
ATOM     27  C   LIG    1       29.968 -19.503   7.008  0.00  0.00    -0.017 C 
ATOM     28  C   LIG    1       29.925 -18.839   8.386  0.00  0.00    +0.007 C 
ATOM     29  C   LIG    1       29.698 -18.457   5.923  0.00  0.00    +0.007 C 
ENDBRANCH  26  27
ENDBRANCH  25  26
ENDBRANCH  24  25
ENDBRANCH  22  24
ENDBRANCH   6  22
TORSDOF 7
ENDMDL
