MODEL 1
REMARK VINA RESULT:      -5.7      0.000      0.000
REMARK  Name = *****
REMARK                            x       y       z     vdW  Elec       q    Type
REMARK                         _______ _______ _______ _____ _____    ______ ____
ROOT
ATOM      1  C   LIG    1       24.829 -32.342   8.018  0.00  0.00    +0.133 C 
ATOM      2  C   LIG    1       26.006 -31.786   8.887  0.00  0.00    +0.009 C 
ATOM      3  C   LIG    1       27.289 -32.651   8.734  0.00  0.00    +0.015 C 
ATOM      4  C   LIG    1       25.477 -31.963  10.352  0.00  0.00    +0.002 C 
ATOM      5  C   LIG    1       24.788 -30.732  10.998  0.00  0.00    -0.001 C 
ATOM      6  C   LIG    1       25.497 -29.383  10.737  0.00  0.00    +0.031 C 
ATOM      7  C   LIG    1       25.619 -29.228   9.205  0.00  0.00    +0.119 C 
ATOM      8  C   LIG    1       26.741 -29.047  11.661  0.00  0.00    -0.005 C 
ATOM      9  C   LIG    1       27.014 -27.516  11.567  0.00  0.00    +0.016 C 
ATOM     10  C   LIG    1       26.456 -29.456  13.121  0.00  0.00    -0.060 C 
ATOM     11  C   LIG    1       27.283 -29.058  14.111  0.00  0.00    +0.046 C 
ATOM     12  C   LIG    1       28.679 -29.560  13.825  0.00  0.00    +0.156 C 
ATOM     13  O   LIG    1       29.431 -29.805  14.767  0.00  0.00    -0.293 OA
ATOM     14  C   LIG    1       29.162 -29.588  12.379  0.00  0.00    +0.080 C 
ATOM     15  C   LIG    1       25.774 -30.790  13.337  0.00  0.00    +0.032 C 
ATOM     16  C   LIG    1       28.057 -29.788  11.329  0.00  0.00    +0.019 C 
ATOM     17  C   LIG    1       24.516 -30.921  12.498  0.00  0.00    +0.008 C 
ATOM     18  C   LIG    1       24.484 -33.153  10.286  0.00  0.00    +0.007 C 
ATOM     19  C   LIG    1       26.403 -30.342   8.524  0.00  0.00    +0.042 C 
ATOM     20  C   LIG    1       24.385 -33.577   8.823  0.00  0.00    +0.043 C 
ENDROOT
BRANCH   1  21
ATOM     21  C   LIG    1       25.224 -32.789   6.575  0.00  0.00    +0.202 C 
ATOM     22  O   LIG    1       25.947 -33.774   6.379  0.00  0.00    -0.291 OA
BRANCH  21  23
ATOM     23  C   LIG    1       24.861 -31.887   5.395  0.00  0.00    +0.309 C 
BRANCH  23  24
ATOM     24  O   LIG    1       25.384 -30.561   5.450  0.00  0.00    -0.456 OA
BRANCH  24  25
ATOM     25  C   LIG    1       24.461 -29.568   5.548  0.00  0.00    +0.322 C 
ATOM     26  O   LIG    1       23.320 -29.731   5.979  0.00  0.00    -0.249 OA
BRANCH  25  27
ATOM     27  C   LIG    1       24.997 -28.246   5.016  0.00  0.00    +0.205 C 
BRANCH  27  28
ATOM     28  N   LIG    1       25.159 -27.200   6.060  0.00  0.00    -0.293 NA
BRANCH  28  30
ATOM     29  C   LIG    1       27.449 -27.203   4.941  0.00  0.00    +0.020 C 
ATOM     30  C   LIG    1       26.495 -26.569   5.953  0.00  0.00    +0.081 C 
ENDBRANCH  28  30
BRANCH  28  31
ATOM     31  C   LIG    1       24.099 -26.169   5.922  0.00  0.00    +0.081 C 
ATOM     32  C   LIG    1       24.449 -24.785   6.471  0.00  0.00    +0.020 C 
ENDBRANCH  28  31
ENDBRANCH  27  28
ENDBRANCH  25  27
ENDBRANCH  24  25
ENDBRANCH  23  24
ENDBRANCH  21  23
ENDBRANCH   1  21
BRANCH   1  33
ATOM     33  O   LIG    1       23.726 -31.444   8.072  0.00  0.00    -0.380 OA
ATOM     34  H   LIG    1       22.900 -31.921   7.873  0.00  0.00    +0.211 HD
ENDBRANCH   1  33
BRANCH   7  35
ATOM     35  O   LIG    1       26.181 -27.978   8.833  0.00  0.00    -0.392 OA
ATOM     36  H   LIG    1       27.099 -27.949   9.154  0.00  0.00    +0.210 HD
ENDBRANCH   7  35
TORSDOF 10
ENDMDL
MODEL 2
REMARK VINA RESULT:      -5.4      2.916      4.669
REMARK  Name = *****
REMARK                            x       y       z     vdW  Elec       q    Type
REMARK                         _______ _______ _______ _____ _____    ______ ____
ROOT
ATOM      1  C   LIG    1       24.967 -32.058  10.106  0.00  0.00    +0.133 C 
ATOM      2  C   LIG    1       24.489 -30.744  10.809  0.00  0.00    +0.009 C 
ATOM      3  C   LIG    1       23.342 -30.054  10.017  0.00  0.00    +0.015 C 
ATOM      4  C   LIG    1       25.753 -29.821  10.730  0.00  0.00    +0.002 C 
ATOM      5  C   LIG    1       26.688 -29.812  11.967  0.00  0.00    -0.001 C 
ATOM      6  C   LIG    1       25.959 -29.774  13.330  0.00  0.00    +0.031 C 
ATOM      7  C   LIG    1       24.993 -30.978  13.356  0.00  0.00    +0.119 C 
ATOM      8  C   LIG    1       25.457 -28.353  13.823  0.00  0.00    -0.005 C 
ATOM      9  C   LIG    1       25.181 -28.444  15.355  0.00  0.00    +0.016 C 
ATOM     10  C   LIG    1       26.517 -27.272  13.528  0.00  0.00    -0.060 C 
ATOM     11  C   LIG    1       26.395 -26.039  14.063  0.00  0.00    +0.046 C 
ATOM     12  C   LIG    1       25.081 -25.434  13.627  0.00  0.00    +0.156 C 
ATOM     13  O   LIG    1       24.993 -24.213  13.514  0.00  0.00    -0.293 OA
ATOM     14  C   LIG    1       23.865 -26.345  13.502  0.00  0.00    +0.080 C 
ATOM     15  C   LIG    1       27.198 -27.334  12.178  0.00  0.00    +0.032 C 
ATOM     16  C   LIG    1       24.182 -27.805  13.141  0.00  0.00    +0.019 C 
ATOM     17  C   LIG    1       27.761 -28.714  11.894  0.00  0.00    +0.008 C 
ATOM     18  C   LIG    1       26.532 -30.304   9.478  0.00  0.00    +0.007 C 
ATOM     19  C   LIG    1       23.959 -30.976  12.238  0.00  0.00    +0.042 C 
ATOM     20  C   LIG    1       25.785 -31.513   8.921  0.00  0.00    +0.043 C 
ENDROOT
BRANCH   1  21
ATOM     21  C   LIG    1       23.824 -32.970   9.558  0.00  0.00    +0.202 C 
ATOM     22  O   LIG    1       22.990 -33.486  10.313  0.00  0.00    -0.291 OA
BRANCH  21  23
ATOM     23  C   LIG    1       23.845 -33.379   8.086  0.00  0.00    +0.309 C 
BRANCH  23  24
ATOM     24  O   LIG    1       23.007 -32.614   7.220  0.00  0.00    -0.456 OA
BRANCH  24  25
ATOM     25  C   LIG    1       23.625 -32.050   6.150  0.00  0.00    +0.322 C 
ATOM     26  O   LIG    1       23.672 -30.838   5.944  0.00  0.00    -0.249 OA
BRANCH  25  27
ATOM     27  C   LIG    1       24.206 -33.103   5.216  0.00  0.00    +0.205 C 
BRANCH  27  28
ATOM     28  N   LIG    1       25.522 -32.730   4.635  0.00  0.00    -0.293 NA
BRANCH  28  30
ATOM     29  C   LIG    1       27.570 -32.980   6.131  0.00  0.00    +0.020 C 
ATOM     30  C   LIG    1       26.585 -33.622   5.154  0.00  0.00    +0.081 C 
ENDBRANCH  28  30
BRANCH  28  31
ATOM     31  C   LIG    1       25.471 -32.812   3.152  0.00  0.00    +0.081 C 
ATOM     32  C   LIG    1       26.825 -32.931   2.451  0.00  0.00    +0.020 C 
ENDBRANCH  28  31
ENDBRANCH  27  28
ENDBRANCH  25  27
ENDBRANCH  24  25
ENDBRANCH  23  24
ENDBRANCH  21  23
ENDBRANCH   1  21
BRANCH   1  33
ATOM     33  O   LIG    1       25.908 -32.730  10.933  0.00  0.00    -0.380 OA
ATOM     34  H   LIG    1       26.120 -33.603  10.554  0.00  0.00    +0.211 HD
ENDBRANCH   1  33
BRANCH   7  35
ATOM     35  O   LIG    1       24.322 -31.103  14.601  0.00  0.00    -0.392 OA
ATOM     36  H   LIG    1       23.595 -31.741  14.492  0.00  0.00    +0.210 HD
ENDBRANCH   7  35
TORSDOF 10
ENDMDL
MODEL 3
REMARK VINA RESULT:      -5.4      2.327      3.612
REMARK  Name = *****
REMARK                            x       y       z     vdW  Elec       q    Type
REMARK                         _______ _______ _______ _____ _____    ______ ____
ROOT
ATOM      1  C   LIG    1       25.348 -31.675   9.569  0.00  0.00    +0.133 C 
ATOM      2  C   LIG    1       24.764 -30.460  10.366  0.00  0.00    +0.009 C 
ATOM      3  C   LIG    1       23.986 -29.486   9.436  0.00  0.00    +0.015 C 
ATOM      4  C   LIG    1       26.049 -29.720  10.874  0.00  0.00    +0.002 C 
ATOM      5  C   LIG    1       26.533 -30.068  12.306  0.00  0.00    -0.001 C 
ATOM      6  C   LIG    1       25.408 -30.183  13.360  0.00  0.00    +0.031 C 
ATOM      7  C   LIG    1       24.402 -31.228  12.830  0.00  0.00    +0.119 C 
ATOM      8  C   LIG    1       24.876 -28.824  13.978  0.00  0.00    -0.005 C 
ATOM      9  C   LIG    1       24.116 -29.157  15.297  0.00  0.00    +0.016 C 
ATOM     10  C   LIG    1       26.049 -27.862  14.259  0.00  0.00    -0.060 C 
ATOM     11  C   LIG    1       25.850 -26.744  14.988  0.00  0.00    +0.046 C 
ATOM     12  C   LIG    1       24.793 -25.895  14.321  0.00  0.00    +0.156 C 
ATOM     13  O   LIG    1       24.833 -24.674  14.456  0.00  0.00    -0.293 OA
ATOM     14  C   LIG    1       23.620 -26.592  13.640  0.00  0.00    +0.080 C 
ATOM     15  C   LIG    1       27.123 -27.765  13.197  0.00  0.00    +0.032 C 
ATOM     16  C   LIG    1       23.932 -27.990  13.081  0.00  0.00    +0.019 C 
ATOM     17  C   LIG    1       27.648 -29.133  12.801  0.00  0.00    +0.008 C 
ATOM     18  C   LIG    1       27.153 -30.066   9.841  0.00  0.00    +0.007 C 
ATOM     19  C   LIG    1       23.786 -30.878  11.482  0.00  0.00    +0.042 C 
ATOM     20  C   LIG    1       26.542 -31.037   8.835  0.00  0.00    +0.043 C 
ENDROOT
BRANCH   1  21
ATOM     21  C   LIG    1       24.380 -32.305   8.518  0.00  0.00    +0.202 C 
ATOM     22  O   LIG    1       23.531 -33.144   8.842  0.00  0.00    -0.291 OA
BRANCH  21  23
ATOM     23  C   LIG    1       24.610 -32.015   7.035  0.00  0.00    +0.309 C 
BRANCH  23  24
ATOM     24  O   LIG    1       23.913 -30.884   6.512  0.00  0.00    -0.456 OA
BRANCH  24  25
ATOM     25  C   LIG    1       24.664 -30.009   5.795  0.00  0.00    +0.322 C 
ATOM     26  O   LIG    1       25.543 -30.347   5.002  0.00  0.00    -0.249 OA
BRANCH  25  27
ATOM     27  C   LIG    1       24.318 -28.564   6.129  0.00  0.00    +0.205 C 
BRANCH  27  28
ATOM     28  N   LIG    1       25.097 -27.565   5.351  0.00  0.00    -0.293 NA
BRANCH  28  30
ATOM     29  C   LIG    1       25.031 -25.034   5.060  0.00  0.00    +0.020 C 
ATOM     30  C   LIG    1       24.274 -26.362   5.090  0.00  0.00    +0.081 C 
ENDBRANCH  28  30
BRANCH  28  31
ATOM     31  C   LIG    1       26.329 -27.187   6.090  0.00  0.00    +0.081 C 
ATOM     32  C   LIG    1       26.237 -27.272   7.614  0.00  0.00    +0.020 C 
ENDBRANCH  28  31
ENDBRANCH  27  28
ENDBRANCH  25  27
ENDBRANCH  24  25
ENDBRANCH  23  24
ENDBRANCH  21  23
ENDBRANCH   1  21
BRANCH   1  33
ATOM     33  O   LIG    1       25.922 -32.611  10.474  0.00  0.00    -0.380 OA
ATOM     34  H   LIG    1       26.236 -33.394   9.986  0.00  0.00    +0.211 HD
ENDBRANCH   1  33
BRANCH   7  35
ATOM     35  O   LIG    1       23.358 -31.488  13.758  0.00  0.00    -0.392 OA
ATOM     36  H   LIG    1       23.234 -30.695  14.307  0.00  0.00    +0.210 HD
ENDBRANCH   7  35
TORSDOF 10
ENDMDL
MODEL 4
REMARK VINA RESULT:      -5.4      3.324      5.448
REMARK  Name = *****
REMARK                            x       y       z     vdW  Elec       q    Type
REMARK                         _______ _______ _______ _____ _____    ______ ____
ROOT
ATOM      1  C   LIG    1       26.197 -30.704  10.884  0.00  0.00    +0.133 C 
ATOM      2  C   LIG    1       24.721 -30.291  11.205  0.00  0.00    +0.009 C 
ATOM      3  C   LIG    1       23.820 -30.352   9.940  0.00  0.00    +0.015 C 
ATOM      4  C   LIG    1       24.859 -28.788  11.628  0.00  0.00    +0.002 C 
ATOM      5  C   LIG    1       24.976 -28.499  13.148  0.00  0.00    -0.001 C 
ATOM      6  C   LIG    1       24.020 -29.324  14.039  0.00  0.00    +0.031 C 
ATOM      7  C   LIG    1       24.282 -30.812  13.721  0.00  0.00    +0.119 C 
ATOM      8  C   LIG    1       22.530 -28.796  14.155  0.00  0.00    -0.005 C 
ATOM      9  C   LIG    1       21.879 -29.457  15.408  0.00  0.00    +0.016 C 
ATOM     10  C   LIG    1       22.508 -27.259  14.283  0.00  0.00    -0.060 C 
ATOM     11  C   LIG    1       21.366 -26.622  14.617  0.00  0.00    +0.046 C 
ATOM     12  C   LIG    1       20.296 -26.950  13.602  0.00  0.00    +0.156 C 
ATOM     13  O   LIG    1       19.415 -26.123  13.373  0.00  0.00    -0.293 OA
ATOM     14  C   LIG    1       20.253 -28.357  13.017  0.00  0.00    +0.080 C 
ATOM     15  C   LIG    1       23.447 -26.486  13.383  0.00  0.00    +0.032 C 
ATOM     16  C   LIG    1       21.612 -29.071  12.940  0.00  0.00    +0.019 C 
ATOM     17  C   LIG    1       24.871 -27.002  13.478  0.00  0.00    +0.008 C 
ATOM     18  C   LIG    1       26.122 -28.272  10.890  0.00  0.00    +0.007 C 
ATOM     19  C   LIG    1       24.054 -31.191  12.264  0.00  0.00    +0.042 C 
ATOM     20  C   LIG    1       26.729 -29.460  10.149  0.00  0.00    +0.043 C 
ENDROOT
BRANCH   1  21
ATOM     21  C   LIG    1       26.349 -31.949   9.954  0.00  0.00    +0.202 C 
ATOM     22  O   LIG    1       26.190 -33.099  10.382  0.00  0.00    -0.291 OA
BRANCH  21  23
ATOM     23  C   LIG    1       26.883 -31.752   8.536  0.00  0.00    +0.309 C 
BRANCH  23  24
ATOM     24  O   LIG    1       26.447 -32.711   7.574  0.00  0.00    -0.456 OA
BRANCH  24  25
ATOM     25  C   LIG    1       26.797 -32.455   6.286  0.00  0.00    +0.322 C 
ATOM     26  O   LIG    1       27.757 -32.974   5.718  0.00  0.00    -0.249 OA
BRANCH  25  27
ATOM     27  C   LIG    1       25.887 -31.411   5.653  0.00  0.00    +0.205 C 
BRANCH  27  28
ATOM     28  N   LIG    1       24.588 -31.241   6.354  0.00  0.00    -0.293 NA
BRANCH  28  30
ATOM     29  C   LIG    1       24.940 -28.759   6.812  0.00  0.00    +0.020 C 
ATOM     30  C   LIG    1       24.086 -29.858   6.181  0.00  0.00    +0.081 C 
ENDBRANCH  28  30
BRANCH  28  31
ATOM     31  C   LIG    1       23.591 -32.211   5.833  0.00  0.00    +0.081 C 
ATOM     32  C   LIG    1       23.073 -33.234   6.846  0.00  0.00    +0.020 C 
ENDBRANCH  28  31
ENDBRANCH  27  28
ENDBRANCH  25  27
ENDBRANCH  24  25
ENDBRANCH  23  24
ENDBRANCH  21  23
ENDBRANCH   1  21
BRANCH   1  33
ATOM     33  O   LIG    1       26.949 -30.776  12.089  0.00  0.00    -0.380 OA
ATOM     34  H   LIG    1       27.029 -29.888  12.484  0.00  0.00    +0.211 HD
ENDBRANCH   1  33
BRANCH   7  35
ATOM     35  O   LIG    1       23.519 -31.681  14.546  0.00  0.00    -0.392 OA
ATOM     36  H   LIG    1       23.752 -32.598  14.319  0.00  0.00    +0.210 HD
ENDBRANCH   7  35
TORSDOF 10
ENDMDL
MODEL 5
REMARK VINA RESULT:      -5.3      2.810      4.332
REMARK  Name = *****
REMARK                            x       y       z     vdW  Elec       q    Type
REMARK                         _______ _______ _______ _____ _____    ______ ____
ROOT
ATOM      1  C   LIG    1       25.887 -31.122   9.707  0.00  0.00    +0.133 C 
ATOM      2  C   LIG    1       24.542 -30.577  10.295  0.00  0.00    +0.009 C 
ATOM      3  C   LIG    1       23.584 -30.084   9.173  0.00  0.00    +0.015 C 
ATOM      4  C   LIG    1       25.000 -29.327  11.123  0.00  0.00    +0.002 C 
ATOM      5  C   LIG    1       25.249 -29.548  12.638  0.00  0.00    -0.001 C 
ATOM      6  C   LIG    1       24.194 -30.428  13.347  0.00  0.00    +0.031 C 
ATOM      7  C   LIG    1       24.135 -31.766  12.578  0.00  0.00    +0.119 C 
ATOM      8  C   LIG    1       22.847 -29.709  13.775  0.00  0.00    -0.005 C 
ATOM      9  C   LIG    1       22.142 -30.600  14.841  0.00  0.00    +0.016 C 
ATOM     10  C   LIG    1       23.141 -28.308  14.350  0.00  0.00    -0.060 C 
ATOM     11  C   LIG    1       22.168 -27.616  14.980  0.00  0.00    +0.046 C 
ATOM     12  C   LIG    1       21.004 -27.420  14.037  0.00  0.00    +0.156 C 
ATOM     13  O   LIG    1       20.297 -26.422  14.159  0.00  0.00    -0.293 OA
ATOM     14  C   LIG    1       20.650 -28.547  13.073  0.00  0.00    +0.080 C 
ATOM     15  C   LIG    1       24.169 -27.471  13.620  0.00  0.00    +0.032 C 
ATOM     16  C   LIG    1       21.833 -29.429  12.641  0.00  0.00    +0.019 C 
ATOM     17  C   LIG    1       25.463 -28.233  13.404  0.00  0.00    +0.008 C 
ATOM     18  C   LIG    1       26.301 -28.838  10.436  0.00  0.00    +0.007 C 
ATOM     19  C   LIG    1       23.763 -31.629  11.108  0.00  0.00    +0.042 C 
ATOM     20  C   LIG    1       26.620 -29.825   9.316  0.00  0.00    +0.043 C 
ENDROOT
BRANCH   1  21
ATOM     21  C   LIG    1       25.739 -32.024   8.441  0.00  0.00    +0.202 C 
ATOM     22  O   LIG    1       25.444 -33.222   8.532  0.00  0.00    -0.291 OA
BRANCH  21  23
ATOM     23  C   LIG    1       26.145 -31.460   7.079  0.00  0.00    +0.309 C 
BRANCH  23  24
ATOM     24  O   LIG    1       25.155 -31.548   6.055  0.00  0.00    -0.456 OA
BRANCH  24  25
ATOM     25  C   LIG    1       24.493 -30.396   5.775  0.00  0.00    +0.322 C 
ATOM     26  O   LIG    1       23.269 -30.278   5.818  0.00  0.00    -0.249 OA
BRANCH  25  27
ATOM     27  C   LIG    1       25.448 -29.286   5.357  0.00  0.00    +0.205 C 
BRANCH  27  28
ATOM     28  N   LIG    1       24.869 -27.922   5.467  0.00  0.00    -0.293 NA
BRANCH  28  30
ATOM     29  C   LIG    1       26.245 -26.886   7.346  0.00  0.00    +0.020 C 
ATOM     30  C   LIG    1       24.909 -27.458   6.873  0.00  0.00    +0.081 C 
ENDBRANCH  28  30
BRANCH  28  31
ATOM     31  C   LIG    1       25.616 -26.975   4.600  0.00  0.00    +0.081 C 
ATOM     32  C   LIG    1       25.103 -25.534   4.601  0.00  0.00    +0.020 C 
ENDBRANCH  28  31
ENDBRANCH  27  28
ENDBRANCH  25  27
ENDBRANCH  24  25
ENDBRANCH  23  24
ENDBRANCH  21  23
ENDBRANCH   1  21
BRANCH   1  33
ATOM     33  O   LIG    1       26.669 -31.694  10.748  0.00  0.00    -0.380 OA
ATOM     34  H   LIG    1       26.103 -32.235  11.329  0.00  0.00    +0.211 HD
ENDBRANCH   1  33
BRANCH   7  35
ATOM     35  O   LIG    1       23.256 -32.700  13.189  0.00  0.00    -0.392 OA
ATOM     36  H   LIG    1       23.085 -33.416  12.554  0.00  0.00    +0.210 HD
ENDBRANCH   7  35
TORSDOF 10
ENDMDL
MODEL 6
REMARK VINA RESULT:      -5.2      3.347      5.572
REMARK  Name = *****
REMARK                            x       y       z     vdW  Elec       q    Type
REMARK                         _______ _______ _______ _____ _____    ______ ____
ROOT
ATOM      1  C   LIG    1       26.375 -30.429  12.065  0.00  0.00    +0.133 C 
ATOM      2  C   LIG    1       25.150 -29.463  12.195  0.00  0.00    +0.009 C 
ATOM      3  C   LIG    1       25.586 -27.972  12.116  0.00  0.00    +0.015 C 
ATOM      4  C   LIG    1       24.635 -29.739  13.649  0.00  0.00    +0.002 C 
ATOM      5  C   LIG    1       23.484 -30.768  13.798  0.00  0.00    -0.001 C 
ATOM      6  C   LIG    1       22.363 -30.642  12.741  0.00  0.00    +0.031 C 
ATOM      7  C   LIG    1       23.038 -30.739  11.356  0.00  0.00    +0.119 C 
ATOM      8  C   LIG    1       21.267 -29.526  13.003  0.00  0.00    -0.005 C 
ATOM      9  C   LIG    1       20.024 -29.854  12.121  0.00  0.00    +0.016 C 
ATOM     10  C   LIG    1       20.876 -29.492  14.495  0.00  0.00    -0.060 C 
ATOM     11  C   LIG    1       19.804 -28.777  14.899  0.00  0.00    +0.046 C 
ATOM     12  C   LIG    1       19.992 -27.331  14.504  0.00  0.00    +0.156 C 
ATOM     13  O   LIG    1       19.479 -26.451  15.195  0.00  0.00    -0.293 OA
ATOM     14  C   LIG    1       20.672 -27.019  13.176  0.00  0.00    +0.080 C 
ATOM     15  C   LIG    1       22.002 -29.603  15.499  0.00  0.00    +0.032 C 
ATOM     16  C   LIG    1       21.692 -28.069  12.706  0.00  0.00    +0.019 C 
ATOM     17  C   LIG    1       22.893 -30.798  15.216  0.00  0.00    +0.008 C 
ATOM     18  C   LIG    1       25.882 -30.219  14.438  0.00  0.00    +0.007 C 
ATOM     19  C   LIG    1       24.091 -29.670  11.095  0.00  0.00    +0.042 C 
ATOM     20  C   LIG    1       27.040 -30.299  13.447  0.00  0.00    +0.043 C 
ENDROOT
BRANCH   1  21
ATOM     21  C   LIG    1       27.410 -30.042  10.962  0.00  0.00    +0.202 C 
ATOM     22  O   LIG    1       28.463 -29.454  11.241  0.00  0.00    -0.291 OA
BRANCH  21  23
ATOM     23  C   LIG    1       27.031 -30.229   9.493  0.00  0.00    +0.309 C 
BRANCH  23  24
ATOM     24  O   LIG    1       26.399 -31.468   9.173  0.00  0.00    -0.456 OA
BRANCH  24  25
ATOM     25  C   LIG    1       25.239 -31.372   8.473  0.00  0.00    +0.322 C 
ATOM     26  O   LIG    1       24.343 -32.215   8.509  0.00  0.00    -0.249 OA
BRANCH  25  27
ATOM     27  C   LIG    1       25.207 -30.122   7.603  0.00  0.00    +0.205 C 
BRANCH  27  28
ATOM     28  N   LIG    1       24.881 -30.390   6.178  0.00  0.00    -0.293 NA
BRANCH  28  30
ATOM     29  C   LIG    1       24.716 -27.849   6.295  0.00  0.00    +0.020 C 
ATOM     30  C   LIG    1       24.716 -29.116   5.440  0.00  0.00    +0.081 C 
ENDBRANCH  28  30
BRANCH  28  31
ATOM     31  C   LIG    1       25.954 -31.204   5.551  0.00  0.00    +0.081 C 
ATOM     32  C   LIG    1       25.477 -32.287   4.581  0.00  0.00    +0.020 C 
ENDBRANCH  28  31
ENDBRANCH  27  28
ENDBRANCH  25  27
ENDBRANCH  24  25
ENDBRANCH  23  24
ENDBRANCH  21  23
ENDBRANCH   1  21
BRANCH   1  33
ATOM     33  O   LIG    1       25.919 -31.775  11.995  0.00  0.00    -0.380 OA
ATOM     34  H   LIG    1       26.565 -32.320  11.510  0.00  0.00    +0.211 HD
ENDBRANCH   1  33
BRANCH   7  35
ATOM     35  O   LIG    1       22.095 -30.724  10.294  0.00  0.00    -0.392 OA
ATOM     36  H   LIG    1       21.406 -30.071  10.509  0.00  0.00    +0.210 HD
ENDBRANCH   7  35
TORSDOF 10
ENDMDL
MODEL 7
REMARK VINA RESULT:      -5.2      2.186      3.975
REMARK  Name = *****
REMARK                            x       y       z     vdW  Elec       q    Type
REMARK                         _______ _______ _______ _____ _____    ______ ____
ROOT
ATOM      1  C   LIG    1       24.654 -30.251   6.566  0.00  0.00    +0.133 C 
ATOM      2  C   LIG    1       24.946 -30.120   8.098  0.00  0.00    +0.009 C 
ATOM      3  C   LIG    1       26.045 -29.058   8.383  0.00  0.00    +0.015 C 
ATOM      4  C   LIG    1       25.526 -31.527   8.469  0.00  0.00    +0.002 C 
ATOM      5  C   LIG    1       24.524 -32.569   9.033  0.00  0.00    -0.001 C 
ATOM      6  C   LIG    1       23.517 -32.006  10.062  0.00  0.00    +0.031 C 
ATOM      7  C   LIG    1       22.789 -30.828   9.380  0.00  0.00    +0.119 C 
ATOM      8  C   LIG    1       24.039 -31.851  11.550  0.00  0.00    -0.005 C 
ATOM      9  C   LIG    1       22.800 -31.723  12.486  0.00  0.00    +0.016 C 
ATOM     10  C   LIG    1       24.896 -33.068  11.953  0.00  0.00    -0.060 C 
ATOM     11  C   LIG    1       25.253 -33.251  13.242  0.00  0.00    +0.046 C 
ATOM     12  C   LIG    1       26.028 -32.045  13.720  0.00  0.00    +0.156 C 
ATOM     13  O   LIG    1       26.882 -32.191  14.593  0.00  0.00    -0.293 OA
ATOM     14  C   LIG    1       25.612 -30.666  13.221  0.00  0.00    +0.080 C 
ATOM     15  C   LIG    1       25.881 -33.581  10.925  0.00  0.00    +0.032 C 
ATOM     16  C   LIG    1       24.970 -30.647  11.824  0.00  0.00    +0.019 C 
ATOM     17  C   LIG    1       25.218 -33.825   9.582  0.00  0.00    +0.008 C 
ATOM     18  C   LIG    1       26.167 -32.061   7.161  0.00  0.00    +0.007 C 
ATOM     19  C   LIG    1       23.709 -29.705   8.920  0.00  0.00    +0.042 C 
ATOM     20  C   LIG    1       25.882 -31.035   6.067  0.00  0.00    +0.043 C 
ENDROOT
BRANCH   1  21
ATOM     21  C   LIG    1       24.564 -28.899   5.790  0.00  0.00    +0.202 C 
ATOM     22  O   LIG    1       24.680 -28.850   4.559  0.00  0.00    -0.291 OA
BRANCH  21  23
ATOM     23  C   LIG    1       24.514 -27.593   6.583  0.00  0.00    +0.309 C 
BRANCH  23  24
ATOM     24  O   LIG    1       24.392 -26.403   5.806  0.00  0.00    -0.456 OA
BRANCH  24  25
ATOM     25  C   LIG    1       25.509 -25.634   5.727  0.00  0.00    +0.322 C 
ATOM     26  O   LIG    1       26.655 -26.077   5.801  0.00  0.00    -0.249 OA
BRANCH  25  27
ATOM     27  C   LIG    1       25.167 -24.157   5.585  0.00  0.00    +0.205 C 
BRANCH  27  28
ATOM     28  N   LIG    1       24.914 -23.472   6.879  0.00  0.00    -0.293 NA
BRANCH  28  30
ATOM     29  C   LIG    1       25.942 -21.707   8.402  0.00  0.00    +0.020 C 
ATOM     30  C   LIG    1       26.146 -22.804   7.358  0.00  0.00    +0.081 C 
ENDBRANCH  28  30
BRANCH  28  31
ATOM     31  C   LIG    1       23.822 -22.476   6.727  0.00  0.00    +0.081 C 
ATOM     32  C   LIG    1       22.402 -23.042   6.762  0.00  0.00    +0.020 C 
ENDBRANCH  28  31
ENDBRANCH  27  28
ENDBRANCH  25  27
ENDBRANCH  24  25
ENDBRANCH  23  24
ENDBRANCH  21  23
ENDBRANCH   1  21
BRANCH   1  33
ATOM     33  O   LIG    1       23.547 -31.120   6.360  0.00  0.00    -0.380 OA
ATOM     34  H   LIG    1       23.771 -32.020   6.662  0.00  0.00    +0.211 HD
ENDBRANCH   1  33
BRANCH   7  35
ATOM     35  O   LIG    1       21.768 -30.277  10.200  0.00  0.00    -0.392 OA
ATOM     36  H   LIG    1       20.966 -30.816  10.090  0.00  0.00    +0.210 HD
ENDBRANCH   7  35
TORSDOF 10
ENDMDL
MODEL 8
REMARK VINA RESULT:      -5.0      3.838      7.070
REMARK  Name = *****
REMARK                            x       y       z     vdW  Elec       q    Type
REMARK                         _______ _______ _______ _____ _____    ______ ____
ROOT
ATOM      1  C   LIG    1       21.460 -31.820  12.870  0.00  0.00    +0.133 C 
ATOM      2  C   LIG    1       21.936 -31.170  11.528  0.00  0.00    +0.009 C 
ATOM      3  C   LIG    1       20.734 -30.732  10.644  0.00  0.00    +0.015 C 
ATOM      4  C   LIG    1       22.664 -32.352  10.801  0.00  0.00    +0.002 C 
ATOM      5  C   LIG    1       24.203 -32.439  10.981  0.00  0.00    -0.001 C 
ATOM      6  C   LIG    1       24.943 -31.085  10.890  0.00  0.00    +0.031 C 
ATOM      7  C   LIG    1       24.300 -30.150  11.936  0.00  0.00    +0.119 C 
ATOM      8  C   LIG    1       25.245 -30.541   9.431  0.00  0.00    -0.005 C 
ATOM      9  C   LIG    1       26.357 -29.456   9.541  0.00  0.00    +0.016 C 
ATOM     10  C   LIG    1       25.700 -31.691   8.509  0.00  0.00    -0.060 C 
ATOM     11  C   LIG    1       26.221 -31.419   7.293  0.00  0.00    +0.046 C 
ATOM     12  C   LIG    1       25.215 -30.636   6.483  0.00  0.00    +0.156 C 
ATOM     13  O   LIG    1       25.214 -30.751   5.259  0.00  0.00    -0.293 OA
ATOM     14  C   LIG    1       24.344 -29.609   7.197  0.00  0.00    +0.080 C 
ATOM     15  C   LIG    1       24.942 -32.996   8.617  0.00  0.00    +0.032 C 
ATOM     16  C   LIG    1       24.047 -29.922   8.673  0.00  0.00    +0.019 C 
ATOM     17  C   LIG    1       24.852 -33.477  10.053  0.00  0.00    +0.008 C 
ATOM     18  C   LIG    1       21.992 -33.639  11.344  0.00  0.00    +0.007 C 
ATOM     19  C   LIG    1       22.809 -29.916  11.736  0.00  0.00    +0.042 C 
ATOM     20  C   LIG    1       20.983 -33.209  12.406  0.00  0.00    +0.043 C 
ENDROOT
BRANCH   1  21
ATOM     21  C   LIG    1       20.278 -31.087  13.579  0.00  0.00    +0.202 C 
ATOM     22  O   LIG    1       19.099 -31.377  13.339  0.00  0.00    -0.291 OA
BRANCH  21  23
ATOM     23  C   LIG    1       20.580 -29.865  14.446  0.00  0.00    +0.309 C 
BRANCH  23  24
ATOM     24  O   LIG    1       21.534 -30.068  15.487  0.00  0.00    -0.456 OA
BRANCH  24  25
ATOM     25  C   LIG    1       22.700 -29.383  15.360  0.00  0.00    +0.322 C 
ATOM     26  O   LIG    1       23.813 -29.901  15.429  0.00  0.00    -0.249 OA
BRANCH  25  27
ATOM     27  C   LIG    1       22.458 -27.891  15.170  0.00  0.00    +0.205 C 
BRANCH  27  28
ATOM     28  N   LIG    1       23.305 -27.275  14.117  0.00  0.00    -0.293 NA
BRANCH  28  30
ATOM     29  C   LIG    1       21.046 -26.770  13.051  0.00  0.00    +0.020 C 
ATOM     30  C   LIG    1       22.499 -26.356  13.280  0.00  0.00    +0.081 C 
ENDBRANCH  28  30
BRANCH  28  31
ATOM     31  C   LIG    1       24.437 -26.536  14.734  0.00  0.00    +0.081 C 
ATOM     32  C   LIG    1       24.865 -25.259  14.010  0.00  0.00    +0.020 C 
ENDBRANCH  28  31
ENDBRANCH  27  28
ENDBRANCH  25  27
ENDBRANCH  24  25
ENDBRANCH  23  24
ENDBRANCH  21  23
ENDBRANCH   1  21
BRANCH   1  33
ATOM     33  O   LIG    1       22.582 -32.071  13.707  0.00  0.00    -0.380 OA
ATOM     34  H   LIG    1       22.329 -31.960  14.642  0.00  0.00    +0.211 HD
ENDBRANCH   1  33
BRANCH   7  35
ATOM     35  O   LIG    1       24.956 -28.892  12.010  0.00  0.00    -0.392 OA
ATOM     36  H   LIG    1       25.325 -28.689  11.133  0.00  0.00    +0.210 HD
ENDBRANCH   7  35
TORSDOF 10
ENDMDL
MODEL 9
REMARK VINA RESULT:      -5.0      3.184      8.129
REMARK  Name = *****
REMARK                            x       y       z     vdW  Elec       q    Type
REMARK                         _______ _______ _______ _____ _____    ______ ____
ROOT
ATOM      1  C   LIG    1       25.236 -27.198   6.218  0.00  0.00    +0.133 C 
ATOM      2  C   LIG    1       25.014 -25.861   5.434  0.00  0.00    +0.009 C 
ATOM      3  C   LIG    1       25.323 -26.027   3.919  0.00  0.00    +0.015 C 
ATOM      4  C   LIG    1       26.098 -24.909   6.047  0.00  0.00    +0.002 C 
ATOM      5  C   LIG    1       25.639 -23.982   7.203  0.00  0.00    -0.001 C 
ATOM      6  C   LIG    1       24.258 -23.320   6.993  0.00  0.00    +0.031 C 
ATOM      7  C   LIG    1       23.247 -24.460   6.741  0.00  0.00    +0.119 C 
ATOM      8  C   LIG    1       24.227 -22.027   6.076  0.00  0.00    -0.005 C 
ATOM      9  C   LIG    1       22.894 -21.269   6.355  0.00  0.00    +0.016 C 
ATOM     10  C   LIG    1       25.437 -21.119   6.379  0.00  0.00    -0.060 C 
ATOM     11  C   LIG    1       25.488 -19.867   5.879  0.00  0.00    +0.046 C 
ATOM     12  C   LIG    1       25.407 -19.928   4.372  0.00  0.00    +0.156 C 
ATOM     13  O   LIG    1       25.960 -19.054   3.707  0.00  0.00    -0.293 OA
ATOM     14  C   LIG    1       24.507 -20.979   3.732  0.00  0.00    +0.080 C 
ATOM     15  C   LIG    1       26.774 -21.803   6.564  0.00  0.00    +0.032 C 
ATOM     16  C   LIG    1       24.328 -22.268   4.552  0.00  0.00    +0.019 C 
ATOM     17  C   LIG    1       26.695 -22.930   7.577  0.00  0.00    +0.008 C 
ATOM     18  C   LIG    1       27.233 -25.846   6.535  0.00  0.00    +0.007 C 
ATOM     19  C   LIG    1       23.571 -25.330   5.534  0.00  0.00    +0.042 C 
ATOM     20  C   LIG    1       26.771 -27.280   6.292  0.00  0.00    +0.043 C 
ENDROOT
BRANCH   1  21
ATOM     21  C   LIG    1       24.691 -28.479   5.510  0.00  0.00    +0.202 C 
ATOM     22  O   LIG    1       23.522 -28.550   5.111  0.00  0.00    -0.291 OA
BRANCH  21  23
ATOM     23  C   LIG    1       25.565 -29.733   5.475  0.00  0.00    +0.309 C 
BRANCH  23  24
ATOM     24  O   LIG    1       24.935 -30.936   5.912  0.00  0.00    -0.456 OA
BRANCH  24  25
ATOM     25  C   LIG    1       24.553 -30.961   7.215  0.00  0.00    +0.322 C 
ATOM     26  O   LIG    1       23.386 -31.077   7.587  0.00  0.00    -0.249 OA
BRANCH  25  27
ATOM     27  C   LIG    1       25.738 -30.777   8.154  0.00  0.00    +0.205 C 
BRANCH  27  28
ATOM     28  N   LIG    1       25.514 -29.760   9.213  0.00  0.00    -0.293 NA
BRANCH  28  30
ATOM     29  C   LIG    1       23.611 -30.013  10.889  0.00  0.00    +0.020 C 
ATOM     30  C   LIG    1       25.021 -30.406  10.452  0.00  0.00    +0.081 C 
ENDBRANCH  28  30
BRANCH  28  31
ATOM     31  C   LIG    1       26.774 -29.023   9.492  0.00  0.00    +0.081 C 
ATOM     32  C   LIG    1       26.768 -28.163  10.758  0.00  0.00    +0.020 C 
ENDBRANCH  28  31
ENDBRANCH  27  28
ENDBRANCH  25  27
ENDBRANCH  24  25
ENDBRANCH  23  24
ENDBRANCH  21  23
ENDBRANCH   1  21
BRANCH   1  33
ATOM     33  O   LIG    1       24.804 -27.043   7.564  0.00  0.00    -0.380 OA
ATOM     34  H   LIG    1       24.248 -26.246   7.645  0.00  0.00    +0.211 HD
ENDBRANCH   1  33
BRANCH   7  35
ATOM     35  O   LIG    1       21.915 -23.981   6.618  0.00  0.00    -0.392 OA
ATOM     36  H   LIG    1       21.449 -24.542   5.974  0.00  0.00    +0.210 HD
ENDBRANCH   7  35
TORSDOF 10
ENDMDL
