MODEL 1
REMARK VINA RESULT:      -7.7      0.000      0.000
REMARK  Name = *****
REMARK                            x       y       z     vdW  Elec       q    Type
REMARK                         _______ _______ _______ _____ _____    ______ ____
ROOT
ATOM      1  C   LIG    1       24.792 -21.468   6.183  0.00  0.00    +0.129 C 
ATOM      2  C   LIG    1       25.286 -21.027   4.806  0.00  0.00    +0.236 C 
ATOM      3  O   LIG    1       24.684 -21.262   3.760  0.00  0.00    -0.274 OA
ATOM      4  N   LIG    1       26.515 -20.422   4.750  0.00  0.00    -0.239 N 
ATOM      5  H   LIG    1       26.854 -20.175   3.833  0.00  0.00    +0.159 HD
ATOM      6  C   LIG    1       27.248 -19.978   5.806  0.00  0.00    +0.312 C 
ATOM      7  O   LIG    1       28.292 -19.357   5.649  0.00  0.00    -0.252 OA
ATOM      8  N   LIG    1       26.738 -20.222   7.045  0.00  0.00    -0.239 N 
ATOM      9  H   LIG    1       27.215 -19.769   7.809  0.00  0.00    +0.159 HD
ATOM     10  C   LIG    1       25.494 -20.719   7.310  0.00  0.00    +0.236 C 
ATOM     11  O   LIG    1       25.022 -20.599   8.441  0.00  0.00    -0.274 OA
ENDROOT
BRANCH   1  12
ATOM     12  C   LIG    1       25.074 -23.031   6.316  0.00  0.00    +0.010 C 
ATOM     13  C   LIG    1       26.168 -23.356   7.353  0.00  0.00    +0.009 C 
BRANCH  12  14
ATOM     14  C   LIG    1       23.791 -23.875   6.584  0.00  0.00    +0.004 C 
BRANCH  14  15
ATOM     15  C   LIG    1       23.897 -25.365   6.224  0.00  0.00    -0.003 C 
ATOM     16  C   LIG    1       24.830 -25.598   5.042  0.00  0.00    +0.004 C 
ENDBRANCH  14  15
ENDBRANCH  12  14
ENDBRANCH   1  12
BRANCH   1  17
ATOM     17  C   LIG    1       23.263 -21.176   6.250  0.00  0.00    +0.052 C 
BRANCH  17  19
ATOM     18  C   LIG    1       22.140 -19.426   4.821  0.00  0.00    +0.004 C 
ATOM     19  C   LIG    1       22.859 -19.762   5.898  0.00  0.00    -0.033 C 
ENDBRANCH  17  19
ENDBRANCH   1  17
TORSDOF 5
ENDMDL
MODEL 2
REMARK VINA RESULT:      -7.4      1.314      1.602
REMARK  Name = *****
REMARK                            x       y       z     vdW  Elec       q    Type
REMARK                         _______ _______ _______ _____ _____    ______ ____
ROOT
ATOM      1  C   LIG    1       24.430 -21.677   6.204  0.00  0.00    +0.129 C 
ATOM      2  C   LIG    1       25.611 -20.813   5.764  0.00  0.00    +0.236 C 
ATOM      3  O   LIG    1       25.870 -20.562   4.588  0.00  0.00    -0.274 OA
ATOM      4  N   LIG    1       26.471 -20.389   6.744  0.00  0.00    -0.239 N 
ATOM      5  H   LIG    1       27.273 -19.858   6.440  0.00  0.00    +0.159 HD
ATOM      6  C   LIG    1       26.272 -20.468   8.087  0.00  0.00    +0.312 C 
ATOM      7  O   LIG    1       27.054 -19.967   8.885  0.00  0.00    -0.252 OA
ATOM      8  N   LIG    1       25.135 -21.096   8.496  0.00  0.00    -0.239 N 
ATOM      9  H   LIG    1       24.929 -21.026   9.480  0.00  0.00    +0.159 HD
ATOM     10  C   LIG    1       24.113 -21.499   7.685  0.00  0.00    +0.236 C 
ATOM     11  O   LIG    1       23.014 -21.757   8.178  0.00  0.00    -0.274 OA
ENDROOT
BRANCH   1  12
ATOM     12  C   LIG    1       24.810 -23.197   5.912  0.00  0.00    +0.010 C 
ATOM     13  C   LIG    1       26.061 -23.660   6.686  0.00  0.00    +0.009 C 
BRANCH  12  14
ATOM     14  C   LIG    1       23.627 -24.188   6.130  0.00  0.00    +0.004 C 
BRANCH  14  15
ATOM     15  C   LIG    1       24.033 -25.633   6.455  0.00  0.00    -0.003 C 
ATOM     16  C   LIG    1       24.365 -26.426   5.197  0.00  0.00    +0.004 C 
ENDBRANCH  14  15
ENDBRANCH  12  14
ENDBRANCH   1  12
BRANCH   1  17
ATOM     17  C   LIG    1       23.193 -21.245   5.362  0.00  0.00    +0.052 C 
BRANCH  17  19
ATOM     18  C   LIG    1       22.461 -18.962   4.576  0.00  0.00    +0.004 C 
ATOM     19  C   LIG    1       22.735 -19.819   5.567  0.00  0.00    -0.033 C 
ENDBRANCH  17  19
ENDBRANCH   1  17
TORSDOF 5
ENDMDL
MODEL 3
REMARK VINA RESULT:      -7.0      2.130      4.273
REMARK  Name = *****
REMARK                            x       y       z     vdW  Elec       q    Type
REMARK                         _______ _______ _______ _____ _____    ______ ____
ROOT
ATOM      1  C   LIG    1       23.948 -21.265   5.952  0.00  0.00    +0.129 C 
ATOM      2  C   LIG    1       23.541 -22.206   7.085  0.00  0.00    +0.236 C 
ATOM      3  O   LIG    1       22.880 -21.851   8.059  0.00  0.00    -0.274 OA
ATOM      4  N   LIG    1       24.033 -23.484   7.039  0.00  0.00    -0.239 N 
ATOM      5  H   LIG    1       23.798 -24.086   7.814  0.00  0.00    +0.159 HD
ATOM      6  C   LIG    1       24.666 -24.072   5.989  0.00  0.00    +0.312 C 
ATOM      7  O   LIG    1       24.980 -25.256   6.006  0.00  0.00    -0.252 OA
ATOM      8  N   LIG    1       24.893 -23.286   4.900  0.00  0.00    -0.239 N 
ATOM      9  H   LIG    1       25.234 -23.764   4.081  0.00  0.00    +0.159 HD
ATOM     10  C   LIG    1       24.401 -22.026   4.711  0.00  0.00    +0.236 C 
ATOM     11  O   LIG    1       24.396 -21.541   3.579  0.00  0.00    -0.274 OA
ENDROOT
BRANCH   1  12
ATOM     12  C   LIG    1       25.140 -20.352   6.489  0.00  0.00    +0.010 C 
ATOM     13  C   LIG    1       25.550 -20.695   7.935  0.00  0.00    +0.009 C 
BRANCH  12  14
ATOM     14  C   LIG    1       26.384 -20.335   5.550  0.00  0.00    +0.004 C 
BRANCH  14  15
ATOM     15  C   LIG    1       27.744 -20.321   6.264  0.00  0.00    -0.003 C 
ATOM     16  C   LIG    1       28.666 -19.243   5.708  0.00  0.00    +0.004 C 
ENDBRANCH  14  15
ENDBRANCH  12  14
ENDBRANCH   1  12
BRANCH   1  17
ATOM     17  C   LIG    1       22.706 -20.396   5.593  0.00  0.00    +0.052 C 
BRANCH  17  19
ATOM     18  C   LIG    1       22.091 -18.249   4.420  0.00  0.00    +0.004 C 
ATOM     19  C   LIG    1       22.985 -19.200   4.711  0.00  0.00    -0.033 C 
ENDBRANCH  17  19
ENDBRANCH   1  17
TORSDOF 5
ENDMDL
MODEL 4
REMARK VINA RESULT:      -6.7      2.042      4.245
REMARK  Name = *****
REMARK                            x       y       z     vdW  Elec       q    Type
REMARK                         _______ _______ _______ _____ _____    ______ ____
ROOT
ATOM      1  C   LIG    1       24.881 -21.769   6.321  0.00  0.00    +0.129 C 
ATOM      2  C   LIG    1       24.865 -22.245   4.869  0.00  0.00    +0.236 C 
ATOM      3  O   LIG    1       24.745 -21.490   3.906  0.00  0.00    -0.274 OA
ATOM      4  N   LIG    1       24.890 -23.599   4.658  0.00  0.00    -0.239 N 
ATOM      5  H   LIG    1       24.833 -23.907   3.700  0.00  0.00    +0.159 HD
ATOM      6  C   LIG    1       25.145 -24.559   5.587  0.00  0.00    +0.312 C 
ATOM      7  O   LIG    1       25.247 -25.741   5.281  0.00  0.00    -0.252 OA
ATOM      8  N   LIG    1       25.324 -24.133   6.868  0.00  0.00    -0.239 N 
ATOM      9  H   LIG    1       25.649 -24.831   7.518  0.00  0.00    +0.159 HD
ATOM     10  C   LIG    1       25.433 -22.831   7.265  0.00  0.00    +0.236 C 
ATOM     11  O   LIG    1       25.908 -22.573   8.372  0.00  0.00    -0.274 OA
ENDROOT
BRANCH   1  12
ATOM     12  C   LIG    1       23.381 -21.413   6.726  0.00  0.00    +0.010 C 
ATOM     13  C   LIG    1       23.299 -20.472   7.945  0.00  0.00    +0.009 C 
BRANCH  12  14
ATOM     14  C   LIG    1       22.531 -20.859   5.542  0.00  0.00    +0.004 C 
BRANCH  14  15
ATOM     15  C   LIG    1       22.431 -19.328   5.466  0.00  0.00    -0.003 C 
ATOM     16  C   LIG    1       22.779 -18.805   4.077  0.00  0.00    +0.004 C 
ENDBRANCH  14  15
ENDBRANCH  12  14
ENDBRANCH   1  12
BRANCH   1  17
ATOM     17  C   LIG    1       25.787 -20.503   6.390  0.00  0.00    +0.052 C 
BRANCH  17  19
ATOM     18  C   LIG    1       28.162 -19.875   5.814  0.00  0.00    +0.004 C 
ATOM     19  C   LIG    1       27.272 -20.763   6.273  0.00  0.00    -0.033 C 
ENDBRANCH  17  19
ENDBRANCH   1  17
TORSDOF 5
ENDMDL
MODEL 5
REMARK VINA RESULT:      -6.7      2.191      4.518
REMARK  Name = *****
REMARK                            x       y       z     vdW  Elec       q    Type
REMARK                         _______ _______ _______ _____ _____    ______ ____
ROOT
ATOM      1  C   LIG    1       24.559 -20.813   5.935  0.00  0.00    +0.129 C 
ATOM      2  C   LIG    1       23.642 -21.033   7.137  0.00  0.00    +0.236 C 
ATOM      3  O   LIG    1       23.324 -20.142   7.923  0.00  0.00    -0.274 OA
ATOM      4  N   LIG    1       23.243 -22.320   7.389  0.00  0.00    -0.239 N 
ATOM      5  H   LIG    1       22.676 -22.464   8.210  0.00  0.00    +0.159 HD
ATOM      6  C   LIG    1       23.396 -23.391   6.565  0.00  0.00    +0.312 C 
ATOM      7  O   LIG    1       22.915 -24.485   6.834  0.00  0.00    -0.252 OA
ATOM      8  N   LIG    1       24.076 -23.173   5.406  0.00  0.00    -0.239 N 
ATOM      9  H   LIG    1       24.062 -23.933   4.743  0.00  0.00    +0.159 HD
ATOM     10  C   LIG    1       24.466 -21.954   4.929  0.00  0.00    +0.236 C 
ATOM     11  O   LIG    1       24.779 -21.839   3.743  0.00  0.00    -0.274 OA
ENDROOT
BRANCH   1  12
ATOM     12  C   LIG    1       26.051 -20.698   6.484  0.00  0.00    +0.010 C 
ATOM     13  C   LIG    1       26.611 -22.044   6.984  0.00  0.00    +0.009 C 
BRANCH  12  14
ATOM     14  C   LIG    1       27.035 -20.030   5.476  0.00  0.00    +0.004 C 
BRANCH  14  15
ATOM     15  C   LIG    1       28.472 -19.844   5.987  0.00  0.00    -0.003 C 
ATOM     16  C   LIG    1       29.049 -18.494   5.582  0.00  0.00    +0.004 C 
ENDBRANCH  14  15
ENDBRANCH  12  14
ENDBRANCH   1  12
BRANCH   1  17
ATOM     17  C   LIG    1       24.120 -19.487   5.246  0.00  0.00    +0.052 C 
BRANCH  17  19
ATOM     18  C   LIG    1       22.003 -18.387   4.425  0.00  0.00    +0.004 C 
ATOM     19  C   LIG    1       22.722 -19.488   4.670  0.00  0.00    -0.033 C 
ENDBRANCH  17  19
ENDBRANCH   1  17
TORSDOF 5
ENDMDL
MODEL 6
REMARK VINA RESULT:      -6.7      2.112      4.212
REMARK  Name = *****
REMARK                            x       y       z     vdW  Elec       q    Type
REMARK                         _______ _______ _______ _____ _____    ______ ____
ROOT
ATOM      1  C   LIG    1       24.377 -21.604   5.934  0.00  0.00    +0.129 C 
ATOM      2  C   LIG    1       24.048 -21.516   4.445  0.00  0.00    +0.236 C 
ATOM      3  O   LIG    1       24.493 -22.294   3.602  0.00  0.00    -0.274 OA
ATOM      4  N   LIG    1       23.294 -20.446   4.036  0.00  0.00    -0.239 N 
ATOM      5  H   LIG    1       23.120 -20.370   3.046  0.00  0.00    +0.159 HD
ATOM      6  C   LIG    1       22.626 -19.573   4.836  0.00  0.00    +0.312 C 
ATOM      7  O   LIG    1       21.893 -18.708   4.374  0.00  0.00    -0.252 OA
ATOM      8  N   LIG    1       22.780 -19.740   6.179  0.00  0.00    -0.239 N 
ATOM      9  H   LIG    1       22.174 -19.182   6.760  0.00  0.00    +0.159 HD
ATOM     10  C   LIG    1       23.404 -20.794   6.783  0.00  0.00    +0.236 C 
ATOM     11  O   LIG    1       23.209 -21.008   7.980  0.00  0.00    -0.274 OA
ENDROOT
BRANCH   1  12
ATOM     12  C   LIG    1       25.859 -21.049   6.133  0.00  0.00    +0.010 C 
ATOM     13  C   LIG    1       26.263 -20.025   5.054  0.00  0.00    +0.009 C 
BRANCH  12  14
ATOM     14  C   LIG    1       26.125 -20.483   7.561  0.00  0.00    +0.004 C 
BRANCH  14  15
ATOM     15  C   LIG    1       27.601 -20.217   7.896  0.00  0.00    -0.003 C 
ATOM     16  C   LIG    1       28.477 -21.429   7.605  0.00  0.00    +0.004 C 
ENDBRANCH  14  15
ENDBRANCH  12  14
ENDBRANCH   1  12
BRANCH   1  17
ATOM     17  C   LIG    1       24.289 -23.103   6.347  0.00  0.00    +0.052 C 
BRANCH  17  19
ATOM     18  C   LIG    1       25.801 -25.105   6.623  0.00  0.00    +0.004 C 
ATOM     19  C   LIG    1       25.615 -23.780   6.615  0.00  0.00    -0.033 C 
ENDBRANCH  17  19
ENDBRANCH   1  17
TORSDOF 5
ENDMDL
MODEL 7
REMARK VINA RESULT:      -6.7      1.125      4.146
REMARK  Name = *****
REMARK                            x       y       z     vdW  Elec       q    Type
REMARK                         _______ _______ _______ _____ _____    ______ ____
ROOT
ATOM      1  C   LIG    1       24.608 -22.174   6.695  0.00  0.00    +0.129 C 
ATOM      2  C   LIG    1       25.592 -21.643   7.737  0.00  0.00    +0.236 C 
ATOM      3  O   LIG    1       25.541 -21.933   8.931  0.00  0.00    -0.274 OA
ATOM      4  N   LIG    1       26.511 -20.720   7.311  0.00  0.00    -0.239 N 
ATOM      5  H   LIG    1       27.127 -20.340   8.014  0.00  0.00    +0.159 HD
ATOM      6  C   LIG    1       26.786 -20.385   6.022  0.00  0.00    +0.312 C 
ATOM      7  O   LIG    1       27.699 -19.620   5.735  0.00  0.00    -0.252 OA
ATOM      8  N   LIG    1       26.020 -20.977   5.064  0.00  0.00    -0.239 N 
ATOM      9  H   LIG    1       26.321 -20.831   4.114  0.00  0.00    +0.159 HD
ATOM     10  C   LIG    1       25.126 -21.988   5.274  0.00  0.00    +0.236 C 
ATOM     11  O   LIG    1       24.734 -22.657   4.317  0.00  0.00    -0.274 OA
ENDROOT
BRANCH   1  12
ATOM     12  C   LIG    1       23.238 -21.380   6.880  0.00  0.00    +0.010 C 
ATOM     13  C   LIG    1       23.375 -20.160   7.813  0.00  0.00    +0.009 C 
BRANCH  12  14
ATOM     14  C   LIG    1       22.568 -20.973   5.532  0.00  0.00    +0.004 C 
BRANCH  14  15
ATOM     15  C   LIG    1       22.482 -19.461   5.273  0.00  0.00    -0.003 C 
ATOM     16  C   LIG    1       23.181 -19.066   3.978  0.00  0.00    +0.004 C 
ENDBRANCH  14  15
ENDBRANCH  12  14
ENDBRANCH   1  12
BRANCH   1  17
ATOM     17  C   LIG    1       24.407 -23.694   6.971  0.00  0.00    +0.052 C 
BRANCH  17  19
ATOM     18  C   LIG    1       25.747 -25.728   6.314  0.00  0.00    +0.004 C 
ATOM     19  C   LIG    1       25.662 -24.534   6.912  0.00  0.00    -0.033 C 
ENDBRANCH  17  19
ENDBRANCH   1  17
TORSDOF 5
ENDMDL
MODEL 8
REMARK VINA RESULT:      -6.5      1.586      4.447
REMARK  Name = *****
REMARK                            x       y       z     vdW  Elec       q    Type
REMARK                         _______ _______ _______ _____ _____    ______ ____
ROOT
ATOM      1  C   LIG    1       24.865 -21.187   5.853  0.00  0.00    +0.129 C 
ATOM      2  C   LIG    1       24.011 -21.507   7.079  0.00  0.00    +0.236 C 
ATOM      3  O   LIG    1       22.916 -22.063   7.019  0.00  0.00    -0.274 OA
ATOM      4  N   LIG    1       24.465 -21.053   8.289  0.00  0.00    -0.239 N 
ATOM      5  H   LIG    1       23.874 -21.227   9.088  0.00  0.00    +0.159 HD
ATOM      6  C   LIG    1       25.697 -20.538   8.551  0.00  0.00    +0.312 C 
ATOM      7  O   LIG    1       26.047 -20.253   9.690  0.00  0.00    -0.252 OA
ATOM      8  N   LIG    1       26.535 -20.396   7.487  0.00  0.00    -0.239 N 
ATOM      9  H   LIG    1       27.485 -20.147   7.711  0.00  0.00    +0.159 HD
ATOM     10  C   LIG    1       26.309 -20.874   6.228  0.00  0.00    +0.236 C 
ATOM     11  O   LIG    1       27.250 -20.974   5.440  0.00  0.00    -0.274 OA
ENDROOT
BRANCH   1  12
ATOM     12  C   LIG    1       24.210 -19.928   5.126  0.00  0.00    +0.010 C 
ATOM     13  C   LIG    1       24.596 -19.829   3.637  0.00  0.00    +0.009 C 
BRANCH  12  14
ATOM     14  C   LIG    1       22.664 -19.841   5.304  0.00  0.00    +0.004 C 
BRANCH  14  15
ATOM     15  C   LIG    1       21.946 -18.878   4.345  0.00  0.00    -0.003 C 
ATOM     16  C   LIG    1       22.252 -17.421   4.670  0.00  0.00    +0.004 C 
ENDBRANCH  14  15
ENDBRANCH  12  14
ENDBRANCH   1  12
BRANCH   1  17
ATOM     17  C   LIG    1       24.838 -22.436   4.922  0.00  0.00    +0.052 C 
BRANCH  17  19
ATOM     18  C   LIG    1       25.112 -24.943   4.985  0.00  0.00    +0.004 C 
ATOM     19  C   LIG    1       25.069 -23.762   5.612  0.00  0.00    -0.033 C 
ENDBRANCH  17  19
ENDBRANCH   1  17
TORSDOF 5
ENDMDL
MODEL 9
REMARK VINA RESULT:      -6.5      1.723      3.642
REMARK  Name = *****
REMARK                            x       y       z     vdW  Elec       q    Type
REMARK                         _______ _______ _______ _____ _____    ______ ____
ROOT
ATOM      1  C   LIG    1       25.313 -20.992   6.599  0.00  0.00    +0.129 C 
ATOM      2  C   LIG    1       23.875 -20.811   7.083  0.00  0.00    +0.236 C 
ATOM      3  O   LIG    1       23.502 -21.081   8.224  0.00  0.00    -0.274 OA
ATOM      4  N   LIG    1       22.949 -20.419   6.152  0.00  0.00    -0.239 N 
ATOM      5  H   LIG    1       21.994 -20.346   6.468  0.00  0.00    +0.159 HD
ATOM      6  C   LIG    1       23.206 -19.964   4.896  0.00  0.00    +0.312 C 
ATOM      7  O   LIG    1       22.316 -19.539   4.170  0.00  0.00    -0.252 OA
ATOM      8  N   LIG    1       24.510 -19.967   4.504  0.00  0.00    -0.239 N 
ATOM      9  H   LIG    1       24.704 -19.501   3.631  0.00  0.00    +0.159 HD
ATOM     10  C   LIG    1       25.582 -20.226   5.309  0.00  0.00    +0.236 C 
ATOM     11  O   LIG    1       26.710 -19.891   4.943  0.00  0.00    -0.274 OA
ENDROOT
BRANCH   1  12
ATOM     12  C   LIG    1       25.547 -22.551   6.359  0.00  0.00    +0.010 C 
ATOM     13  C   LIG    1       26.012 -23.288   7.631  0.00  0.00    +0.009 C 
BRANCH  12  14
ATOM     14  C   LIG    1       24.322 -23.273   5.719  0.00  0.00    +0.004 C 
BRANCH  14  15
ATOM     15  C   LIG    1       23.772 -24.465   6.517  0.00  0.00    -0.003 C 
ATOM     16  C   LIG    1       24.140 -25.797   5.875  0.00  0.00    +0.004 C 
ENDBRANCH  14  15
ENDBRANCH  12  14
ENDBRANCH   1  12
BRANCH   1  17
ATOM     17  C   LIG    1       26.257 -20.458   7.717  0.00  0.00    +0.052 C 
BRANCH  17  19
ATOM     18  C   LIG    1       28.711 -19.879   7.790  0.00  0.00    +0.004 C 
ATOM     19  C   LIG    1       27.727 -20.743   7.514  0.00  0.00    -0.033 C 
ENDBRANCH  17  19
ENDBRANCH   1  17
TORSDOF 5
ENDMDL
