MODEL 1
REMARK VINA RESULT:      -6.4      0.000      0.000
REMARK  Name = *****
REMARK                            x       y       z     vdW  Elec       q    Type
REMARK                         _______ _______ _______ _____ _____    ______ ____
ROOT
ATOM      1  C   LIG    1       30.397 -19.447   7.629  0.00  0.00    +0.100 A 
ATOM      2  C   LIG    1       29.678 -20.630   7.837  0.00  0.00    +0.131 A 
ATOM      3  C   LIG    1       28.603 -20.955   7.004  0.00  0.00    +0.046 A 
ATOM      4  C   LIG    1       28.251 -20.106   5.952  0.00  0.00    +0.004 A 
ATOM      5  C   LIG    1       28.974 -18.937   5.726  0.00  0.00    +0.001 A 
ATOM      6  C   LIG    1       30.045 -18.610   6.559  0.00  0.00    +0.019 A 
ENDROOT
BRANCH   1   7
ATOM      7  C   LIG    1       31.545 -19.016   8.465  0.00  0.00    +0.343 C 
ATOM      8  O   LIG    1       32.102 -19.758   9.260  0.00  0.00    -0.245 OA
BRANCH   7  10
ATOM      9  C   LIG    1       32.183 -16.907   9.249  0.00  0.00    +0.280 C 
ATOM     10  O   LIG    1       31.945 -17.764   8.134  0.00  0.00    -0.464 OA
ENDBRANCH   7  10
ENDBRANCH   1   7
BRANCH   2  11
ATOM     11  O   LIG    1       30.031 -21.505   8.827  0.00  0.00    -0.506 OA
ATOM     12  H   LIG    1       29.276 -21.647   9.420  0.00  0.00    +0.292 HD
ENDBRANCH   2  11
TORSDOF 3
ENDMDL
MODEL 2
REMARK VINA RESULT:      -6.4      1.348      1.971
REMARK  Name = *****
REMARK                            x       y       z     vdW  Elec       q    Type
REMARK                         _______ _______ _______ _____ _____    ______ ____
ROOT
ATOM      1  C   LIG    1       30.850 -19.195   8.561  0.00  0.00    +0.100 A 
ATOM      2  C   LIG    1       31.090 -20.559   8.764  0.00  0.00    +0.131 A 
ATOM      3  C   LIG    1       30.184 -21.511   8.287  0.00  0.00    +0.046 A 
ATOM      4  C   LIG    1       29.041 -21.105   7.594  0.00  0.00    +0.004 A 
ATOM      5  C   LIG    1       28.804 -19.750   7.370  0.00  0.00    +0.001 A 
ATOM      6  C   LIG    1       29.706 -18.798   7.849  0.00  0.00    +0.019 A 
ENDROOT
BRANCH   1   7
ATOM      7  C   LIG    1       31.748 -18.113   9.037  0.00  0.00    +0.343 C 
ATOM      8  O   LIG    1       32.149 -17.218   8.308  0.00  0.00    -0.245 OA
BRANCH   7  10
ATOM      9  C   LIG    1       30.944 -17.551  11.159  0.00  0.00    +0.280 C 
ATOM     10  O   LIG    1       31.945 -18.197  10.375  0.00  0.00    -0.464 OA
ENDBRANCH   7  10
ENDBRANCH   1   7
BRANCH   2  11
ATOM     11  O   LIG    1       32.225 -20.988   9.394  0.00  0.00    -0.506 OA
ATOM     12  H   LIG    1       33.000 -20.564   8.992  0.00  0.00    +0.292 HD
ENDBRANCH   2  11
TORSDOF 3
ENDMDL
MODEL 3
REMARK VINA RESULT:      -6.3      5.377      6.665
REMARK  Name = *****
REMARK                            x       y       z     vdW  Elec       q    Type
REMARK                         _______ _______ _______ _____ _____    ______ ____
ROOT
ATOM      1  C   LIG    1       24.389 -20.656   5.744  0.00  0.00    +0.100 A 
ATOM      2  C   LIG    1       25.101 -20.153   4.648  0.00  0.00    +0.131 A 
ATOM      3  C   LIG    1       24.478 -19.290   3.741  0.00  0.00    +0.046 A 
ATOM      4  C   LIG    1       23.146 -18.915   3.934  0.00  0.00    +0.004 A 
ATOM      5  C   LIG    1       22.437 -19.394   5.033  0.00  0.00    +0.001 A 
ATOM      6  C   LIG    1       23.056 -20.259   5.937  0.00  0.00    +0.019 A 
ENDROOT
BRANCH   1   7
ATOM      7  C   LIG    1       24.962 -21.581   6.753  0.00  0.00    +0.343 C 
ATOM      8  O   LIG    1       25.583 -22.590   6.450  0.00  0.00    -0.245 OA
BRANCH   7  10
ATOM      9  C   LIG    1       26.010 -20.620   8.609  0.00  0.00    +0.280 C 
ATOM     10  O   LIG    1       24.806 -21.092   8.007  0.00  0.00    -0.464 OA
ENDBRANCH   7  10
ENDBRANCH   1   7
BRANCH   2  11
ATOM     11  O   LIG    1       26.419 -20.463   4.463  0.00  0.00    -0.506 OA
ATOM     12  H   LIG    1       26.958 -19.661   4.561  0.00  0.00    +0.292 HD
ENDBRANCH   2  11
TORSDOF 3
ENDMDL
MODEL 4
REMARK VINA RESULT:      -6.2      6.627      7.869
REMARK  Name = *****
REMARK                            x       y       z     vdW  Elec       q    Type
REMARK                         _______ _______ _______ _____ _____    ______ ____
ROOT
ATOM      1  C   LIG    1       24.058 -22.728   6.902  0.00  0.00    +0.100 A 
ATOM      2  C   LIG    1       23.285 -23.862   6.622  0.00  0.00    +0.131 A 
ATOM      3  C   LIG    1       23.901 -25.103   6.436  0.00  0.00    +0.046 A 
ATOM      4  C   LIG    1       25.289 -25.220   6.540  0.00  0.00    +0.004 A 
ATOM      5  C   LIG    1       26.064 -24.101   6.837  0.00  0.00    +0.001 A 
ATOM      6  C   LIG    1       25.451 -22.860   7.021  0.00  0.00    +0.019 A 
ENDROOT
BRANCH   1   7
ATOM      7  C   LIG    1       23.497 -21.370   7.107  0.00  0.00    +0.343 C 
ATOM      8  O   LIG    1       23.837 -20.645   8.031  0.00  0.00    -0.245 OA
BRANCH   7  10
ATOM      9  C   LIG    1       23.223 -20.054   5.194  0.00  0.00    +0.280 C 
ATOM     10  O   LIG    1       22.675 -21.023   6.087  0.00  0.00    -0.464 OA
ENDBRANCH   7  10
ENDBRANCH   1   7
BRANCH   2  11
ATOM     11  O   LIG    1       21.922 -23.787   6.564  0.00  0.00    -0.506 OA
ATOM     12  H   LIG    1       21.568 -23.606   7.450  0.00  0.00    +0.292 HD
ENDBRANCH   2  11
TORSDOF 3
ENDMDL
MODEL 5
REMARK VINA RESULT:      -6.2      4.539      6.165
REMARK  Name = *****
REMARK                            x       y       z     vdW  Elec       q    Type
REMARK                         _______ _______ _______ _____ _____    ______ ____
ROOT
ATOM      1  C   LIG    1       25.325 -22.419   7.695  0.00  0.00    +0.100 A 
ATOM      2  C   LIG    1       23.966 -22.183   7.453  0.00  0.00    +0.131 A 
ATOM      3  C   LIG    1       23.184 -23.157   6.825  0.00  0.00    +0.046 A 
ATOM      4  C   LIG    1       23.754 -24.376   6.448  0.00  0.00    +0.004 A 
ATOM      5  C   LIG    1       25.101 -24.626   6.702  0.00  0.00    +0.001 A 
ATOM      6  C   LIG    1       25.883 -23.654   7.327  0.00  0.00    +0.019 A 
ENDROOT
BRANCH   1   7
ATOM      7  C   LIG    1       26.234 -21.444   8.348  0.00  0.00    +0.343 C 
ATOM      8  O   LIG    1       25.895 -20.758   9.301  0.00  0.00    -0.245 OA
BRANCH   7  10
ATOM      9  C   LIG    1       28.112 -20.255   7.621  0.00  0.00    +0.280 C 
ATOM     10  O   LIG    1       27.483 -21.519   7.827  0.00  0.00    -0.464 OA
ENDBRANCH   7  10
ENDBRANCH   1   7
BRANCH   2  11
ATOM     11  O   LIG    1       23.371 -21.020   7.857  0.00  0.00    -0.506 OA
ATOM     12  H   LIG    1       23.873 -20.637   8.595  0.00  0.00    +0.292 HD
ENDBRANCH   2  11
TORSDOF 3
ENDMDL
MODEL 6
REMARK VINA RESULT:      -6.1      6.488      8.247
REMARK  Name = *****
REMARK                            x       y       z     vdW  Elec       q    Type
REMARK                         _______ _______ _______ _____ _____    ______ ____
ROOT
ATOM      1  C   LIG    1       24.584 -23.876   6.607  0.00  0.00    +0.100 A 
ATOM      2  C   LIG    1       23.378 -23.205   6.847  0.00  0.00    +0.131 A 
ATOM      3  C   LIG    1       23.387 -21.903   7.357  0.00  0.00    +0.046 A 
ATOM      4  C   LIG    1       24.601 -21.261   7.617  0.00  0.00    +0.004 A 
ATOM      5  C   LIG    1       25.805 -21.914   7.363  0.00  0.00    +0.001 A 
ATOM      6  C   LIG    1       25.797 -23.215   6.857  0.00  0.00    +0.019 A 
ENDROOT
BRANCH   1   7
ATOM      7  C   LIG    1       24.674 -25.258   6.076  0.00  0.00    +0.343 C 
ATOM      8  O   LIG    1       23.765 -26.068   6.180  0.00  0.00    -0.245 OA
BRANCH   7  10
ATOM      9  C   LIG    1       26.075 -26.790   5.000  0.00  0.00    +0.280 C 
ATOM     10  O   LIG    1       25.821 -25.438   5.377  0.00  0.00    -0.464 OA
ENDBRANCH   7  10
ENDBRANCH   1   7
BRANCH   2  11
ATOM     11  O   LIG    1       22.177 -23.789   6.554  0.00  0.00    -0.506 OA
ATOM     12  H   LIG    1       22.294 -24.749   6.472  0.00  0.00    +0.292 HD
ENDBRANCH   2  11
TORSDOF 3
ENDMDL
MODEL 7
REMARK VINA RESULT:      -6.1      3.728      5.317
REMARK  Name = *****
REMARK                            x       y       z     vdW  Elec       q    Type
REMARK                         _______ _______ _______ _____ _____    ______ ____
ROOT
ATOM      1  C   LIG    1       25.669 -20.646   6.793  0.00  0.00    +0.100 A 
ATOM      2  C   LIG    1       25.626 -20.420   5.411  0.00  0.00    +0.131 A 
ATOM      3  C   LIG    1       24.400 -20.408   4.739  0.00  0.00    +0.046 A 
ATOM      4  C   LIG    1       23.212 -20.609   5.446  0.00  0.00    +0.004 A 
ATOM      5  C   LIG    1       23.244 -20.815   6.823  0.00  0.00    +0.001 A 
ATOM      6  C   LIG    1       24.467 -20.830   7.495  0.00  0.00    +0.019 A 
ENDROOT
BRANCH   1   7
ATOM      7  C   LIG    1       26.921 -20.684   7.589  0.00  0.00    +0.343 C 
ATOM      8  O   LIG    1       26.995 -20.243   8.727  0.00  0.00    -0.245 OA
BRANCH   7  10
ATOM      9  C   LIG    1       29.210 -20.858   7.144  0.00  0.00    +0.280 C 
ATOM     10  O   LIG    1       27.893 -21.366   6.937  0.00  0.00    -0.464 OA
ENDBRANCH   7  10
ENDBRANCH   1   7
BRANCH   2  11
ATOM     11  O   LIG    1       26.768 -20.170   4.703  0.00  0.00    -0.506 OA
ATOM     12  H   LIG    1       27.372 -20.926   4.782  0.00  0.00    +0.292 HD
ENDBRANCH   2  11
TORSDOF 3
ENDMDL
MODEL 8
REMARK VINA RESULT:      -6.0      2.933      4.031
REMARK  Name = *****
REMARK                            x       y       z     vdW  Elec       q    Type
REMARK                         _______ _______ _______ _____ _____    ______ ____
ROOT
ATOM      1  C   LIG    1       26.726 -20.474   7.139  0.00  0.00    +0.100 A 
ATOM      2  C   LIG    1       25.666 -20.677   8.031  0.00  0.00    +0.131 A 
ATOM      3  C   LIG    1       24.355 -20.778   7.555  0.00  0.00    +0.046 A 
ATOM      4  C   LIG    1       24.100 -20.690   6.184  0.00  0.00    +0.004 A 
ATOM      5  C   LIG    1       25.151 -20.508   5.288  0.00  0.00    +0.001 A 
ATOM      6  C   LIG    1       26.459 -20.403   5.762  0.00  0.00    +0.019 A 
ENDROOT
BRANCH   1   7
ATOM      7  C   LIG    1       28.146 -20.346   7.551  0.00  0.00    +0.343 C 
ATOM      8  O   LIG    1       28.654 -21.056   8.407  0.00  0.00    -0.245 OA
BRANCH   7  10
ATOM      9  C   LIG    1       30.220 -19.569   6.800  0.00  0.00    +0.280 C 
ATOM     10  O   LIG    1       28.799 -19.446   6.777  0.00  0.00    -0.464 OA
ENDBRANCH   7  10
ENDBRANCH   1   7
BRANCH   2  11
ATOM     11  O   LIG    1       25.892 -20.818   9.372  0.00  0.00    -0.506 OA
ATOM     12  H   LIG    1       26.789 -21.160   9.516  0.00  0.00    +0.292 HD
ENDBRANCH   2  11
TORSDOF 3
ENDMDL
MODEL 9
REMARK VINA RESULT:      -5.9      4.934      6.987
REMARK  Name = *****
REMARK                            x       y       z     vdW  Elec       q    Type
REMARK                         _______ _______ _______ _____ _____    ______ ____
ROOT
ATOM      1  C   LIG    1       24.853 -20.673   6.283  0.00  0.00    +0.100 A 
ATOM      2  C   LIG    1       26.098 -20.444   5.684  0.00  0.00    +0.131 A 
ATOM      3  C   LIG    1       27.248 -20.334   6.471  0.00  0.00    +0.046 A 
ATOM      4  C   LIG    1       27.161 -20.465   7.860  0.00  0.00    +0.004 A 
ATOM      5  C   LIG    1       25.929 -20.712   8.462  0.00  0.00    +0.001 A 
ATOM      6  C   LIG    1       24.780 -20.819   7.678  0.00  0.00    +0.019 A 
ENDROOT
BRANCH   1   7
ATOM      7  C   LIG    1       23.580 -20.796   5.531  0.00  0.00    +0.343 C 
ATOM      8  O   LIG    1       22.701 -21.588   5.841  0.00  0.00    -0.245 OA
BRANCH   7  10
ATOM      9  C   LIG    1       22.379 -18.967   4.706  0.00  0.00    +0.280 C 
ATOM     10  O   LIG    1       23.491 -19.850   4.565  0.00  0.00    -0.464 OA
ENDBRANCH   7  10
ENDBRANCH   1   7
BRANCH   2  11
ATOM     11  O   LIG    1       26.220 -20.363   4.325  0.00  0.00    -0.506 OA
ATOM     12  H   LIG    1       27.098 -20.014   4.098  0.00  0.00    +0.292 HD
ENDBRANCH   2  11
TORSDOF 3
ENDMDL
