MODEL 1
REMARK VINA RESULT:       9.6      0.000      0.000
REMARK  Name = *****
REMARK                            x       y       z     vdW  Elec       q    Type
REMARK                         _______ _______ _______ _____ _____    ______ ____
ROOT
ATOM      1  C   LIG    1       25.398 -13.238   3.324  0.00  0.00    +0.169 C 
ATOM      2  C   LIG    1       24.018 -12.744   3.209  0.00  0.00    +0.084 C 
ATOM      3  C   LIG    1       23.075 -13.114   4.277  0.00  0.00    +0.042 C 
ATOM      4  C   LIG    1       23.600 -14.112   5.236  0.00  0.00    +0.084 C 
ATOM      5  C   LIG    1       24.073 -15.276   4.325  0.00  0.00    +0.169 C 
ATOM      6  C   LIG    1       25.164 -14.790   3.278  0.00  0.00    +0.175 C 
ENDROOT
BRANCH   2   7
ATOM      7  N   LIG    1       23.677 -12.950   1.812  0.00  0.00    -0.325 NA
ATOM      8  H   LIG    1       23.860 -12.037   1.508  0.00  0.00    +0.118 HD
ATOM      9  H   LIG    1       22.696 -12.950   1.618  0.00  0.00    +0.118 HD
ENDBRANCH   2   7
BRANCH   4  10
ATOM     10  N   LIG    1       22.662 -14.412   6.325  0.00  0.00    -0.325 NA
ATOM     11  H   LIG    1       22.890 -15.359   6.640  0.00  0.00    +0.118 HD
ATOM     12  H   LIG    1       21.690 -14.518   6.044  0.00  0.00    +0.118 HD
ENDBRANCH   4  10
BRANCH   6  13
ATOM     13  O   LIG    1       26.426 -15.424   3.325  0.00  0.00    -0.387 OA
ATOM     14  H   LIG    1       26.347 -16.161   2.686  0.00  0.00    +0.210 HD
ENDBRANCH   6  13
BRANCH   1  15
ATOM     15  O   LIG    1       25.953 -12.635   4.461  0.00  0.00    -0.342 OA
BRANCH  15  18
ATOM     16  C   LIG    1       27.661 -15.475   4.336  0.00  0.00    +0.138 C 
ATOM     17  O   LIG    1       26.973 -14.684   5.317  0.00  0.00    -0.345 OA
ATOM     18  C   LIG    1       27.058 -13.257   5.192  0.00  0.00    +0.268 C 
ATOM     19  C   LIG    1       28.604 -12.885   5.033  0.00  0.00    +0.107 C 
ATOM     20  C   LIG    1       29.300 -13.592   3.833  0.00  0.00    +0.026 C 
ATOM     21  C   LIG    1       28.367 -14.702   3.237  0.00  0.00    +0.035 C 
BRANCH  19  22
ATOM     22  N   LIG    1       29.029 -11.495   5.249  0.00  0.00    -0.323 NA
ATOM     23  H   LIG    1       29.048 -11.225   6.228  0.00  0.00    +0.119 HD
ATOM     24  H   LIG    1       29.968 -11.327   4.891  0.00  0.00    +0.119 HD
ENDBRANCH  19  22
BRANCH  16  25
ATOM     25  C   LIG    1       28.785 -16.390   4.839  0.00  0.00    +0.079 C 
ATOM     26  C   LIG    1       28.895 -16.410   6.337  0.00  0.00    +0.026 C 
BRANCH  25  28
ATOM     27  C   LIG    1       28.501 -18.824   5.144  0.00  0.00    +0.101 C 
ATOM     28  N   LIG    1       28.500 -17.707   4.247  0.00  0.00    -0.314 NA
ATOM     29  H   LIG    1       27.697 -17.691   3.622  0.00  0.00    +0.122 HD
ENDBRANCH  25  28
ENDBRANCH  16  25
ENDBRANCH  15  18
ENDBRANCH   1  15
BRANCH   5  30
ATOM     30  O   LIG    1       22.906 -15.960   3.742  0.00  0.00    -0.341 OA
BRANCH  30  31
ATOM     31  C   LIG    1       22.670 -17.412   3.679  0.00  0.00    +0.281 C 
ATOM     32  C   LIG    1       23.966 -18.433   3.633  0.00  0.00    +0.190 C 
ATOM     33  C   LIG    1       23.574 -19.898   4.024  0.00  0.00    +0.121 C 
ATOM     34  C   LIG    1       22.429 -20.201   5.070  0.00  0.00    +0.104 C 
ATOM     35  C   LIG    1       23.000 -20.268   6.613  0.00  0.00    +0.045 C 
ATOM     36  C   LIG    1       21.198 -19.258   4.652  0.00  0.00    +0.199 C 
ATOM     37  O   LIG    1       21.515 -17.848   4.431  0.00  0.00    -0.346 OA
BRANCH  33  38
ATOM     38  N   LIG    1       23.409 -20.628   2.763  0.00  0.00    -0.311 NA
ATOM     39  H   LIG    1       23.081 -19.942   2.085  0.00  0.00    +0.122 HD
ATOM     40  C   LIG    1       24.642 -21.206   2.259  0.00  0.00    +0.101 C 
ENDBRANCH  33  38
BRANCH  32  41
ATOM     41  O   LIG    1       25.252 -18.334   4.316  0.00  0.00    -0.385 OA
ATOM     42  H   LIG    1       26.028 -18.604   3.803  0.00  0.00    +0.210 HD
ENDBRANCH  32  41
BRANCH  34  43
ATOM     43  O   LIG    1       21.989 -21.568   4.933  0.00  0.00    -0.385 OA
ATOM     44  H   LIG    1       22.806 -22.093   4.847  0.00  0.00    +0.210 HD
ENDBRANCH  34  43
ENDBRANCH  30  31
ENDBRANCH   5  30
TORSDOF 13
ENDMDL
