MODEL 1
REMARK VINA RESULT:      -8.9      0.000      0.000
REMARK  Name = *****
REMARK                            x       y       z     vdW  Elec       q    Type
REMARK                         _______ _______ _______ _____ _____    ______ ____
ROOT
ATOM      1  S   LIG    1       26.421 -21.826   7.893  0.00  0.00    +0.073 S 
ATOM      2  O   LIG    1       26.391 -21.016   9.093  0.00  0.00    -0.150 OA
ATOM      3  O   LIG    1       26.100 -23.234   7.924  0.00  0.00    -0.150 OA
ENDROOT
BRANCH   1   4
ATOM      4  C   LIG    1       25.368 -21.035   6.702  0.00  0.00    +0.109 A 
ATOM      5  C   LIG    1       25.904 -20.585   5.494  0.00  0.00    +0.030 A 
ATOM      6  C   LIG    1       25.063 -19.988   4.552  0.00  0.00    +0.024 A 
ATOM      7  C   LIG    1       23.689 -19.867   4.789  0.00  0.00    +0.025 A 
ATOM      8  C   LIG    1       23.186 -20.254   6.035  0.00  0.00    +0.024 A 
ATOM      9  C   LIG    1       24.014 -20.851   6.988  0.00  0.00    +0.030 A 
BRANCH   7  10
ATOM     10  N   LIG    1       22.882 -19.150   3.901  0.00  0.00    -0.358 N 
ATOM     11  H   LIG    1       22.586 -18.242   4.246  0.00  0.00    +0.142 HD
ATOM     12  H   LIG    1       23.242 -19.103   2.953  0.00  0.00    +0.142 HD
ENDBRANCH   7  10
ENDBRANCH   1   4
BRANCH   1  13
ATOM     13  N   LIG    1       27.925 -21.642   7.217  0.00  0.00    -0.199 N 
ATOM     14  H   LIG    1       28.081 -22.251   6.416  0.00  0.00    +0.175 HD
BRANCH  13  19
ATOM     15  N   LIG    1       30.934 -19.125   8.239  0.00  0.00    -0.299 N 
ATOM     16  C   LIG    1       30.951 -20.467   8.643  0.00  0.00    +0.350 C 
ATOM     17  O   LIG    1       31.880 -20.920   9.310  0.00  0.00    -0.244 OA
ATOM     18  N   LIG    1       29.892 -21.268   8.284  0.00  0.00    -0.177 NA
ATOM     19  C   LIG    1       28.979 -20.774   7.528  0.00  0.00    +0.145 C 
ATOM     20  C   LIG    1       28.947 -19.407   7.001  0.00  0.00    +0.063 C 
ATOM     21  C   LIG    1       29.951 -18.634   7.413  0.00  0.00    +0.094 C 
BRANCH  15  23
ATOM     22  C   LIG    1       31.530 -16.996   9.363  0.00  0.00    +0.027 C 
ATOM     23  C   LIG    1       32.027 -18.244   8.649  0.00  0.00    +0.123 C 
ENDBRANCH  15  23
ENDBRANCH  13  19
ENDBRANCH   1  13
TORSDOF 5
ENDMDL
MODEL 2
REMARK VINA RESULT:      -8.8      2.443      3.095
REMARK  Name = *****
REMARK                            x       y       z     vdW  Elec       q    Type
REMARK                         _______ _______ _______ _____ _____    ______ ____
ROOT
ATOM      1  S   LIG    1       26.187 -21.520   7.843  0.00  0.00    +0.073 S 
ATOM      2  O   LIG    1       25.689 -20.436   7.021  0.00  0.00    -0.150 OA
ATOM      3  O   LIG    1       26.020 -21.519   9.278  0.00  0.00    -0.150 OA
ENDROOT
BRANCH   1   4
ATOM      4  C   LIG    1       25.499 -23.024   7.198  0.00  0.00    +0.109 A 
ATOM      5  C   LIG    1       24.114 -23.163   7.093  0.00  0.00    +0.030 A 
ATOM      6  C   LIG    1       23.582 -24.340   6.560  0.00  0.00    +0.024 A 
ATOM      7  C   LIG    1       24.418 -25.363   6.101  0.00  0.00    +0.025 A 
ATOM      8  C   LIG    1       25.799 -25.236   6.285  0.00  0.00    +0.024 A 
ATOM      9  C   LIG    1       26.345 -24.067   6.818  0.00  0.00    +0.030 A 
BRANCH   7  10
ATOM     10  N   LIG    1       23.876 -26.586   5.695  0.00  0.00    -0.358 N 
ATOM     11  H   LIG    1       22.898 -26.542   5.430  0.00  0.00    +0.142 HD
ATOM     12  H   LIG    1       24.439 -27.088   5.014  0.00  0.00    +0.142 HD
ENDBRANCH   7  10
ENDBRANCH   1   4
BRANCH   1  13
ATOM     13  N   LIG    1       27.802 -21.691   7.501  0.00  0.00    -0.199 N 
ATOM     14  H   LIG    1       28.020 -22.565   7.027  0.00  0.00    +0.175 HD
BRANCH  13  19
ATOM     15  N   LIG    1       30.910 -19.192   8.228  0.00  0.00    -0.299 N 
ATOM     16  C   LIG    1       30.928 -20.515   8.692  0.00  0.00    +0.350 C 
ATOM     17  O   LIG    1       31.886 -20.956   9.323  0.00  0.00    -0.244 OA
ATOM     18  N   LIG    1       29.835 -21.310   8.433  0.00  0.00    -0.177 NA
ATOM     19  C   LIG    1       28.888 -20.832   7.710  0.00  0.00    +0.145 C 
ATOM     20  C   LIG    1       28.848 -19.489   7.124  0.00  0.00    +0.063 C 
ATOM     21  C   LIG    1       29.888 -18.719   7.440  0.00  0.00    +0.094 C 
BRANCH  15  23
ATOM     22  C   LIG    1       31.617 -17.058   9.276  0.00  0.00    +0.027 C 
ATOM     23  C   LIG    1       32.041 -18.316   8.533  0.00  0.00    +0.123 C 
ENDBRANCH  15  23
ENDBRANCH  13  19
ENDBRANCH   1  13
TORSDOF 5
ENDMDL
MODEL 3
REMARK VINA RESULT:      -8.7      2.416      7.144
REMARK  Name = *****
REMARK                            x       y       z     vdW  Elec       q    Type
REMARK                         _______ _______ _______ _____ _____    ______ ____
ROOT
ATOM      1  S   LIG    1       30.626 -18.920   7.261  0.00  0.00    +0.073 S 
ATOM      2  O   LIG    1       29.879 -18.032   6.396  0.00  0.00    -0.150 OA
ATOM      3  O   LIG    1       31.853 -19.547   6.825  0.00  0.00    -0.150 OA
ENDROOT
BRANCH   1   4
ATOM      4  C   LIG    1       30.953 -18.032   8.764  0.00  0.00    +0.109 A 
ATOM      5  C   LIG    1       29.990 -18.000   9.774  0.00  0.00    +0.030 A 
ATOM      6  C   LIG    1       30.266 -17.321  10.963  0.00  0.00    +0.024 A 
ATOM      7  C   LIG    1       31.505 -16.704  11.167  0.00  0.00    +0.025 A 
ATOM      8  C   LIG    1       32.426 -16.683  10.116  0.00  0.00    +0.024 A 
ATOM      9  C   LIG    1       32.164 -17.355   8.920  0.00  0.00    +0.030 A 
BRANCH   7  10
ATOM     10  N   LIG    1       31.721 -15.916  12.302  0.00  0.00    -0.358 N 
ATOM     11  H   LIG    1       31.038 -15.177  12.433  0.00  0.00    +0.142 HD
ATOM     12  H   LIG    1       31.886 -16.445  13.153  0.00  0.00    +0.142 HD
ENDBRANCH   7  10
ENDBRANCH   1   4
BRANCH   1  13
ATOM     13  N   LIG    1       29.581 -20.104   7.768  0.00  0.00    -0.199 N 
ATOM     14  H   LIG    1       30.009 -20.771   8.406  0.00  0.00    +0.175 HD
BRANCH  13  19
ATOM     15  N   LIG    1       25.661 -20.827   7.028  0.00  0.00    -0.299 N 
ATOM     16  C   LIG    1       26.169 -20.888   8.333  0.00  0.00    +0.350 C 
ATOM     17  O   LIG    1       25.442 -21.153   9.289  0.00  0.00    -0.244 OA
ATOM     18  N   LIG    1       27.511 -20.654   8.520  0.00  0.00    -0.177 NA
ATOM     19  C   LIG    1       28.220 -20.311   7.506  0.00  0.00    +0.145 C 
ATOM     20  C   LIG    1       27.733 -20.146   6.133  0.00  0.00    +0.063 C 
ATOM     21  C   LIG    1       26.444 -20.438   5.968  0.00  0.00    +0.094 C 
BRANCH  15  23
ATOM     22  C   LIG    1       23.668 -20.321   5.641  0.00  0.00    +0.027 C 
ATOM     23  C   LIG    1       24.245 -21.118   6.801  0.00  0.00    +0.123 C 
ENDBRANCH  15  23
ENDBRANCH  13  19
ENDBRANCH   1  13
TORSDOF 5
ENDMDL
MODEL 4
REMARK VINA RESULT:      -8.3      1.297      1.607
REMARK  Name = *****
REMARK                            x       y       z     vdW  Elec       q    Type
REMARK                         _______ _______ _______ _____ _____    ______ ____
ROOT
ATOM      1  S   LIG    1       26.216 -22.180   7.633  0.00  0.00    +0.073 S 
ATOM      2  O   LIG    1       26.276 -21.529   8.925  0.00  0.00    -0.150 OA
ATOM      3  O   LIG    1       25.889 -23.582   7.507  0.00  0.00    -0.150 OA
ENDROOT
BRANCH   1   4
ATOM      4  C   LIG    1       25.085 -21.249   6.630  0.00  0.00    +0.109 A 
ATOM      5  C   LIG    1       25.490 -20.784   5.378  0.00  0.00    +0.030 A 
ATOM      6  C   LIG    1       24.586 -20.074   4.585  0.00  0.00    +0.024 A 
ATOM      7  C   LIG    1       23.273 -19.854   5.014  0.00  0.00    +0.025 A 
ATOM      8  C   LIG    1       22.909 -20.261   6.302  0.00  0.00    +0.024 A 
ATOM      9  C   LIG    1       23.803 -20.969   7.107  0.00  0.00    +0.030 A 
BRANCH   7  10
ATOM     10  N   LIG    1       22.419 -19.030   4.274  0.00  0.00    -0.358 N 
ATOM     11  H   LIG    1       22.853 -18.596   3.467  0.00  0.00    +0.142 HD
ATOM     12  H   LIG    1       21.522 -19.450   4.050  0.00  0.00    +0.142 HD
ENDBRANCH   7  10
ENDBRANCH   1   4
BRANCH   1  13
ATOM     13  N   LIG    1       27.669 -21.907   6.879  0.00  0.00    -0.199 N 
ATOM     14  H   LIG    1       27.786 -22.451   6.027  0.00  0.00    +0.175 HD
BRANCH  13  19
ATOM     15  N   LIG    1       30.773 -19.420   7.663  0.00  0.00    -0.299 N 
ATOM     16  C   LIG    1       29.812 -19.088   6.698  0.00  0.00    +0.350 C 
ATOM     17  O   LIG    1       29.878 -18.034   6.069  0.00  0.00    -0.244 OA
ATOM     18  N   LIG    1       28.793 -19.982   6.460  0.00  0.00    -0.177 NA
ATOM     19  C   LIG    1       28.721 -21.037   7.188  0.00  0.00    +0.145 C 
ATOM     20  C   LIG    1       29.643 -21.399   8.269  0.00  0.00    +0.063 C 
ATOM     21  C   LIG    1       30.655 -20.549   8.438  0.00  0.00    +0.094 C 
BRANCH  15  23
ATOM     22  C   LIG    1       31.689 -17.652   9.141  0.00  0.00    +0.027 C 
ATOM     23  C   LIG    1       31.890 -18.506   7.898  0.00  0.00    +0.123 C 
ENDBRANCH  15  23
ENDBRANCH  13  19
ENDBRANCH   1  13
TORSDOF 5
ENDMDL
MODEL 5
REMARK VINA RESULT:      -8.2      3.018      3.800
REMARK  Name = *****
REMARK                            x       y       z     vdW  Elec       q    Type
REMARK                         _______ _______ _______ _____ _____    ______ ____
ROOT
ATOM      1  S   LIG    1       25.057 -21.151   6.952  0.00  0.00    +0.073 S 
ATOM      2  O   LIG    1       23.992 -20.461   6.254  0.00  0.00    -0.150 OA
ATOM      3  O   LIG    1       25.325 -20.909   8.351  0.00  0.00    -0.150 OA
ENDROOT
BRANCH   1   4
ATOM      4  C   LIG    1       24.788 -22.892   6.725  0.00  0.00    +0.109 A 
ATOM      5  C   LIG    1       23.486 -23.392   6.678  0.00  0.00    +0.030 A 
ATOM      6  C   LIG    1       23.284 -24.759   6.473  0.00  0.00    +0.024 A 
ATOM      7  C   LIG    1       24.366 -25.624   6.281  0.00  0.00    +0.025 A 
ATOM      8  C   LIG    1       25.663 -25.117   6.408  0.00  0.00    +0.024 A 
ATOM      9  C   LIG    1       25.881 -23.753   6.615  0.00  0.00    +0.030 A 
BRANCH   7  10
ATOM     10  N   LIG    1       24.159 -27.005   6.211  0.00  0.00    -0.358 N 
ATOM     11  H   LIG    1       24.693 -27.471   5.485  0.00  0.00    +0.142 HD
ATOM     12  H   LIG    1       24.224 -27.484   7.105  0.00  0.00    +0.142 HD
ENDBRANCH   7  10
ENDBRANCH   1   4
BRANCH   1  13
ATOM     13  N   LIG    1       26.454 -20.891   6.094  0.00  0.00    -0.199 N 
ATOM     14  H   LIG    1       26.339 -21.025   5.092  0.00  0.00    +0.175 HD
BRANCH  13  19
ATOM     15  N   LIG    1       30.191 -19.751   7.173  0.00  0.00    -0.299 N 
ATOM     16  C   LIG    1       29.472 -19.035   6.206  0.00  0.00    +0.350 C 
ATOM     17  O   LIG    1       29.950 -18.040   5.664  0.00  0.00    -0.244 OA
ATOM     18  N   LIG    1       28.217 -19.482   5.865  0.00  0.00    -0.177 NA
ATOM     19  C   LIG    1       27.728 -20.482   6.505  0.00  0.00    +0.145 C 
ATOM     20  C   LIG    1       28.392 -21.218   7.585  0.00  0.00    +0.063 C 
ATOM     21  C   LIG    1       29.630 -20.805   7.853  0.00  0.00    +0.094 C 
BRANCH  15  23
ATOM     22  C   LIG    1       31.584 -18.482   8.786  0.00  0.00    +0.027 C 
ATOM     23  C   LIG    1       31.546 -19.320   7.517  0.00  0.00    +0.123 C 
ENDBRANCH  15  23
ENDBRANCH  13  19
ENDBRANCH   1  13
TORSDOF 5
ENDMDL
MODEL 6
REMARK VINA RESULT:      -8.1      2.649      3.363
REMARK  Name = *****
REMARK                            x       y       z     vdW  Elec       q    Type
REMARK                         _______ _______ _______ _____ _____    ______ ____
ROOT
ATOM      1  S   LIG    1       25.071 -21.127   7.750  0.00  0.00    +0.073 S 
ATOM      2  O   LIG    1       23.876 -20.355   7.479  0.00  0.00    -0.150 OA
ATOM      3  O   LIG    1       25.649 -21.186   9.073  0.00  0.00    -0.150 OA
ENDROOT
BRANCH   1   4
ATOM      4  C   LIG    1       24.759 -22.786   7.199  0.00  0.00    +0.109 A 
ATOM      5  C   LIG    1       23.454 -23.182   6.897  0.00  0.00    +0.030 A 
ATOM      6  C   LIG    1       23.222 -24.481   6.439  0.00  0.00    +0.024 A 
ATOM      7  C   LIG    1       24.280 -25.376   6.247  0.00  0.00    +0.025 A 
ATOM      8  C   LIG    1       25.568 -24.985   6.627  0.00  0.00    +0.024 A 
ATOM      9  C   LIG    1       25.816 -23.690   7.089  0.00  0.00    +0.030 A 
BRANCH   7  10
ATOM     10  N   LIG    1       24.023 -26.710   5.918  0.00  0.00    -0.358 N 
ATOM     11  H   LIG    1       23.409 -27.190   6.568  0.00  0.00    +0.142 HD
ATOM     12  H   LIG    1       23.752 -26.858   4.950  0.00  0.00    +0.142 HD
ENDBRANCH   7  10
ENDBRANCH   1   4
BRANCH   1  13
ATOM     13  N   LIG    1       26.237 -20.612   6.688  0.00  0.00    -0.199 N 
ATOM     14  H   LIG    1       25.870 -20.393   5.765  0.00  0.00    +0.175 HD
BRANCH  13  19
ATOM     15  N   LIG    1       30.183 -19.906   7.292  0.00  0.00    -0.299 N 
ATOM     16  C   LIG    1       29.506 -20.884   8.035  0.00  0.00    +0.350 C 
ATOM     17  O   LIG    1       30.089 -21.558   8.882  0.00  0.00    -0.244 OA
ATOM     18  N   LIG    1       28.163 -21.063   7.800  0.00  0.00    -0.177 NA
ATOM     19  C   LIG    1       27.609 -20.389   6.858  0.00  0.00    +0.145 C 
ATOM     20  C   LIG    1       28.280 -19.417   5.990  0.00  0.00    +0.063 C 
ATOM     21  C   LIG    1       29.565 -19.216   6.278  0.00  0.00    +0.094 C 
BRANCH  15  23
ATOM     22  C   LIG    1       31.844 -18.337   8.257  0.00  0.00    +0.027 C 
ATOM     23  C   LIG    1       31.602 -19.666   7.558  0.00  0.00    +0.123 C 
ENDBRANCH  15  23
ENDBRANCH  13  19
ENDBRANCH   1  13
TORSDOF 5
ENDMDL
MODEL 7
REMARK VINA RESULT:      -7.7      2.691      7.397
REMARK  Name = *****
REMARK                            x       y       z     vdW  Elec       q    Type
REMARK                         _______ _______ _______ _____ _____    ______ ____
ROOT
ATOM      1  S   LIG    1       30.324 -19.062   7.437  0.00  0.00    +0.073 S 
ATOM      2  O   LIG    1       30.079 -18.179   6.316  0.00  0.00    -0.150 OA
ATOM      3  O   LIG    1       31.191 -20.212   7.319  0.00  0.00    -0.150 OA
ENDROOT
BRANCH   1   4
ATOM      4  C   LIG    1       30.906 -18.055   8.778  0.00  0.00    +0.109 A 
ATOM      5  C   LIG    1       30.078 -17.816   9.877  0.00  0.00    +0.030 A 
ATOM      6  C   LIG    1       30.554 -17.045  10.939  0.00  0.00    +0.024 A 
ATOM      7  C   LIG    1       31.858 -16.538  10.931  0.00  0.00    +0.025 A 
ATOM      8  C   LIG    1       32.645 -16.724   9.790  0.00  0.00    +0.024 A 
ATOM      9  C   LIG    1       32.182 -17.491   8.718  0.00  0.00    +0.030 A 
BRANCH   7  10
ATOM     10  N   LIG    1       32.278 -15.658  11.933  0.00  0.00    -0.358 N 
ATOM     11  H   LIG    1       31.984 -15.919  12.868  0.00  0.00    +0.142 HD
ATOM     12  H   LIG    1       33.264 -15.416  11.892  0.00  0.00    +0.142 HD
ENDBRANCH   7  10
ENDBRANCH   1   4
BRANCH   1  13
ATOM     13  N   LIG    1       28.845 -19.572   7.991  0.00  0.00    -0.199 N 
ATOM     14  H   LIG    1       28.610 -19.198   8.907  0.00  0.00    +0.175 HD
BRANCH  13  19
ATOM     15  N   LIG    1       25.916 -21.823   6.321  0.00  0.00    -0.299 N 
ATOM     16  C   LIG    1       26.302 -20.604   5.746  0.00  0.00    +0.350 C 
ATOM     17  O   LIG    1       25.770 -20.188   4.718  0.00  0.00    -0.244 OA
ATOM     18  N   LIG    1       27.286 -19.874   6.369  0.00  0.00    -0.177 NA
ATOM     19  C   LIG    1       27.864 -20.378   7.399  0.00  0.00    +0.145 C 
ATOM     20  C   LIG    1       27.567 -21.683   7.998  0.00  0.00    +0.063 C 
ATOM     21  C   LIG    1       26.569 -22.343   7.413  0.00  0.00    +0.094 C 
BRANCH  15  23
ATOM     22  C   LIG    1       24.036 -23.391   6.718  0.00  0.00    +0.027 C 
ATOM     23  C   LIG    1       24.838 -22.594   5.701  0.00  0.00    +0.123 C 
ENDBRANCH  15  23
ENDBRANCH  13  19
ENDBRANCH   1  13
TORSDOF 5
ENDMDL
MODEL 8
REMARK VINA RESULT:      -7.7      3.907      7.143
REMARK  Name = *****
REMARK                            x       y       z     vdW  Elec       q    Type
REMARK                         _______ _______ _______ _____ _____    ______ ____
ROOT
ATOM      1  S   LIG    1       25.165 -21.417   6.496  0.00  0.00    +0.073 S 
ATOM      2  O   LIG    1       24.392 -20.520   7.330  0.00  0.00    -0.150 OA
ATOM      3  O   LIG    1       24.854 -21.605   5.098  0.00  0.00    -0.150 OA
ENDROOT
BRANCH   1   4
ATOM      4  C   LIG    1       26.865 -20.921   6.632  0.00  0.00    +0.109 A 
ATOM      5  C   LIG    1       27.687 -21.519   7.590  0.00  0.00    +0.030 A 
ATOM      6  C   LIG    1       29.029 -21.142   7.671  0.00  0.00    +0.024 A 
ATOM      7  C   LIG    1       29.567 -20.201   6.786  0.00  0.00    +0.025 A 
ATOM      8  C   LIG    1       28.710 -19.560   5.885  0.00  0.00    +0.024 A 
ATOM      9  C   LIG    1       27.365 -19.925   5.792  0.00  0.00    +0.030 A 
BRANCH   7  10
ATOM     10  N   LIG    1       30.872 -19.734   6.962  0.00  0.00    -0.358 N 
ATOM     11  H   LIG    1       31.109 -19.508   7.923  0.00  0.00    +0.142 HD
ATOM     12  H   LIG    1       31.585 -20.302   6.513  0.00  0.00    +0.142 HD
ENDBRANCH   7  10
ENDBRANCH   1   4
BRANCH   1  13
ATOM     13  N   LIG    1       25.165 -22.899   7.242  0.00  0.00    -0.199 N 
ATOM     14  H   LIG    1       25.174 -22.837   8.257  0.00  0.00    +0.175 HD
BRANCH  13  19
ATOM     15  N   LIG    1       25.046 -26.610   5.613  0.00  0.00    -0.299 N 
ATOM     16  C   LIG    1       26.270 -26.001   5.925  0.00  0.00    +0.350 C 
ATOM     17  O   LIG    1       27.338 -26.575   5.721  0.00  0.00    -0.244 OA
ATOM     18  N   LIG    1       26.248 -24.732   6.456  0.00  0.00    -0.177 NA
ATOM     19  C   LIG    1       25.111 -24.197   6.718  0.00  0.00    +0.145 C 
ATOM     20  C   LIG    1       23.800 -24.814   6.497  0.00  0.00    +0.063 C 
ATOM     21  C   LIG    1       23.847 -26.017   5.926  0.00  0.00    +0.094 C 
BRANCH  15  23
ATOM     22  C   LIG    1       24.212 -28.938   5.790  0.00  0.00    +0.027 C 
ATOM     23  C   LIG    1       25.048 -27.940   5.005  0.00  0.00    +0.123 C 
ENDBRANCH  15  23
ENDBRANCH  13  19
ENDBRANCH   1  13
TORSDOF 5
ENDMDL
MODEL 9
REMARK VINA RESULT:      -7.5      2.363      2.901
REMARK  Name = *****
REMARK                            x       y       z     vdW  Elec       q    Type
REMARK                         _______ _______ _______ _____ _____    ______ ____
ROOT
ATOM      1  S   LIG    1       28.655 -20.261   6.783  0.00  0.00    +0.073 S 
ATOM      2  O   LIG    1       29.171 -21.595   7.010  0.00  0.00    -0.150 OA
ATOM      3  O   LIG    1       29.164 -19.424   5.721  0.00  0.00    -0.150 OA
ENDROOT
BRANCH   1   4
ATOM      4  C   LIG    1       26.896 -20.407   6.588  0.00  0.00    +0.109 A 
ATOM      5  C   LIG    1       26.335 -20.378   5.310  0.00  0.00    +0.030 A 
ATOM      6  C   LIG    1       24.953 -20.520   5.165  0.00  0.00    +0.024 A 
ATOM      7  C   LIG    1       24.131 -20.724   6.278  0.00  0.00    +0.025 A 
ATOM      8  C   LIG    1       24.702 -20.674   7.554  0.00  0.00    +0.024 A 
ATOM      9  C   LIG    1       26.082 -20.530   7.716  0.00  0.00    +0.030 A 
BRANCH   7  10
ATOM     10  N   LIG    1       22.740 -20.730   6.135  0.00  0.00    -0.358 N 
ATOM     11  H   LIG    1       22.230 -20.671   7.010  0.00  0.00    +0.142 HD
ATOM     12  H   LIG    1       22.388 -20.079   5.439  0.00  0.00    +0.142 HD
ENDBRANCH   7  10
ENDBRANCH   1   4
BRANCH   1  13
ATOM     13  N   LIG    1       28.787 -19.434   8.216  0.00  0.00    -0.199 N 
ATOM     14  H   LIG    1       27.933 -19.451   8.769  0.00  0.00    +0.175 HD
BRANCH  13  19
ATOM     15  N   LIG    1       31.870 -17.394   9.880  0.00  0.00    -0.299 N 
ATOM     16  C   LIG    1       30.618 -17.445  10.510  0.00  0.00    +0.350 C 
ATOM     17  O   LIG    1       30.423 -16.881  11.584  0.00  0.00    -0.244 OA
ATOM     18  N   LIG    1       29.605 -18.135   9.886  0.00  0.00    -0.177 NA
ATOM     19  C   LIG    1       29.871 -18.768   8.802  0.00  0.00    +0.145 C 
ATOM     20  C   LIG    1       31.177 -18.826   8.140  0.00  0.00    +0.063 C 
ATOM     21  C   LIG    1       32.126 -18.100   8.729  0.00  0.00    +0.094 C 
BRANCH  15  23
ATOM     22  C   LIG    1       33.024 -15.201   9.978  0.00  0.00    +0.027 C 
ATOM     23  C   LIG    1       32.949 -16.627  10.502  0.00  0.00    +0.123 C 
ENDBRANCH  15  23
ENDBRANCH  13  19
ENDBRANCH   1  13
TORSDOF 5
ENDMDL
