MODEL 1
REMARK VINA RESULT:      -7.8      0.000      0.000
REMARK  Name = *****
REMARK                            x       y       z     vdW  Elec       q    Type
REMARK                         _______ _______ _______ _____ _____    ______ ____
ROOT
ATOM      1  C   LIG    1       24.853 -24.824   6.462  0.00  0.00    +0.055 C 
ATOM      2  C   LIG    1       26.125 -24.106   6.937  0.00  0.00    +0.024 C 
ENDROOT
BRANCH   1   3
ATOM      3  N   LIG    1       24.021 -23.845   5.730  0.00  0.00    -0.310 NA
ATOM      4  H   LIG    1       24.597 -23.035   5.487  0.00  0.00    +0.122 HD
BRANCH   3   5
ATOM      5  C   LIG    1       22.857 -23.336   6.473  0.00  0.00    +0.122 C 
BRANCH   5   6
ATOM      6  C   LIG    1       23.093 -22.166   7.449  0.00  0.00    +0.244 C 
BRANCH   6   7
ATOM      7  O   LIG    1       23.574 -20.976   6.800  0.00  0.00    -0.487 OA
BRANCH   7   9
ATOM      8  C   LIG    1       25.696 -20.654   5.708  0.00  0.00    +0.162 A 
ATOM      9  C   LIG    1       24.937 -20.756   6.896  0.00  0.00    +0.162 A 
ATOM     10  C   LIG    1       25.604 -20.640   8.130  0.00  0.00    +0.049 A 
ATOM     11  C   LIG    1       26.970 -20.361   8.197  0.00  0.00    +0.004 A 
ATOM     12  C   LIG    1       27.701 -20.209   7.030  0.00  0.00    +0.004 A 
ATOM     13  C   LIG    1       27.071 -20.358   5.794  0.00  0.00    +0.049 A 
BRANCH   8  14
ATOM     14  O   LIG    1       25.065 -20.850   4.492  0.00  0.00    -0.489 OA
BRANCH  14  16
ATOM     15  C   LIG    1       23.650 -19.000   3.774  0.00  0.00    +0.048 C 
ATOM     16  C   LIG    1       25.002 -19.685   3.654  0.00  0.00    +0.226 C 
ENDBRANCH  14  16
ENDBRANCH   8  14
ENDBRANCH   7   9
ENDBRANCH   6   7
ENDBRANCH   5   6
ENDBRANCH   3   5
ENDBRANCH   1   3
BRANCH   1  17
ATOM     17  C   LIG    1       25.209 -26.041   5.578  0.00  0.00    +0.053 C 
BRANCH  17  18
ATOM     18  C   LIG    1       24.886 -27.411   6.139  0.00  0.00    -0.044 A 
ATOM     19  C   LIG    1       25.389 -27.820   7.376  0.00  0.00    +0.036 A 
ATOM     20  C   LIG    1       25.256 -29.149   7.806  0.00  0.00    +0.147 A 
ATOM     21  C   LIG    1       24.551 -30.088   7.037  0.00  0.00    +0.146 A 
ATOM     22  C   LIG    1       24.018 -29.658   5.809  0.00  0.00    +0.048 A 
ATOM     23  C   LIG    1       24.183 -28.343   5.365  0.00  0.00    +0.007 A 
BRANCH  20  24
ATOM     24  S   LIG    1       26.155 -29.655   9.251  0.00  0.00    +0.059 S 
ATOM     25  O   LIG    1       25.206 -30.044  10.248  0.00  0.00    -0.153 OA
ATOM     26  O   LIG    1       27.197 -28.653   9.528  0.00  0.00    -0.153 OA
BRANCH  24  27
ATOM     27  N   LIG    1       26.957 -31.063   8.788  0.00  0.00    -0.203 NA
ATOM     28  H   LIG    1       26.368 -31.875   8.771  0.00  0.00    +0.144 HD
ATOM     29  H   LIG    1       27.385 -30.883   7.863  0.00  0.00    +0.144 HD
ENDBRANCH  24  27
ENDBRANCH  20  24
BRANCH  21  30
ATOM     30  O   LIG    1       24.406 -31.351   7.531  0.00  0.00    -0.493 OA
ATOM     31  C   LIG    1       24.383 -32.429   6.597  0.00  0.00    +0.277 C 
ENDBRANCH  21  30
ENDBRANCH  17  18
ENDBRANCH   1  17
TORSDOF 12
ENDMDL
MODEL 2
REMARK VINA RESULT:      -7.8      3.119      8.772
REMARK  Name = *****
REMARK                            x       y       z     vdW  Elec       q    Type
REMARK                         _______ _______ _______ _____ _____    ______ ____
ROOT
ATOM      1  C   LIG    1       25.297 -26.897   5.257  0.00  0.00    +0.055 C 
ATOM      2  C   LIG    1       26.630 -27.425   4.706  0.00  0.00    +0.024 C 
ENDROOT
BRANCH   1   3
ATOM      3  N   LIG    1       24.374 -28.044   5.398  0.00  0.00    -0.310 NA
ATOM      4  H   LIG    1       23.980 -28.041   6.342  0.00  0.00    +0.122 HD
BRANCH   3   5
ATOM      5  C   LIG    1       24.987 -29.366   5.193  0.00  0.00    +0.122 C 
BRANCH   5   6
ATOM      6  C   LIG    1       24.730 -30.442   6.266  0.00  0.00    +0.244 C 
BRANCH   6   7
ATOM      7  O   LIG    1       23.808 -30.016   7.285  0.00  0.00    -0.487 OA
BRANCH   7   9
ATOM      8  C   LIG    1       23.601 -30.139   9.681  0.00  0.00    +0.162 A 
ATOM      9  C   LIG    1       24.359 -29.803   8.536  0.00  0.00    +0.162 A 
ATOM     10  C   LIG    1       25.642 -29.253   8.719  0.00  0.00    +0.049 A 
ATOM     11  C   LIG    1       26.196 -29.101   9.991  0.00  0.00    +0.004 A 
ATOM     12  C   LIG    1       25.471 -29.482  11.108  0.00  0.00    +0.004 A 
ATOM     13  C   LIG    1       24.182 -29.994  10.956  0.00  0.00    +0.049 A 
BRANCH   8  14
ATOM     14  O   LIG    1       22.308 -30.602   9.515  0.00  0.00    -0.489 OA
BRANCH  14  16
ATOM     15  C   LIG    1       20.435 -30.907  11.044  0.00  0.00    +0.048 C 
ATOM     16  C   LIG    1       21.807 -31.391  10.606  0.00  0.00    +0.226 C 
ENDBRANCH  14  16
ENDBRANCH   8  14
ENDBRANCH   7   9
ENDBRANCH   6   7
ENDBRANCH   5   6
ENDBRANCH   3   5
ENDBRANCH   1   3
BRANCH   1  17
ATOM     17  C   LIG    1       25.511 -26.170   6.605  0.00  0.00    +0.053 C 
BRANCH  17  18
ATOM     18  C   LIG    1       25.008 -24.744   6.700  0.00  0.00    -0.044 A 
ATOM     19  C   LIG    1       25.878 -23.692   6.995  0.00  0.00    +0.036 A 
ATOM     20  C   LIG    1       25.388 -22.408   7.277  0.00  0.00    +0.147 A 
ATOM     21  C   LIG    1       24.014 -22.127   7.198  0.00  0.00    +0.146 A 
ATOM     22  C   LIG    1       23.150 -23.185   6.865  0.00  0.00    +0.048 A 
ATOM     23  C   LIG    1       23.637 -24.473   6.621  0.00  0.00    +0.007 A 
BRANCH  20  24
ATOM     24  S   LIG    1       26.522 -21.199   7.912  0.00  0.00    +0.059 S 
ATOM     25  O   LIG    1       26.588 -20.119   6.975  0.00  0.00    -0.153 OA
ATOM     26  O   LIG    1       27.735 -21.893   8.372  0.00  0.00    -0.153 OA
BRANCH  24  27
ATOM     27  N   LIG    1       25.771 -20.583   9.288  0.00  0.00    -0.203 NA
ATOM     28  H   LIG    1       24.935 -20.064   9.093  0.00  0.00    +0.144 HD
ATOM     29  H   LIG    1       25.586 -21.381   9.920  0.00  0.00    +0.144 HD
ENDBRANCH  24  27
ENDBRANCH  20  24
BRANCH  21  30
ATOM     30  O   LIG    1       23.601 -20.847   7.427  0.00  0.00    -0.493 OA
ATOM     31  C   LIG    1       23.049 -20.124   6.329  0.00  0.00    +0.277 C 
ENDBRANCH  21  30
ENDBRANCH  17  18
ENDBRANCH   1  17
TORSDOF 12
ENDMDL
MODEL 3
REMARK VINA RESULT:      -7.6      1.527      2.737
REMARK  Name = *****
REMARK                            x       y       z     vdW  Elec       q    Type
REMARK                         _______ _______ _______ _____ _____    ______ ____
ROOT
ATOM      1  C   LIG    1       24.696 -26.674   6.195  0.00  0.00    +0.055 C 
ATOM      2  C   LIG    1       25.970 -26.335   5.406  0.00  0.00    +0.024 C 
ENDROOT
BRANCH   1   3
ATOM      3  N   LIG    1       23.719 -25.586   5.976  0.00  0.00    -0.310 NA
ATOM      4  H   LIG    1       23.638 -25.409   4.972  0.00  0.00    +0.122 HD
BRANCH   3   5
ATOM      5  C   LIG    1       24.060 -24.304   6.612  0.00  0.00    +0.122 C 
BRANCH   5   6
ATOM      6  C   LIG    1       22.952 -23.237   6.700  0.00  0.00    +0.244 C 
BRANCH   6   7
ATOM      7  O   LIG    1       23.441 -21.942   7.092  0.00  0.00    -0.487 OA
BRANCH   7   9
ATOM      8  C   LIG    1       24.946 -20.833   5.574  0.00  0.00    +0.162 A 
ATOM      9  C   LIG    1       23.635 -21.041   6.060  0.00  0.00    +0.162 A 
ATOM     10  C   LIG    1       22.581 -20.310   5.481  0.00  0.00    +0.049 A 
ATOM     11  C   LIG    1       22.796 -19.450   4.403  0.00  0.00    +0.004 A 
ATOM     12  C   LIG    1       24.074 -19.290   3.894  0.00  0.00    +0.004 A 
ATOM     13  C   LIG    1       25.143 -19.973   4.476  0.00  0.00    +0.049 A 
BRANCH   8  14
ATOM     14  O   LIG    1       25.999 -21.483   6.192  0.00  0.00    -0.489 OA
BRANCH  14  16
ATOM     15  C   LIG    1       26.399 -20.504   8.388  0.00  0.00    +0.048 C 
ATOM     16  C   LIG    1       26.872 -20.628   6.949  0.00  0.00    +0.226 C 
ENDBRANCH  14  16
ENDBRANCH   8  14
ENDBRANCH   7   9
ENDBRANCH   6   7
ENDBRANCH   5   6
ENDBRANCH   3   5
ENDBRANCH   1   3
BRANCH   1  17
ATOM     17  C   LIG    1       24.130 -28.045   5.757  0.00  0.00    +0.053 C 
BRANCH  17  18
ATOM     18  C   LIG    1       24.736 -29.273   6.405  0.00  0.00    -0.044 A 
ATOM     19  C   LIG    1       24.998 -29.308   7.777  0.00  0.00    +0.036 A 
ATOM     20  C   LIG    1       25.736 -30.358   8.343  0.00  0.00    +0.147 A 
ATOM     21  C   LIG    1       26.169 -31.441   7.560  0.00  0.00    +0.146 A 
ATOM     22  C   LIG    1       25.868 -31.413   6.187  0.00  0.00    +0.048 A 
ATOM     23  C   LIG    1       25.165 -30.347   5.617  0.00  0.00    +0.007 A 
BRANCH  20  24
ATOM     24  S   LIG    1       26.265 -30.195  10.030  0.00  0.00    +0.059 S 
ATOM     25  O   LIG    1       25.386 -29.272  10.682  0.00  0.00    -0.153 OA
ATOM     26  O   LIG    1       27.724 -30.012  10.047  0.00  0.00    -0.153 OA
BRANCH  24  27
ATOM     27  N   LIG    1       25.963 -31.701  10.723  0.00  0.00    -0.203 NA
ATOM     28  H   LIG    1       25.508 -31.651  11.616  0.00  0.00    +0.144 HD
ATOM     29  H   LIG    1       25.407 -32.247  10.043  0.00  0.00    +0.144 HD
ENDBRANCH  24  27
ENDBRANCH  20  24
BRANCH  21  30
ATOM     30  O   LIG    1       26.833 -32.461   8.176  0.00  0.00    -0.493 OA
ATOM     31  C   LIG    1       27.651 -33.302   7.365  0.00  0.00    +0.277 C 
ENDBRANCH  21  30
ENDBRANCH  17  18
ENDBRANCH   1  17
TORSDOF 12
ENDMDL
MODEL 4
REMARK VINA RESULT:      -7.6      2.128      3.547
REMARK  Name = *****
REMARK                            x       y       z     vdW  Elec       q    Type
REMARK                         _______ _______ _______ _____ _____    ______ ____
ROOT
ATOM      1  C   LIG    1       24.671 -26.327   6.266  0.00  0.00    +0.055 C 
ATOM      2  C   LIG    1       26.026 -25.828   5.741  0.00  0.00    +0.024 C 
ENDROOT
BRANCH   1   3
ATOM      3  N   LIG    1       23.667 -25.271   6.012  0.00  0.00    -0.310 NA
ATOM      4  H   LIG    1       23.711 -24.999   5.027  0.00  0.00    +0.122 HD
BRANCH   3   5
ATOM      5  C   LIG    1       23.839 -24.043   6.804  0.00  0.00    +0.122 C 
BRANCH   5   6
ATOM      6  C   LIG    1       22.812 -22.913   6.595  0.00  0.00    +0.244 C 
BRANCH   6   7
ATOM      7  O   LIG    1       23.312 -21.617   6.970  0.00  0.00    -0.487 OA
BRANCH   7   9
ATOM      8  C   LIG    1       24.869 -20.641   5.414  0.00  0.00    +0.162 A 
ATOM      9  C   LIG    1       23.554 -20.747   5.922  0.00  0.00    +0.162 A 
ATOM     10  C   LIG    1       22.547 -19.949   5.346  0.00  0.00    +0.049 A 
ATOM     11  C   LIG    1       22.807 -19.122   4.253  0.00  0.00    +0.004 A 
ATOM     12  C   LIG    1       24.086 -19.062   3.723  0.00  0.00    +0.004 A 
ATOM     13  C   LIG    1       25.111 -19.813   4.301  0.00  0.00    +0.049 A 
BRANCH   8  14
ATOM     14  O   LIG    1       25.882 -21.357   6.027  0.00  0.00    -0.489 OA
BRANCH  14  16
ATOM     15  C   LIG    1       26.402 -20.503   8.250  0.00  0.00    +0.048 C 
ATOM     16  C   LIG    1       26.806 -20.560   6.786  0.00  0.00    +0.226 C 
ENDBRANCH  14  16
ENDBRANCH   8  14
ENDBRANCH   7   9
ENDBRANCH   6   7
ENDBRANCH   5   6
ENDBRANCH   3   5
ENDBRANCH   1   3
BRANCH   1  17
ATOM     17  C   LIG    1       24.278 -27.660   5.588  0.00  0.00    +0.053 C 
BRANCH  17  18
ATOM     18  C   LIG    1       24.897 -28.922   6.155  0.00  0.00    -0.044 A 
ATOM     19  C   LIG    1       25.198 -30.009   5.331  0.00  0.00    +0.036 A 
ATOM     20  C   LIG    1       25.583 -31.243   5.877  0.00  0.00    +0.147 A 
ATOM     21  C   LIG    1       25.750 -31.399   7.262  0.00  0.00    +0.146 A 
ATOM     22  C   LIG    1       25.478 -30.287   8.080  0.00  0.00    +0.048 A 
ATOM     23  C   LIG    1       25.058 -29.070   7.538  0.00  0.00    +0.007 A 
BRANCH  20  24
ATOM     24  S   LIG    1       25.679 -32.645   4.792  0.00  0.00    +0.059 S 
ATOM     25  O   LIG    1       25.793 -32.160   3.450  0.00  0.00    -0.153 OA
ATOM     26  O   LIG    1       24.633 -33.606   5.177  0.00  0.00    -0.153 OA
BRANCH  24  27
ATOM     27  N   LIG    1       27.154 -33.372   5.156  0.00  0.00    -0.203 NA
ATOM     28  H   LIG    1       27.121 -34.375   5.154  0.00  0.00    +0.144 HD
ATOM     29  H   LIG    1       27.850 -33.012   4.481  0.00  0.00    +0.144 HD
ENDBRANCH  24  27
ENDBRANCH  20  24
BRANCH  21  30
ATOM     30  O   LIG    1       26.181 -32.605   7.731  0.00  0.00    -0.493 OA
ATOM     31  C   LIG    1       26.987 -32.607   8.908  0.00  0.00    +0.277 C 
ENDBRANCH  21  30
ENDBRANCH  17  18
ENDBRANCH   1  17
TORSDOF 12
ENDMDL
MODEL 5
REMARK VINA RESULT:      -7.6      4.641      8.383
REMARK  Name = *****
REMARK                            x       y       z     vdW  Elec       q    Type
REMARK                         _______ _______ _______ _____ _____    ______ ____
ROOT
ATOM      1  C   LIG    1       26.762 -18.782   4.654  0.00  0.00    +0.055 C 
ATOM      2  C   LIG    1       26.308 -17.826   3.541  0.00  0.00    +0.024 C 
ENDROOT
BRANCH   1   3
ATOM      3  N   LIG    1       26.389 -20.156   4.257  0.00  0.00    -0.310 NA
ATOM      4  H   LIG    1       27.030 -20.478   3.528  0.00  0.00    +0.122 HD
BRANCH   3   5
ATOM      5  C   LIG    1       25.025 -20.303   3.723  0.00  0.00    +0.122 C 
BRANCH   5   6
ATOM      6  C   LIG    1       23.854 -20.123   4.708  0.00  0.00    +0.244 C 
BRANCH   6   7
ATOM      7  O   LIG    1       23.580 -21.303   5.483  0.00  0.00    -0.487 OA
BRANCH   7   9
ATOM      8  C   LIG    1       25.024 -22.851   6.632  0.00  0.00    +0.162 A 
ATOM      9  C   LIG    1       24.467 -21.557   6.515  0.00  0.00    +0.162 A 
ATOM     10  C   LIG    1       24.830 -20.582   7.464  0.00  0.00    +0.049 A 
ATOM     11  C   LIG    1       25.770 -20.848   8.460  0.00  0.00    +0.004 A 
ATOM     12  C   LIG    1       26.354 -22.102   8.538  0.00  0.00    +0.004 A 
ATOM     13  C   LIG    1       25.982 -23.098   7.634  0.00  0.00    +0.049 A 
BRANCH   8  14
ATOM     14  O   LIG    1       24.610 -23.839   5.757  0.00  0.00    -0.489 OA
BRANCH  14  16
ATOM     15  C   LIG    1       24.383 -26.247   6.062  0.00  0.00    +0.048 C 
ATOM     16  C   LIG    1       23.806 -24.870   6.352  0.00  0.00    +0.226 C 
ENDBRANCH  14  16
ENDBRANCH   8  14
ENDBRANCH   7   9
ENDBRANCH   6   7
ENDBRANCH   5   6
ENDBRANCH   3   5
ENDBRANCH   1   3
BRANCH   1  17
ATOM     17  C   LIG    1       28.284 -18.653   4.899  0.00  0.00    +0.053 C 
BRANCH  17  18
ATOM     18  C   LIG    1       28.823 -19.260   6.178  0.00  0.00    -0.044 A 
ATOM     19  C   LIG    1       29.326 -18.452   7.202  0.00  0.00    +0.036 A 
ATOM     20  C   LIG    1       30.003 -19.012   8.295  0.00  0.00    +0.147 A 
ATOM     21  C   LIG    1       30.130 -20.405   8.430  0.00  0.00    +0.146 A 
ATOM     22  C   LIG    1       29.589 -21.209   7.411  0.00  0.00    +0.048 A 
ATOM     23  C   LIG    1       28.948 -20.649   6.303  0.00  0.00    +0.007 A 
BRANCH  20  24
ATOM     24  S   LIG    1       30.850 -17.916   9.406  0.00  0.00    +0.059 S 
ATOM     25  O   LIG    1       30.221 -16.633   9.327  0.00  0.00    -0.153 OA
ATOM     26  O   LIG    1       32.299 -18.078   9.207  0.00  0.00    -0.153 OA
BRANCH  24  27
ATOM     27  N   LIG    1       30.508 -18.514  10.944  0.00  0.00    -0.203 NA
ATOM     28  H   LIG    1       30.730 -17.873  11.684  0.00  0.00    +0.144 HD
ATOM     29  H   LIG    1       29.509 -18.779  10.956  0.00  0.00    +0.144 HD
ENDBRANCH  24  27
ENDBRANCH  20  24
BRANCH  21  30
ATOM     30  O   LIG    1       30.749 -20.894   9.543  0.00  0.00    -0.493 OA
ATOM     31  C   LIG    1       31.285 -22.214   9.474  0.00  0.00    +0.277 C 
ENDBRANCH  21  30
ENDBRANCH  17  18
ENDBRANCH   1  17
TORSDOF 12
ENDMDL
MODEL 6
REMARK VINA RESULT:      -7.5      3.916      9.001
REMARK  Name = *****
REMARK                            x       y       z     vdW  Elec       q    Type
REMARK                         _______ _______ _______ _____ _____    ______ ____
ROOT
ATOM      1  C   LIG    1       24.281 -21.496   6.251  0.00  0.00    +0.055 C 
ATOM      2  C   LIG    1       23.068 -20.589   5.994  0.00  0.00    +0.024 C 
ENDROOT
BRANCH   1   3
ATOM      3  N   LIG    1       24.000 -22.816   5.646  0.00  0.00    -0.310 NA
ATOM      4  H   LIG    1       22.994 -22.899   5.479  0.00  0.00    +0.122 HD
BRANCH   3   5
ATOM      5  C   LIG    1       24.397 -23.974   6.463  0.00  0.00    +0.122 C 
BRANCH   5   6
ATOM      6  C   LIG    1       25.413 -24.959   5.853  0.00  0.00    +0.244 C 
BRANCH   6   7
ATOM      7  O   LIG    1       25.920 -25.911   6.805  0.00  0.00    -0.487 OA
BRANCH   7   9
ATOM      8  C   LIG    1       25.681 -28.129   7.714  0.00  0.00    +0.162 A 
ATOM      9  C   LIG    1       25.420 -27.196   6.684  0.00  0.00    +0.162 A 
ATOM     10  C   LIG    1       24.673 -27.621   5.570  0.00  0.00    +0.049 A 
ATOM     11  C   LIG    1       24.133 -28.906   5.500  0.00  0.00    +0.004 A 
ATOM     12  C   LIG    1       24.345 -29.799   6.537  0.00  0.00    +0.004 A 
ATOM     13  C   LIG    1       25.116 -29.416   7.635  0.00  0.00    +0.049 A 
BRANCH   8  14
ATOM     14  O   LIG    1       26.486 -27.747   8.773  0.00  0.00    -0.489 OA
BRANCH  14  16
ATOM     15  C   LIG    1       27.003 -28.101  11.129  0.00  0.00    +0.048 C 
ATOM     16  C   LIG    1       26.640 -28.741   9.799  0.00  0.00    +0.226 C 
ENDBRANCH  14  16
ENDBRANCH   8  14
ENDBRANCH   7   9
ENDBRANCH   6   7
ENDBRANCH   5   6
ENDBRANCH   3   5
ENDBRANCH   1   3
BRANCH   1  17
ATOM     17  C   LIG    1       25.568 -20.866   5.670  0.00  0.00    +0.053 C 
BRANCH  17  18
ATOM     18  C   LIG    1       26.777 -20.820   6.583  0.00  0.00    -0.044 A 
ATOM     19  C   LIG    1       27.730 -19.805   6.465  0.00  0.00    +0.036 A 
ATOM     20  C   LIG    1       28.942 -19.868   7.168  0.00  0.00    +0.147 A 
ATOM     21  C   LIG    1       29.201 -20.915   8.068  0.00  0.00    +0.146 A 
ATOM     22  C   LIG    1       28.219 -21.913   8.205  0.00  0.00    +0.048 A 
ATOM     23  C   LIG    1       27.028 -21.869   7.475  0.00  0.00    +0.007 A 
BRANCH  20  24
ATOM     24  S   LIG    1       30.210 -18.694   6.759  0.00  0.00    +0.059 S 
ATOM     25  O   LIG    1       30.355 -17.796   7.863  0.00  0.00    -0.153 OA
ATOM     26  O   LIG    1       29.968 -18.203   5.393  0.00  0.00    -0.153 OA
BRANCH  24  27
ATOM     27  N   LIG    1       31.630 -19.599   6.697  0.00  0.00    -0.203 NA
ATOM     28  H   LIG    1       32.256 -19.317   5.965  0.00  0.00    +0.144 HD
ATOM     29  H   LIG    1       32.077 -19.532   7.628  0.00  0.00    +0.144 HD
ENDBRANCH  24  27
ENDBRANCH  20  24
BRANCH  21  30
ATOM     30  O   LIG    1       30.372 -20.894   8.766  0.00  0.00    -0.493 OA
ATOM     31  C   LIG    1       30.829 -22.123   9.328  0.00  0.00    +0.277 C 
ENDBRANCH  21  30
ENDBRANCH  17  18
ENDBRANCH   1  17
TORSDOF 12
ENDMDL
MODEL 7
REMARK VINA RESULT:      -7.2      2.784      9.222
REMARK  Name = *****
REMARK                            x       y       z     vdW  Elec       q    Type
REMARK                         _______ _______ _______ _____ _____    ______ ____
ROOT
ATOM      1  C   LIG    1       25.314 -27.040   5.647  0.00  0.00    +0.055 C 
ATOM      2  C   LIG    1       25.719 -26.416   4.303  0.00  0.00    +0.024 C 
ENDROOT
BRANCH   1   3
ATOM      3  N   LIG    1       25.954 -28.370   5.743  0.00  0.00    -0.310 NA
ATOM      4  H   LIG    1       26.730 -28.415   5.079  0.00  0.00    +0.122 HD
BRANCH   3   5
ATOM      5  C   LIG    1       25.071 -29.510   5.450  0.00  0.00    +0.122 C 
BRANCH   5   6
ATOM      6  C   LIG    1       24.154 -30.008   6.584  0.00  0.00    +0.244 C 
BRANCH   6   7
ATOM      7  O   LIG    1       24.203 -31.434   6.767  0.00  0.00    -0.487 OA
BRANCH   7   9
ATOM      8  C   LIG    1       26.316 -32.054   7.742  0.00  0.00    +0.162 A 
ATOM      9  C   LIG    1       25.453 -32.010   6.623  0.00  0.00    +0.162 A 
ATOM     10  C   LIG    1       25.909 -32.544   5.403  0.00  0.00    +0.049 A 
ATOM     11  C   LIG    1       27.152 -33.170   5.300  0.00  0.00    +0.004 A 
ATOM     12  C   LIG    1       27.973 -33.259   6.412  0.00  0.00    +0.004 A 
ATOM     13  C   LIG    1       27.561 -32.703   7.624  0.00  0.00    +0.049 A 
BRANCH   8  14
ATOM     14  O   LIG    1       25.912 -31.457   8.922  0.00  0.00    -0.489 OA
BRANCH  14  16
ATOM     15  C   LIG    1       26.400 -29.105   9.339  0.00  0.00    +0.048 C 
ATOM     16  C   LIG    1       26.865 -30.545   9.491  0.00  0.00    +0.226 C 
ENDBRANCH  14  16
ENDBRANCH   8  14
ENDBRANCH   7   9
ENDBRANCH   6   7
ENDBRANCH   5   6
ENDBRANCH   3   5
ENDBRANCH   1   3
BRANCH   1  17
ATOM     17  C   LIG    1       25.726 -26.124   6.823  0.00  0.00    +0.053 C 
BRANCH  17  18
ATOM     18  C   LIG    1       25.134 -24.729   6.841  0.00  0.00    -0.044 A 
ATOM     19  C   LIG    1       25.902 -23.626   7.223  0.00  0.00    +0.036 A 
ATOM     20  C   LIG    1       25.309 -22.372   7.431  0.00  0.00    +0.147 A 
ATOM     21  C   LIG    1       23.940 -22.172   7.189  0.00  0.00    +0.146 A 
ATOM     22  C   LIG    1       23.184 -23.281   6.770  0.00  0.00    +0.048 A 
ATOM     23  C   LIG    1       23.769 -24.539   6.600  0.00  0.00    +0.007 A 
BRANCH  20  24
ATOM     24  S   LIG    1       26.290 -21.095   8.178  0.00  0.00    +0.059 S 
ATOM     25  O   LIG    1       25.700 -20.764   9.439  0.00  0.00    -0.153 OA
ATOM     26  O   LIG    1       26.568 -20.066   7.164  0.00  0.00    -0.153 OA
BRANCH  24  27
ATOM     27  N   LIG    1       27.764 -21.833   8.528  0.00  0.00    -0.203 NA
ATOM     28  H   LIG    1       28.104 -22.424   7.791  0.00  0.00    +0.144 HD
ATOM     29  H   LIG    1       28.438 -21.082   8.755  0.00  0.00    +0.144 HD
ENDBRANCH  24  27
ENDBRANCH  20  24
BRANCH  21  30
ATOM     30  O   LIG    1       23.430 -20.918   7.354  0.00  0.00    -0.493 OA
ATOM     31  C   LIG    1       22.980 -20.229   6.188  0.00  0.00    +0.277 C 
ENDBRANCH  21  30
ENDBRANCH  17  18
ENDBRANCH   1  17
TORSDOF 12
ENDMDL
MODEL 8
REMARK VINA RESULT:      -7.2      1.737      2.221
REMARK  Name = *****
REMARK                            x       y       z     vdW  Elec       q    Type
REMARK                         _______ _______ _______ _____ _____    ______ ____
ROOT
ATOM      1  C   LIG    1       25.776 -27.003   6.097  0.00  0.00    +0.055 C 
ATOM      2  C   LIG    1       25.841 -26.825   4.572  0.00  0.00    +0.024 C 
ENDROOT
BRANCH   1   3
ATOM      3  N   LIG    1       25.473 -25.686   6.698  0.00  0.00    -0.310 NA
ATOM      4  H   LIG    1       25.046 -25.829   7.616  0.00  0.00    +0.122 HD
BRANCH   3   5
ATOM      5  C   LIG    1       24.549 -24.843   5.921  0.00  0.00    +0.122 C 
BRANCH   5   6
ATOM      6  C   LIG    1       23.467 -24.072   6.701  0.00  0.00    +0.244 C 
BRANCH   6   7
ATOM      7  O   LIG    1       23.445 -22.665   6.397  0.00  0.00    -0.487 OA
BRANCH   7   9
ATOM      8  C   LIG    1       25.269 -21.211   5.797  0.00  0.00    +0.162 A 
ATOM      9  C   LIG    1       24.573 -21.957   6.775  0.00  0.00    +0.162 A 
ATOM     10  C   LIG    1       25.065 -21.958   8.094  0.00  0.00    +0.049 A 
ATOM     11  C   LIG    1       26.171 -21.190   8.460  0.00  0.00    +0.004 A 
ATOM     12  C   LIG    1       26.818 -20.417   7.509  0.00  0.00    +0.004 A 
ATOM     13  C   LIG    1       26.374 -20.429   6.187  0.00  0.00    +0.049 A 
BRANCH   8  14
ATOM     14  O   LIG    1       24.842 -21.270   4.482  0.00  0.00    -0.489 OA
BRANCH  14  16
ATOM     15  C   LIG    1       23.762 -19.203   3.773  0.00  0.00    +0.048 C 
ATOM     16  C   LIG    1       25.021 -20.055   3.737  0.00  0.00    +0.226 C 
ENDBRANCH  14  16
ENDBRANCH   8  14
ENDBRANCH   7   9
ENDBRANCH   6   7
ENDBRANCH   5   6
ENDBRANCH   3   5
ENDBRANCH   1   3
BRANCH   1  17
ATOM     17  C   LIG    1       24.715 -28.061   6.479  0.00  0.00    +0.053 C 
BRANCH  17  18
ATOM     18  C   LIG    1       25.191 -29.235   7.310  0.00  0.00    -0.044 A 
ATOM     19  C   LIG    1       25.566 -29.068   8.645  0.00  0.00    +0.036 A 
ATOM     20  C   LIG    1       26.190 -30.105   9.354  0.00  0.00    +0.147 A 
ATOM     21  C   LIG    1       26.390 -31.364   8.765  0.00  0.00    +0.146 A 
ATOM     22  C   LIG    1       25.977 -31.532   7.431  0.00  0.00    +0.048 A 
ATOM     23  C   LIG    1       25.389 -30.487   6.714  0.00  0.00    +0.007 A 
BRANCH  20  24
ATOM     24  S   LIG    1       26.884 -29.732  10.946  0.00  0.00    +0.059 S 
ATOM     25  O   LIG    1       26.286 -28.520  11.416  0.00  0.00    -0.153 OA
ATOM     26  O   LIG    1       28.344 -29.891  10.867  0.00  0.00    -0.153 OA
BRANCH  24  27
ATOM     27  N   LIG    1       26.323 -30.958  11.957  0.00  0.00    -0.203 NA
ATOM     28  H   LIG    1       25.629 -31.545  11.533  0.00  0.00    +0.144 HD
ATOM     29  H   LIG    1       27.147 -31.503  12.265  0.00  0.00    +0.144 HD
ENDBRANCH  24  27
ENDBRANCH  20  24
BRANCH  21  30
ATOM     30  O   LIG    1       26.951 -32.351   9.521  0.00  0.00    -0.493 OA
ATOM     31  C   LIG    1       27.169 -33.617   8.900  0.00  0.00    +0.277 C 
ENDBRANCH  21  30
ENDBRANCH  17  18
ENDBRANCH   1  17
TORSDOF 12
ENDMDL
MODEL 9
REMARK VINA RESULT:      -7.1      3.363      8.955
REMARK  Name = *****
REMARK                            x       y       z     vdW  Elec       q    Type
REMARK                         _______ _______ _______ _____ _____    ______ ____
ROOT
ATOM      1  C   LIG    1       25.272 -27.127   5.796  0.00  0.00    +0.055 C 
ATOM      2  C   LIG    1       25.851 -26.832   4.404  0.00  0.00    +0.024 C 
ENDROOT
BRANCH   1   3
ATOM      3  N   LIG    1       25.615 -28.521   6.148  0.00  0.00    -0.310 NA
ATOM      4  H   LIG    1       25.379 -29.131   5.360  0.00  0.00    +0.122 HD
BRANCH   3   5
ATOM      5  C   LIG    1       24.919 -29.057   7.329  0.00  0.00    +0.122 C 
BRANCH   5   6
ATOM      6  C   LIG    1       25.773 -29.388   8.568  0.00  0.00    +0.244 C 
BRANCH   6   7
ATOM      7  O   LIG    1       25.324 -30.561   9.268  0.00  0.00    -0.487 OA
BRANCH   7   9
ATOM      8  C   LIG    1       25.237 -30.205  11.649  0.00  0.00    +0.162 A 
ATOM      9  C   LIG    1       24.573 -30.324  10.406  0.00  0.00    +0.162 A 
ATOM     10  C   LIG    1       23.170 -30.208  10.382  0.00  0.00    +0.049 A 
ATOM     11  C   LIG    1       22.443 -29.912  11.536  0.00  0.00    +0.004 A 
ATOM     12  C   LIG    1       23.103 -29.742  12.742  0.00  0.00    +0.004 A 
ATOM     13  C   LIG    1       24.489 -29.891  12.800  0.00  0.00    +0.049 A 
BRANCH   8  14
ATOM     14  O   LIG    1       26.606 -30.401  11.697  0.00  0.00    -0.489 OA
BRANCH  14  16
ATOM     15  C   LIG    1       27.129 -28.025  11.532  0.00  0.00    +0.048 C 
ATOM     16  C   LIG    1       27.346 -29.323  12.293  0.00  0.00    +0.226 C 
ENDBRANCH  14  16
ENDBRANCH   8  14
ENDBRANCH   7   9
ENDBRANCH   6   7
ENDBRANCH   5   6
ENDBRANCH   3   5
ENDBRANCH   1   3
BRANCH   1  17
ATOM     17  C   LIG    1       25.819 -26.126   6.840  0.00  0.00    +0.053 C 
BRANCH  17  18
ATOM     18  C   LIG    1       25.192 -24.746   6.857  0.00  0.00    -0.044 A 
ATOM     19  C   LIG    1       25.936 -23.621   7.221  0.00  0.00    +0.036 A 
ATOM     20  C   LIG    1       25.314 -22.381   7.429  0.00  0.00    +0.147 A 
ATOM     21  C   LIG    1       23.938 -22.218   7.204  0.00  0.00    +0.146 A 
ATOM     22  C   LIG    1       23.204 -23.349   6.804  0.00  0.00    +0.048 A 
ATOM     23  C   LIG    1       23.819 -24.592   6.634  0.00  0.00    +0.007 A 
BRANCH  20  24
ATOM     24  S   LIG    1       26.273 -21.074   8.154  0.00  0.00    +0.059 S 
ATOM     25  O   LIG    1       25.690 -20.747   9.419  0.00  0.00    -0.153 OA
ATOM     26  O   LIG    1       26.514 -20.047   7.128  0.00  0.00    -0.153 OA
BRANCH  24  27
ATOM     27  N   LIG    1       27.769 -21.773   8.490  0.00  0.00    -0.203 NA
ATOM     28  H   LIG    1       27.963 -22.594   7.945  0.00  0.00    +0.144 HD
ATOM     29  H   LIG    1       28.488 -21.044   8.349  0.00  0.00    +0.144 HD
ENDBRANCH  24  27
ENDBRANCH  20  24
BRANCH  21  30
ATOM     30  O   LIG    1       23.398 -20.975   7.368  0.00  0.00    -0.493 OA
ATOM     31  C   LIG    1       23.061 -20.242   6.192  0.00  0.00    +0.277 C 
ENDBRANCH  21  30
ENDBRANCH  17  18
ENDBRANCH   1  17
TORSDOF 12
ENDMDL
