MODEL 1
REMARK VINA RESULT:      -7.4      0.000      0.000
REMARK  Name = *****
REMARK                            x       y       z     vdW  Elec       q    Type
REMARK                         _______ _______ _______ _____ _____    ______ ____
ROOT
ATOM      1  C   LIG    1       24.447 -21.383   6.383  0.00  0.00    +0.155 C 
ATOM      2  C   LIG    1       25.594 -20.397   6.063  0.00  0.00    +0.193 C 
ATOM      3  C   LIG    1       25.731 -20.089   4.562  0.00  0.00    +0.064 C 
ATOM      4  C   LIG    1       24.373 -19.953   3.856  0.00  0.00    +0.060 C 
ATOM      5  N   LIG    1       23.569 -21.165   4.006  0.00  0.00    -0.298 NA
ATOM      6  C   LIG    1       24.125 -22.363   3.413  0.00  0.00    +0.105 C 
ATOM      7  C   LIG    1       23.453 -18.946   4.558  0.00  0.00    +0.020 C 
ATOM      8  C   LIG    1       22.667 -19.783   5.578  0.00  0.00    +0.021 C 
ATOM      9  C   LIG    1       23.237 -21.205   5.436  0.00  0.00    +0.074 C 
ENDROOT
BRANCH   1  10
ATOM     10  C   LIG    1       24.830 -22.848   6.517  0.00  0.00    +0.315 C 
ATOM     11  O   LIG    1       25.958 -23.313   6.487  0.00  0.00    -0.250 OA
BRANCH  10  13
ATOM     12  C   LIG    1       23.752 -24.966   6.410  0.00  0.00    +0.280 C 
ATOM     13  O   LIG    1       23.696 -23.577   6.748  0.00  0.00    -0.468 OA
ENDBRANCH  10  13
ENDBRANCH   1  10
BRANCH   2  14
ATOM     14  O   LIG    1       26.839 -20.856   6.623  0.00  0.00    -0.457 OA
BRANCH  14  15
ATOM     15  C   LIG    1       27.227 -20.322   7.805  0.00  0.00    +0.340 C 
ATOM     16  O   LIG    1       26.551 -20.267   8.820  0.00  0.00    -0.245 OA
BRANCH  15  17
ATOM     17  C   LIG    1       28.604 -19.769   7.699  0.00  0.00    +0.059 A 
ATOM     18  C   LIG    1       29.364 -19.863   6.525  0.00  0.00    +0.015 A 
ATOM     19  C   LIG    1       30.654 -19.325   6.480  0.00  0.00    +0.001 A 
ATOM     20  C   LIG    1       31.184 -18.686   7.598  0.00  0.00    +0.000 A 
ATOM     21  C   LIG    1       30.430 -18.585   8.767  0.00  0.00    +0.001 A 
ATOM     22  C   LIG    1       29.143 -19.124   8.818  0.00  0.00    +0.015 A 
ENDBRANCH  15  17
ENDBRANCH  14  15
ENDBRANCH   2  14
TORSDOF 5
ENDMDL
MODEL 2
REMARK VINA RESULT:      -7.1      1.473      2.441
REMARK  Name = *****
REMARK                            x       y       z     vdW  Elec       q    Type
REMARK                         _______ _______ _______ _____ _____    ______ ____
ROOT
ATOM      1  C   LIG    1       25.046 -21.030   7.217  0.00  0.00    +0.155 C 
ATOM      2  C   LIG    1       25.651 -20.704   5.833  0.00  0.00    +0.193 C 
ATOM      3  C   LIG    1       24.947 -21.432   4.675  0.00  0.00    +0.064 C 
ATOM      4  C   LIG    1       23.423 -21.505   4.856  0.00  0.00    +0.060 C 
ATOM      5  N   LIG    1       23.065 -22.173   6.107  0.00  0.00    -0.298 NA
ATOM      6  C   LIG    1       23.472 -23.559   6.214  0.00  0.00    +0.105 C 
ATOM      7  C   LIG    1       22.803 -20.126   5.117  0.00  0.00    +0.020 C 
ATOM      8  C   LIG    1       22.826 -19.972   6.644  0.00  0.00    +0.021 C 
ATOM      9  C   LIG    1       23.517 -21.249   7.154  0.00  0.00    +0.074 C 
ENDROOT
BRANCH   1  10
ATOM     10  C   LIG    1       25.728 -22.130   8.013  0.00  0.00    +0.315 C 
ATOM     11  O   LIG    1       25.921 -23.281   7.652  0.00  0.00    -0.250 OA
BRANCH  10  13
ATOM     12  C   LIG    1       26.229 -20.180   9.281  0.00  0.00    +0.280 C 
ATOM     13  O   LIG    1       26.163 -21.607   9.200  0.00  0.00    -0.468 OA
ENDBRANCH  10  13
ENDBRANCH   1  10
BRANCH   2  14
ATOM     14  O   LIG    1       27.071 -20.946   5.820  0.00  0.00    -0.457 OA
BRANCH  14  15
ATOM     15  C   LIG    1       27.887 -19.869   5.720  0.00  0.00    +0.340 C 
ATOM     16  O   LIG    1       27.765 -18.953   4.924  0.00  0.00    -0.245 OA
BRANCH  15  17
ATOM     17  C   LIG    1       28.995 -19.963   6.709  0.00  0.00    +0.059 A 
ATOM     18  C   LIG    1       29.237 -21.122   7.459  0.00  0.00    +0.015 A 
ATOM     19  C   LIG    1       30.294 -21.156   8.374  0.00  0.00    +0.001 A 
ATOM     20  C   LIG    1       31.114 -20.042   8.538  0.00  0.00    +0.000 A 
ATOM     21  C   LIG    1       30.880 -18.888   7.790  0.00  0.00    +0.001 A 
ATOM     22  C   LIG    1       29.824 -18.849   6.877  0.00  0.00    +0.015 A 
ENDBRANCH  15  17
ENDBRANCH  14  15
ENDBRANCH   2  14
TORSDOF 5
ENDMDL
MODEL 3
REMARK VINA RESULT:      -7.1      2.708      6.297
REMARK  Name = *****
REMARK                            x       y       z     vdW  Elec       q    Type
REMARK                         _______ _______ _______ _____ _____    ______ ____
ROOT
ATOM      1  C   LIG    1       24.462 -21.453   6.687  0.00  0.00    +0.155 C 
ATOM      2  C   LIG    1       25.150 -22.837   6.672  0.00  0.00    +0.193 C 
ATOM      3  C   LIG    1       26.671 -22.758   6.450  0.00  0.00    +0.064 C 
ATOM      4  C   LIG    1       27.320 -21.578   7.188  0.00  0.00    +0.060 C 
ATOM      5  N   LIG    1       26.728 -20.303   6.783  0.00  0.00    -0.298 NA
ATOM      6  C   LIG    1       26.899 -19.948   5.390  0.00  0.00    +0.105 C 
ATOM      7  C   LIG    1       26.966 -21.561   8.681  0.00  0.00    +0.020 C 
ATOM      8  C   LIG    1       25.687 -20.716   8.768  0.00  0.00    +0.021 C 
ATOM      9  C   LIG    1       25.358 -20.357   7.308  0.00  0.00    +0.074 C 
ENDROOT
BRANCH   1  10
ATOM     10  C   LIG    1       23.851 -20.986   5.376  0.00  0.00    +0.315 C 
ATOM     11  O   LIG    1       24.207 -21.302   4.251  0.00  0.00    -0.250 OA
BRANCH  10  13
ATOM     12  C   LIG    1       22.490 -19.151   4.713  0.00  0.00    +0.280 C 
ATOM     13  O   LIG    1       22.773 -20.191   5.654  0.00  0.00    -0.468 OA
ENDBRANCH  10  13
ENDBRANCH   1  10
BRANCH   2  14
ATOM     14  O   LIG    1       24.523 -23.715   5.719  0.00  0.00    -0.457 OA
BRANCH  14  15
ATOM     15  C   LIG    1       23.802 -24.752   6.205  0.00  0.00    +0.340 C 
ATOM     16  O   LIG    1       22.758 -24.665   6.832  0.00  0.00    -0.245 OA
BRANCH  15  17
ATOM     17  C   LIG    1       24.475 -26.043   5.898  0.00  0.00    +0.059 A 
ATOM     18  C   LIG    1       24.121 -27.245   6.527  0.00  0.00    +0.015 A 
ATOM     19  C   LIG    1       24.786 -28.430   6.200  0.00  0.00    +0.001 A 
ATOM     20  C   LIG    1       25.797 -28.423   5.243  0.00  0.00    +0.000 A 
ATOM     21  C   LIG    1       26.151 -27.231   4.610  0.00  0.00    +0.001 A 
ATOM     22  C   LIG    1       25.491 -26.044   4.936  0.00  0.00    +0.015 A 
ENDBRANCH  15  17
ENDBRANCH  14  15
ENDBRANCH   2  14
TORSDOF 5
ENDMDL
MODEL 4
REMARK VINA RESULT:      -7.1      1.814      3.428
REMARK  Name = *****
REMARK                            x       y       z     vdW  Elec       q    Type
REMARK                         _______ _______ _______ _____ _____    ______ ____
ROOT
ATOM      1  C   LIG    1       24.907 -21.975   5.294  0.00  0.00    +0.155 C 
ATOM      2  C   LIG    1       25.938 -21.937   6.444  0.00  0.00    +0.193 C 
ATOM      3  C   LIG    1       25.514 -22.767   7.669  0.00  0.00    +0.064 C 
ATOM      4  C   LIG    1       24.830 -24.088   7.285  0.00  0.00    +0.060 C 
ATOM      5  N   LIG    1       23.649 -23.856   6.454  0.00  0.00    -0.298 NA
ATOM      6  C   LIG    1       22.580 -23.106   7.081  0.00  0.00    +0.105 C 
ATOM      7  C   LIG    1       25.673 -24.915   6.307  0.00  0.00    +0.020 C 
ATOM      8  C   LIG    1       25.220 -24.452   4.915  0.00  0.00    +0.021 C 
ATOM      9  C   LIG    1       24.191 -23.342   5.190  0.00  0.00    +0.074 C 
ENDROOT
BRANCH   1  10
ATOM     10  C   LIG    1       23.912 -20.827   5.237  0.00  0.00    +0.315 C 
ATOM     11  O   LIG    1       23.266 -20.374   6.168  0.00  0.00    -0.250 OA
BRANCH  10  13
ATOM     12  C   LIG    1       25.111 -19.717   3.507  0.00  0.00    +0.280 C 
ATOM     13  O   LIG    1       23.898 -20.323   3.965  0.00  0.00    -0.468 OA
ENDBRANCH  10  13
ENDBRANCH   1  10
BRANCH   2  14
ATOM     14  O   LIG    1       26.253 -20.580   6.810  0.00  0.00    -0.457 OA
BRANCH  14  15
ATOM     15  C   LIG    1       26.985 -20.391   7.933  0.00  0.00    +0.340 C 
ATOM     16  O   LIG    1       26.565 -20.441   9.078  0.00  0.00    -0.245 OA
BRANCH  15  17
ATOM     17  C   LIG    1       28.398 -20.076   7.585  0.00  0.00    +0.059 A 
ATOM     18  C   LIG    1       29.482 -20.569   8.324  0.00  0.00    +0.015 A 
ATOM     19  C   LIG    1       30.790 -20.243   7.953  0.00  0.00    +0.001 A 
ATOM     20  C   LIG    1       31.020 -19.432   6.844  0.00  0.00    +0.000 A 
ATOM     21  C   LIG    1       29.945 -18.942   6.102  0.00  0.00    +0.001 A 
ATOM     22  C   LIG    1       28.637 -19.264   6.472  0.00  0.00    +0.015 A 
ENDBRANCH  15  17
ENDBRANCH  14  15
ENDBRANCH   2  14
TORSDOF 5
ENDMDL
MODEL 5
REMARK VINA RESULT:      -7.1      1.966      3.600
REMARK  Name = *****
REMARK                            x       y       z     vdW  Elec       q    Type
REMARK                         _______ _______ _______ _____ _____    ______ ____
ROOT
ATOM      1  C   LIG    1       24.971 -22.040   5.272  0.00  0.00    +0.155 C 
ATOM      2  C   LIG    1       26.021 -21.979   6.406  0.00  0.00    +0.193 C 
ATOM      3  C   LIG    1       25.597 -22.746   7.670  0.00  0.00    +0.064 C 
ATOM      4  C   LIG    1       24.876 -24.066   7.351  0.00  0.00    +0.060 C 
ATOM      5  N   LIG    1       23.689 -23.841   6.528  0.00  0.00    -0.298 NA
ATOM      6  C   LIG    1       22.647 -23.041   7.138  0.00  0.00    +0.105 C 
ATOM      7  C   LIG    1       25.686 -24.953   6.396  0.00  0.00    +0.020 C 
ATOM      8  C   LIG    1       25.222 -24.537   4.993  0.00  0.00    +0.021 C 
ATOM      9  C   LIG    1       24.223 -23.392   5.236  0.00  0.00    +0.074 C 
ENDROOT
BRANCH   1  10
ATOM     10  C   LIG    1       24.003 -20.872   5.181  0.00  0.00    +0.315 C 
ATOM     11  O   LIG    1       23.398 -20.352   6.106  0.00  0.00    -0.250 OA
BRANCH  10  13
ATOM     12  C   LIG    1       23.726 -19.041   3.687  0.00  0.00    +0.280 C 
ATOM     13  O   LIG    1       23.960 -20.439   3.884  0.00  0.00    -0.468 OA
ENDBRANCH  10  13
ENDBRANCH   1  10
BRANCH   2  14
ATOM     14  O   LIG    1       26.372 -20.616   6.710  0.00  0.00    -0.457 OA
BRANCH  14  15
ATOM     15  C   LIG    1       27.363 -20.049   5.982  0.00  0.00    +0.340 C 
ATOM     16  O   LIG    1       27.247 -19.575   4.863  0.00  0.00    -0.245 OA
BRANCH  15  17
ATOM     17  C   LIG    1       28.651 -20.104   6.725  0.00  0.00    +0.059 A 
ATOM     18  C   LIG    1       28.957 -21.135   7.624  0.00  0.00    +0.015 A 
ATOM     19  C   LIG    1       30.183 -21.139   8.295  0.00  0.00    +0.001 A 
ATOM     20  C   LIG    1       31.108 -20.123   8.068  0.00  0.00    +0.000 A 
ATOM     21  C   LIG    1       30.811 -19.097   7.170  0.00  0.00    +0.001 A 
ATOM     22  C   LIG    1       29.586 -19.088   6.500  0.00  0.00    +0.015 A 
ENDBRANCH  15  17
ENDBRANCH  14  15
ENDBRANCH   2  14
TORSDOF 5
ENDMDL
MODEL 6
REMARK VINA RESULT:      -7.0      2.430      6.320
REMARK  Name = *****
REMARK                            x       y       z     vdW  Elec       q    Type
REMARK                         _______ _______ _______ _____ _____    ______ ____
ROOT
ATOM      1  C   LIG    1       25.837 -22.049   6.216  0.00  0.00    +0.155 C 
ATOM      2  C   LIG    1       24.902 -23.229   5.869  0.00  0.00    +0.193 C 
ATOM      3  C   LIG    1       23.433 -22.974   6.252  0.00  0.00    +0.064 C 
ATOM      4  C   LIG    1       22.990 -21.528   5.981  0.00  0.00    +0.060 C 
ATOM      5  N   LIG    1       23.827 -20.569   6.700  0.00  0.00    -0.298 NA
ATOM      6  C   LIG    1       23.781 -20.657   8.144  0.00  0.00    +0.105 C 
ATOM      7  C   LIG    1       23.282 -21.092   4.539  0.00  0.00    +0.020 C 
ATOM      8  C   LIG    1       24.693 -20.489   4.594  0.00  0.00    +0.021 C 
ATOM      9  C   LIG    1       25.141 -20.678   6.053  0.00  0.00    +0.074 C 
ENDROOT
BRANCH   1  10
ATOM     10  C   LIG    1       26.577 -22.137   7.541  0.00  0.00    +0.315 C 
ATOM     11  O   LIG    1       26.101 -22.443   8.624  0.00  0.00    -0.250 OA
BRANCH  10  13
ATOM     12  C   LIG    1       28.348 -20.550   7.612  0.00  0.00    +0.280 C 
ATOM     13  O   LIG    1       27.902 -21.878   7.321  0.00  0.00    -0.468 OA
ENDBRANCH  10  13
ENDBRANCH   1  10
BRANCH   2  14
ATOM     14  O   LIG    1       25.389 -24.458   6.439  0.00  0.00    -0.457 OA
BRANCH  14  15
ATOM     15  C   LIG    1       25.423 -25.548   5.637  0.00  0.00    +0.340 C 
ATOM     16  O   LIG    1       25.456 -25.537   4.417  0.00  0.00    -0.245 OA
BRANCH  15  17
ATOM     17  C   LIG    1       25.383 -26.794   6.450  0.00  0.00    +0.059 A 
ATOM     18  C   LIG    1       26.248 -27.016   7.530  0.00  0.00    +0.015 A 
ATOM     19  C   LIG    1       26.167 -28.204   8.261  0.00  0.00    +0.001 A 
ATOM     20  C   LIG    1       25.221 -29.169   7.924  0.00  0.00    +0.000 A 
ATOM     21  C   LIG    1       24.354 -28.952   6.853  0.00  0.00    +0.001 A 
ATOM     22  C   LIG    1       24.434 -27.767   6.118  0.00  0.00    +0.015 A 
ENDBRANCH  15  17
ENDBRANCH  14  15
ENDBRANCH   2  14
TORSDOF 5
ENDMDL
MODEL 7
REMARK VINA RESULT:      -6.6      6.004      9.532
REMARK  Name = *****
REMARK                            x       y       z     vdW  Elec       q    Type
REMARK                         _______ _______ _______ _____ _____    ______ ____
ROOT
ATOM      1  C   LIG    1       25.396 -30.744   7.054  0.00  0.00    +0.155 C 
ATOM      2  C   LIG    1       25.194 -29.322   7.626  0.00  0.00    +0.193 C 
ATOM      3  C   LIG    1       24.497 -29.312   8.998  0.00  0.00    +0.064 C 
ATOM      4  C   LIG    1       24.964 -30.456   9.912  0.00  0.00    +0.060 C 
ATOM      5  N   LIG    1       24.741 -31.760   9.291  0.00  0.00    -0.298 NA
ATOM      6  C   LIG    1       23.358 -32.100   9.027  0.00  0.00    +0.105 C 
ATOM      7  C   LIG    1       26.492 -30.498  10.054  0.00  0.00    +0.020 C 
ATOM      8  C   LIG    1       26.962 -31.416   8.917  0.00  0.00    +0.021 C 
ATOM      9  C   LIG    1       25.676 -31.789   8.159  0.00  0.00    +0.074 C 
ENDROOT
BRANCH   1  10
ATOM     10  C   LIG    1       24.338 -31.240   6.082  0.00  0.00    +0.315 C 
ATOM     11  O   LIG    1       23.228 -30.762   5.904  0.00  0.00    -0.250 OA
BRANCH  10  13
ATOM     12  C   LIG    1       25.878 -31.977   4.425  0.00  0.00    +0.280 C 
ATOM     13  O   LIG    1       24.853 -32.290   5.373  0.00  0.00    -0.468 OA
ENDBRANCH  10  13
ENDBRANCH   1  10
BRANCH   2  14
ATOM     14  O   LIG    1       24.509 -28.478   6.681  0.00  0.00    -0.457 OA
BRANCH  14  15
ATOM     15  C   LIG    1       25.266 -27.667   5.906  0.00  0.00    +0.340 C 
ATOM     16  O   LIG    1       26.063 -28.030   5.056  0.00  0.00    -0.245 OA
BRANCH  15  17
ATOM     17  C   LIG    1       25.020 -26.240   6.251  0.00  0.00    +0.059 A 
ATOM     18  C   LIG    1       23.743 -25.664   6.201  0.00  0.00    +0.015 A 
ATOM     19  C   LIG    1       23.568 -24.318   6.537  0.00  0.00    +0.001 A 
ATOM     20  C   LIG    1       24.659 -23.547   6.928  0.00  0.00    +0.000 A 
ATOM     21  C   LIG    1       25.932 -24.117   6.984  0.00  0.00    +0.001 A 
ATOM     22  C   LIG    1       26.112 -25.460   6.646  0.00  0.00    +0.015 A 
ENDBRANCH  15  17
ENDBRANCH  14  15
ENDBRANCH   2  14
TORSDOF 5
ENDMDL
MODEL 8
REMARK VINA RESULT:      -6.5      1.596      3.013
REMARK  Name = *****
REMARK                            x       y       z     vdW  Elec       q    Type
REMARK                         _______ _______ _______ _____ _____    ______ ____
ROOT
ATOM      1  C   LIG    1       25.580 -21.351   5.556  0.00  0.00    +0.155 C 
ATOM      2  C   LIG    1       25.699 -21.245   7.093  0.00  0.00    +0.193 C 
ATOM      3  C   LIG    1       24.366 -20.906   7.784  0.00  0.00    +0.064 C 
ATOM      4  C   LIG    1       23.166 -21.624   7.147  0.00  0.00    +0.060 C 
ATOM      5  N   LIG    1       23.044 -21.303   5.726  0.00  0.00    -0.298 NA
ATOM      6  C   LIG    1       22.789 -19.910   5.419  0.00  0.00    +0.105 C 
ATOM      7  C   LIG    1       23.383 -23.140   7.049  0.00  0.00    +0.020 C 
ATOM      8  C   LIG    1       24.042 -23.350   5.678  0.00  0.00    +0.021 C 
ATOM      9  C   LIG    1       24.218 -21.931   5.109  0.00  0.00    +0.074 C 
ENDROOT
BRANCH   1  10
ATOM     10  C   LIG    1       25.935 -20.105   4.760  0.00  0.00    +0.315 C 
ATOM     11  O   LIG    1       26.837 -19.318   5.001  0.00  0.00    -0.250 OA
BRANCH  10  13
ATOM     12  C   LIG    1       24.917 -18.732   3.106  0.00  0.00    +0.280 C 
ATOM     13  O   LIG    1       25.112 -20.032   3.670  0.00  0.00    -0.468 OA
ENDBRANCH  10  13
ENDBRANCH   1  10
BRANCH   2  14
ATOM     14  O   LIG    1       26.736 -20.319   7.468  0.00  0.00    -0.457 OA
BRANCH  14  15
ATOM     15  C   LIG    1       27.808 -20.816   8.129  0.00  0.00    +0.340 C 
ATOM     16  O   LIG    1       27.819 -21.826   8.813  0.00  0.00    -0.245 OA
BRANCH  15  17
ATOM     17  C   LIG    1       28.992 -19.936   7.937  0.00  0.00    +0.059 A 
ATOM     18  C   LIG    1       29.808 -20.011   6.800  0.00  0.00    +0.015 A 
ATOM     19  C   LIG    1       30.909 -19.158   6.670  0.00  0.00    +0.001 A 
ATOM     20  C   LIG    1       31.194 -18.227   7.665  0.00  0.00    +0.000 A 
ATOM     21  C   LIG    1       30.382 -18.145   8.796  0.00  0.00    +0.001 A 
ATOM     22  C   LIG    1       29.283 -18.996   8.932  0.00  0.00    +0.015 A 
ENDBRANCH  15  17
ENDBRANCH  14  15
ENDBRANCH   2  14
TORSDOF 5
ENDMDL
MODEL 9
REMARK VINA RESULT:      -6.5      5.780      9.293
REMARK  Name = *****
REMARK                            x       y       z     vdW  Elec       q    Type
REMARK                         _______ _______ _______ _____ _____    ______ ____
ROOT
ATOM      1  C   LIG    1       24.822 -29.691   8.993  0.00  0.00    +0.155 C 
ATOM      2  C   LIG    1       24.754 -29.463   7.466  0.00  0.00    +0.193 C 
ATOM      3  C   LIG    1       25.396 -30.599   6.651  0.00  0.00    +0.064 C 
ATOM      4  C   LIG    1       25.109 -31.989   7.239  0.00  0.00    +0.060 C 
ATOM      5  N   LIG    1       25.577 -32.091   8.621  0.00  0.00    -0.298 NA
ATOM      6  C   LIG    1       27.006 -31.946   8.810  0.00  0.00    +0.105 C 
ATOM      7  C   LIG    1       23.610 -32.228   7.459  0.00  0.00    +0.020 C 
ATOM      8  C   LIG    1       23.343 -31.735   8.888  0.00  0.00    +0.021 C 
ATOM      9  C   LIG    1       24.697 -31.185   9.370  0.00  0.00    +0.074 C 
ENDROOT
BRANCH   1  10
ATOM     10  C   LIG    1       25.980 -29.034   9.725  0.00  0.00    +0.315 C 
ATOM     11  O   LIG    1       26.992 -28.569   9.223  0.00  0.00    -0.250 OA
BRANCH  10  13
ATOM     12  C   LIG    1       26.398 -28.016  11.835  0.00  0.00    +0.280 C 
ATOM     13  O   LIG    1       25.682 -28.982  11.059  0.00  0.00    -0.468 OA
ENDBRANCH  10  13
ENDBRANCH   1  10
BRANCH   2  14
ATOM     14  O   LIG    1       25.308 -28.182   7.111  0.00  0.00    -0.457 OA
BRANCH  14  15
ATOM     15  C   LIG    1       24.706 -27.496   6.110  0.00  0.00    +0.340 C 
ATOM     16  O   LIG    1       24.231 -27.982   5.096  0.00  0.00    -0.245 OA
BRANCH  15  17
ATOM     17  C   LIG    1       24.722 -26.036   6.397  0.00  0.00    +0.059 A 
ATOM     18  C   LIG    1       23.566 -25.245   6.340  0.00  0.00    +0.015 A 
ATOM     19  C   LIG    1       23.638 -23.877   6.620  0.00  0.00    +0.001 A 
ATOM     20  C   LIG    1       24.857 -23.297   6.964  0.00  0.00    +0.000 A 
ATOM     21  C   LIG    1       26.009 -24.080   7.027  0.00  0.00    +0.001 A 
ATOM     22  C   LIG    1       25.942 -25.447   6.745  0.00  0.00    +0.015 A 
ENDBRANCH  15  17
ENDBRANCH  14  15
ENDBRANCH   2  14
TORSDOF 5
ENDMDL
