MODEL 1
REMARK VINA RESULT:      -4.6      0.000      0.000
REMARK  Name = *****
REMARK                            x       y       z     vdW  Elec       q    Type
REMARK                         _______ _______ _______ _____ _____    ______ ____
ROOT
ATOM      1  O   LIG    1       24.970 -16.668   3.370  0.00  0.00    -0.247 OA
ATOM      2  C   LIG    1       25.907 -17.446   3.509  0.00  0.00    +0.349 C 
ENDROOT
BRANCH   2   3
ATOM      3  C   LIG    1       25.823 -18.975   3.862  0.00  0.00    +0.213 C 
BRANCH   3   4
ATOM      4  C   LIG    1       24.404 -19.428   4.238  0.00  0.00    -0.001 A 
ATOM      5  C   LIG    1       23.292 -18.565   4.221  0.00  0.00    +0.007 A 
ATOM      6  C   LIG    1       22.009 -19.029   4.531  0.00  0.00    +0.000 A 
ATOM      7  C   LIG    1       21.808 -20.365   4.858  0.00  0.00    +0.000 A 
ATOM      8  C   LIG    1       22.886 -21.242   4.870  0.00  0.00    +0.000 A 
ATOM      9  C   LIG    1       24.168 -20.779   4.559  0.00  0.00    +0.007 A 
ENDBRANCH   3   4
BRANCH   3  10
ATOM     10  C   LIG    1       26.879 -19.309   4.937  0.00  0.00    -0.001 A 
ATOM     11  C   LIG    1       28.168 -18.739   4.906  0.00  0.00    +0.007 A 
ATOM     12  C   LIG    1       29.121 -19.054   5.877  0.00  0.00    +0.000 A 
ATOM     13  C   LIG    1       28.813 -19.951   6.893  0.00  0.00    +0.000 A 
ATOM     14  C   LIG    1       27.550 -20.536   6.938  0.00  0.00    +0.000 A 
ATOM     15  C   LIG    1       26.591 -20.221   5.970  0.00  0.00    +0.007 A 
ENDBRANCH   3  10
BRANCH   3  16
ATOM     16  O   LIG    1       26.126 -19.721   2.661  0.00  0.00    -0.370 OA
ATOM     17  H   LIG    1       25.868 -19.145   1.923  0.00  0.00    +0.212 HD
ENDBRANCH   3  16
ENDBRANCH   2   3
BRANCH   2  18
ATOM     18  O   LIG    1       27.221 -17.055   3.373  0.00  0.00    -0.459 OA
BRANCH  18  19
ATOM     19  C   LIG    1       27.486 -15.652   3.543  0.00  0.00    +0.187 C 
ATOM     20  C   LIG    1       27.081 -15.284   4.978  0.00  0.00    +0.099 C 
ATOM     21  C   LIG    1       26.822 -13.785   5.173  0.00  0.00    +0.070 C 
ATOM     22  N   LIG    1       25.720 -13.346   4.200  0.00  0.00    +0.248 N 
ATOM     23  C   LIG    1       26.500 -13.394   2.867  0.00  0.00    +0.070 C 
ATOM     24  C   LIG    1       27.830 -12.710   3.226  0.00  0.00    +0.060 C 
ATOM     25  C   LIG    1       25.195 -11.916   4.493  0.00  0.00    +0.134 C 
ATOM     26  C   LIG    1       23.739 -11.901   4.038  0.00  0.00    +0.056 C 
ATOM     27  C   LIG    1       23.419 -13.304   3.565  0.00  0.00    +0.056 C 
ATOM     28  C   LIG    1       24.430 -14.165   4.281  0.00  0.00    +0.134 C 
ATOM     29  C   LIG    1       28.019 -12.936   4.728  0.00  0.00    +0.060 C 
ATOM     30  C   LIG    1       26.738 -14.853   2.465  0.00  0.00    +0.099 C 
ENDBRANCH  18  19
ENDBRANCH   2  18
TORSDOF 6
ENDMDL
MODEL 2
REMARK VINA RESULT:      -3.6      0.906      2.246
REMARK  Name = *****
REMARK                            x       y       z     vdW  Elec       q    Type
REMARK                         _______ _______ _______ _____ _____    ______ ____
ROOT
ATOM      1  O   LIG    1       26.816 -17.293   3.311  0.00  0.00    -0.247 OA
ATOM      2  C   LIG    1       25.732 -17.774   3.625  0.00  0.00    +0.349 C 
ENDROOT
BRANCH   2   3
ATOM      3  C   LIG    1       25.419 -19.284   3.927  0.00  0.00    +0.213 C 
BRANCH   3   4
ATOM      4  C   LIG    1       23.933 -19.543   4.223  0.00  0.00    -0.001 A 
ATOM      5  C   LIG    1       22.935 -18.566   4.053  0.00  0.00    +0.007 A 
ATOM      6  C   LIG    1       21.588 -18.856   4.295  0.00  0.00    +0.000 A 
ATOM      7  C   LIG    1       21.208 -20.129   4.707  0.00  0.00    +0.000 A 
ATOM      8  C   LIG    1       22.173 -21.116   4.870  0.00  0.00    +0.000 A 
ATOM      9  C   LIG    1       23.519 -20.827   4.627  0.00  0.00    +0.007 A 
ENDBRANCH   3   4
BRANCH   3  10
ATOM     10  C   LIG    1       26.364 -19.788   5.039  0.00  0.00    -0.001 A 
ATOM     11  C   LIG    1       27.723 -19.417   5.076  0.00  0.00    +0.007 A 
ATOM     12  C   LIG    1       28.574 -19.885   6.079  0.00  0.00    +0.000 A 
ATOM     13  C   LIG    1       28.089 -20.740   7.062  0.00  0.00    +0.000 A 
ATOM     14  C   LIG    1       26.753 -21.131   7.041  0.00  0.00    +0.000 A 
ATOM     15  C   LIG    1       25.897 -20.661   6.039  0.00  0.00    +0.007 A 
ENDBRANCH   3  10
BRANCH   3  16
ATOM     16  O   LIG    1       25.675 -20.037   2.719  0.00  0.00    -0.370 OA
ATOM     17  H   LIG    1       26.638 -20.024   2.602  0.00  0.00    +0.212 HD
ENDBRANCH   3  16
ENDBRANCH   2   3
BRANCH   2  18
ATOM     18  O   LIG    1       24.593 -17.012   3.754  0.00  0.00    -0.459 OA
BRANCH  18  19
ATOM     19  C   LIG    1       24.703 -15.635   3.354  0.00  0.00    +0.187 C 
ATOM     20  C   LIG    1       25.988 -15.504   2.525  0.00  0.00    +0.099 C 
ATOM     21  C   LIG    1       26.520 -14.068   2.445  0.00  0.00    +0.070 C 
ATOM     22  N   LIG    1       26.774 -13.559   3.870  0.00  0.00    +0.248 N 
ATOM     23  C   LIG    1       25.319 -13.366   4.353  0.00  0.00    +0.070 C 
ATOM     24  C   LIG    1       24.654 -12.663   3.157  0.00  0.00    +0.060 C 
ATOM     25  C   LIG    1       27.558 -12.221   3.899  0.00  0.00    +0.134 C 
ATOM     26  C   LIG    1       28.353 -12.227   5.201  0.00  0.00    +0.056 C 
ATOM     27  C   LIG    1       28.087 -13.563   5.864  0.00  0.00    +0.056 C 
ATOM     28  C   LIG    1       27.675 -14.457   4.721  0.00  0.00    +0.134 C 
ATOM     29  C   LIG    1       25.456 -13.094   1.927  0.00  0.00    +0.060 C 
ATOM     30  C   LIG    1       24.674 -14.734   4.597  0.00  0.00    +0.099 C 
ENDBRANCH  18  19
ENDBRANCH   2  18
TORSDOF 6
ENDMDL
