MODEL 1
REMARK VINA RESULT:      -4.0      0.000      0.000
REMARK  Name = *****
REMARK                            x       y       z     vdW  Elec       q    Type
REMARK                         _______ _______ _______ _____ _____    ______ ____
ROOT
ATOM      1  O   LIG    1       26.379 -17.203   3.561  0.00  0.00    -0.461 OA
ENDROOT
BRANCH   1   2
ATOM      2  C   LIG    1       25.797 -15.911   3.249  0.00  0.00    +0.187 C 
ATOM      3  C   LIG    1       24.602 -15.592   4.163  0.00  0.00    +0.099 C 
ATOM      4  C   LIG    1       24.227 -14.109   4.200  0.00  0.00    +0.070 C 
ATOM      5  N   LIG    1       25.459 -13.250   4.544  0.00  0.00    +0.243 N 
ATOM      6  C   LIG    1       26.239 -13.677   5.785  0.00  0.00    +0.192 C 
ATOM      7  C   LIG    1       25.048 -11.802   4.856  0.00  0.00    +0.192 C 
ATOM      8  C   LIG    1       26.244 -13.373   3.226  0.00  0.00    +0.070 C 
ATOM      9  C   LIG    1       25.155 -13.133   2.166  0.00  0.00    +0.060 C 
ATOM     10  C   LIG    1       23.847 -13.619   2.796  0.00  0.00    +0.060 C 
ATOM     11  C   LIG    1       26.842 -14.791   3.095  0.00  0.00    +0.099 C 
ENDBRANCH   1   2
BRANCH   1  12
ATOM     12  C   LIG    1       25.727 -18.358   3.235  0.00  0.00    +0.310 C 
ATOM     13  O   LIG    1       25.619 -18.810   2.112  0.00  0.00    -0.251 OA
BRANCH  12  14
ATOM     14  C   LIG    1       25.264 -19.127   4.453  0.00  0.00    +0.098 C 
BRANCH  14  15
ATOM     15  C   LIG    1       23.984 -19.879   4.047  0.00  0.00    +0.014 C 
BRANCH  15  17
ATOM     16  C   LIG    1       22.095 -18.283   4.476  0.00  0.00    +0.004 C 
ATOM     17  C   LIG    1       22.767 -19.575   4.920  0.00  0.00    -0.003 C 
ENDBRANCH  15  17
ENDBRANCH  14  15
BRANCH  14  18
ATOM     18  C   LIG    1       26.370 -20.022   5.023  0.00  0.00    +0.014 C 
BRANCH  18  19
ATOM     19  C   LIG    1       26.153 -20.436   6.485  0.00  0.00    -0.003 C 
ATOM     20  C   LIG    1       27.222 -21.388   7.004  0.00  0.00    +0.004 C 
ENDBRANCH  18  19
ENDBRANCH  14  18
ENDBRANCH  12  14
ENDBRANCH   1  12
TORSDOF 7
ENDMDL
MODEL 2
REMARK VINA RESULT:      -3.9      0.994      2.125
REMARK  Name = *****
REMARK                            x       y       z     vdW  Elec       q    Type
REMARK                         _______ _______ _______ _____ _____    ______ ____
ROOT
ATOM      1  O   LIG    1       25.858 -17.076   3.092  0.00  0.00    -0.461 OA
ENDROOT
BRANCH   1   2
ATOM      2  C   LIG    1       25.992 -15.737   3.637  0.00  0.00    +0.187 C 
ATOM      3  C   LIG    1       26.768 -14.812   2.684  0.00  0.00    +0.099 C 
ATOM      4  C   LIG    1       26.570 -13.322   2.967  0.00  0.00    +0.070 C 
ATOM      5  N   LIG    1       25.070 -12.976   3.009  0.00  0.00    +0.243 N 
ATOM      6  C   LIG    1       24.247 -13.448   1.812  0.00  0.00    +0.192 C 
ATOM      7  C   LIG    1       24.858 -11.453   3.015  0.00  0.00    +0.192 C 
ATOM      8  C   LIG    1       24.683 -13.634   4.345  0.00  0.00    +0.070 C 
ATOM      9  C   LIG    1       25.814 -13.176   5.282  0.00  0.00    +0.060 C 
ATOM     10  C   LIG    1       27.041 -12.981   4.387  0.00  0.00    +0.060 C 
ATOM     11  C   LIG    1       24.675 -15.171   4.197  0.00  0.00    +0.099 C 
ENDBRANCH   1   2
BRANCH   1  12
ATOM     12  C   LIG    1       26.319 -18.159   3.786  0.00  0.00    +0.310 C 
ATOM     13  O   LIG    1       27.480 -18.361   4.081  0.00  0.00    -0.251 OA
BRANCH  12  14
ATOM     14  C   LIG    1       25.199 -19.039   4.298  0.00  0.00    +0.098 C 
BRANCH  14  15
ATOM     15  C   LIG    1       24.066 -18.969   3.259  0.00  0.00    +0.014 C 
BRANCH  15  17
ATOM     16  C   LIG    1       22.478 -19.268   5.179  0.00  0.00    +0.004 C 
ATOM     17  C   LIG    1       22.701 -18.591   3.834  0.00  0.00    -0.003 C 
ENDBRANCH  15  17
ENDBRANCH  14  15
BRANCH  14  18
ATOM     18  C   LIG    1       25.681 -20.459   4.613  0.00  0.00    +0.014 C 
BRANCH  18  19
ATOM     19  C   LIG    1       25.661 -20.814   6.106  0.00  0.00    -0.003 C 
ATOM     20  C   LIG    1       27.026 -20.704   6.767  0.00  0.00    +0.004 C 
ENDBRANCH  18  19
ENDBRANCH  14  18
ENDBRANCH  12  14
ENDBRANCH   1  12
TORSDOF 7
ENDMDL
MODEL 3
REMARK VINA RESULT:      -3.9      1.220      3.051
REMARK  Name = *****
REMARK                            x       y       z     vdW  Elec       q    Type
REMARK                         _______ _______ _______ _____ _____    ______ ____
ROOT
ATOM      1  O   LIG    1       25.947 -17.101   3.005  0.00  0.00    -0.461 OA
ENDROOT
BRANCH   1   2
ATOM      2  C   LIG    1       26.074 -15.771   3.571  0.00  0.00    +0.187 C 
ATOM      3  C   LIG    1       26.821 -14.819   2.622  0.00  0.00    +0.099 C 
ATOM      4  C   LIG    1       26.609 -13.336   2.936  0.00  0.00    +0.070 C 
ATOM      5  N   LIG    1       25.106 -13.010   3.011  0.00  0.00    +0.243 N 
ATOM      6  C   LIG    1       24.268 -13.471   1.820  0.00  0.00    +0.192 C 
ATOM      7  C   LIG    1       24.875 -11.491   3.048  0.00  0.00    +0.192 C 
ATOM      8  C   LIG    1       24.751 -13.697   4.342  0.00  0.00    +0.070 C 
ATOM      9  C   LIG    1       25.893 -13.242   5.267  0.00  0.00    +0.060 C 
ATOM     10  C   LIG    1       27.102 -13.015   4.354  0.00  0.00    +0.060 C 
ATOM     11  C   LIG    1       24.759 -15.232   4.165  0.00  0.00    +0.099 C 
ENDBRANCH   1   2
BRANCH   1  12
ATOM     12  C   LIG    1       26.376 -18.197   3.698  0.00  0.00    +0.310 C 
ATOM     13  O   LIG    1       27.397 -18.257   4.353  0.00  0.00    -0.251 OA
BRANCH  12  14
ATOM     14  C   LIG    1       25.359 -19.318   3.698  0.00  0.00    +0.098 C 
BRANCH  14  15
ATOM     15  C   LIG    1       25.463 -20.016   5.066  0.00  0.00    +0.014 C 
BRANCH  15  17
ATOM     16  C   LIG    1       24.304 -21.561   6.667  0.00  0.00    +0.004 C 
ATOM     17  C   LIG    1       24.602 -21.271   5.203  0.00  0.00    -0.003 C 
ENDBRANCH  15  17
ENDBRANCH  14  15
BRANCH  14  18
ATOM     18  C   LIG    1       23.953 -18.818   3.349  0.00  0.00    +0.014 C 
BRANCH  18  19
ATOM     19  C   LIG    1       22.926 -18.989   4.477  0.00  0.00    -0.003 C 
ATOM     20  C   LIG    1       22.087 -17.743   4.718  0.00  0.00    +0.004 C 
ENDBRANCH  18  19
ENDBRANCH  14  18
ENDBRANCH  12  14
ENDBRANCH   1  12
TORSDOF 7
ENDMDL
MODEL 4
REMARK VINA RESULT:      -3.8      1.075      2.420
REMARK  Name = *****
REMARK                            x       y       z     vdW  Elec       q    Type
REMARK                         _______ _______ _______ _____ _____    ______ ____
ROOT
ATOM      1  O   LIG    1       26.169 -17.306   3.329  0.00  0.00    -0.461 OA
ENDROOT
BRANCH   1   2
ATOM      2  C   LIG    1       25.644 -15.969   3.123  0.00  0.00    +0.187 C 
ATOM      3  C   LIG    1       24.579 -15.609   4.173  0.00  0.00    +0.099 C 
ATOM      4  C   LIG    1       24.312 -14.108   4.297  0.00  0.00    +0.070 C 
ATOM      5  N   LIG    1       25.628 -13.343   4.529  0.00  0.00    +0.243 N 
ATOM      6  C   LIG    1       26.508 -13.865   5.662  0.00  0.00    +0.192 C 
ATOM      7  C   LIG    1       25.351 -11.884   4.928  0.00  0.00    +0.192 C 
ATOM      8  C   LIG    1       26.256 -13.465   3.129  0.00  0.00    +0.070 C 
ATOM      9  C   LIG    1       25.077 -13.117   2.203  0.00  0.00    +0.060 C 
ATOM     10  C   LIG    1       23.815 -13.542   2.959  0.00  0.00    +0.060 C 
ATOM     11  C   LIG    1       26.740 -14.912   2.889  0.00  0.00    +0.099 C 
ENDBRANCH   1   2
BRANCH   1  12
ATOM     12  C   LIG    1       25.329 -18.352   3.587  0.00  0.00    +0.310 C 
ATOM     13  O   LIG    1       24.140 -18.374   3.341  0.00  0.00    -0.251 OA
BRANCH  12  14
ATOM     14  C   LIG    1       26.064 -19.577   4.086  0.00  0.00    +0.098 C 
BRANCH  14  15
ATOM     15  C   LIG    1       27.036 -19.099   5.180  0.00  0.00    +0.014 C 
BRANCH  15  17
ATOM     16  C   LIG    1       28.023 -20.437   7.060  0.00  0.00    +0.004 C 
ATOM     17  C   LIG    1       28.100 -20.124   5.573  0.00  0.00    -0.003 C 
ENDBRANCH  15  17
ENDBRANCH  14  15
BRANCH  14  18
ATOM     18  C   LIG    1       25.102 -20.683   4.534  0.00  0.00    +0.014 C 
BRANCH  18  19
ATOM     19  C   LIG    1       24.552 -20.501   5.955  0.00  0.00    -0.003 C 
ATOM     20  C   LIG    1       23.034 -20.415   6.005  0.00  0.00    +0.004 C 
ENDBRANCH  18  19
ENDBRANCH  14  18
ENDBRANCH  12  14
ENDBRANCH   1  12
TORSDOF 7
ENDMDL
MODEL 5
REMARK VINA RESULT:      -3.4      1.113      2.547
REMARK  Name = *****
REMARK                            x       y       z     vdW  Elec       q    Type
REMARK                         _______ _______ _______ _____ _____    ______ ____
ROOT
ATOM      1  O   LIG    1       24.745 -17.089   3.856  0.00  0.00    -0.461 OA
ENDROOT
BRANCH   1   2
ATOM      2  C   LIG    1       25.359 -15.848   3.421  0.00  0.00    +0.187 C 
ATOM      3  C   LIG    1       24.652 -14.623   4.024  0.00  0.00    +0.099 C 
ATOM      4  C   LIG    1       25.485 -13.340   3.979  0.00  0.00    +0.070 C 
ATOM      5  N   LIG    1       26.869 -13.574   4.612  0.00  0.00    +0.243 N 
ATOM      6  C   LIG    1       26.864 -14.207   6.001  0.00  0.00    +0.192 C 
ATOM      7  C   LIG    1       27.607 -12.242   4.824  0.00  0.00    +0.192 C 
ATOM      8  C   LIG    1       27.517 -14.443   3.519  0.00  0.00    +0.070 C 
ATOM      9  C   LIG    1       27.151 -13.687   2.230  0.00  0.00    +0.060 C 
ATOM     10  C   LIG    1       25.827 -12.977   2.527  0.00  0.00    +0.060 C 
ATOM     11  C   LIG    1       26.895 -15.857   3.527  0.00  0.00    +0.099 C 
ENDBRANCH   1   2
BRANCH   1  12
ATOM     12  C   LIG    1       25.104 -18.280   3.291  0.00  0.00    +0.310 C 
ATOM     13  O   LIG    1       26.095 -18.464   2.613  0.00  0.00    -0.251 OA
BRANCH  12  14
ATOM     14  C   LIG    1       24.205 -19.420   3.720  0.00  0.00    +0.098 C 
BRANCH  14  15
ATOM     15  C   LIG    1       25.118 -20.511   4.307  0.00  0.00    +0.014 C 
BRANCH  15  17
ATOM     16  C   LIG    1       26.060 -20.649   6.629  0.00  0.00    +0.004 C 
ATOM     17  C   LIG    1       26.192 -19.992   5.263  0.00  0.00    -0.003 C 
ENDBRANCH  15  17
ENDBRANCH  14  15
BRANCH  14  18
ATOM     18  C   LIG    1       23.093 -18.950   4.664  0.00  0.00    +0.014 C 
BRANCH  18  19
ATOM     19  C   LIG    1       22.600 -20.028   5.641  0.00  0.00    -0.003 C 
ATOM     20  C   LIG    1       21.841 -21.155   4.957  0.00  0.00    +0.004 C 
ENDBRANCH  18  19
ENDBRANCH  14  18
ENDBRANCH  12  14
ENDBRANCH   1  12
TORSDOF 7
ENDMDL
MODEL 6
REMARK VINA RESULT:      -3.0      2.133      6.272
REMARK  Name = *****
REMARK                            x       y       z     vdW  Elec       q    Type
REMARK                         _______ _______ _______ _____ _____    ______ ____
ROOT
ATOM      1  O   LIG    1       25.759 -17.322   2.894  0.00  0.00    -0.461 OA
ENDROOT
BRANCH   1   2
ATOM      2  C   LIG    1       25.409 -18.653   3.352  0.00  0.00    +0.187 C 
ATOM      3  C   LIG    1       25.335 -18.725   4.886  0.00  0.00    +0.099 C 
ATOM      4  C   LIG    1       24.559 -19.933   5.415  0.00  0.00    +0.070 C 
ATOM      5  N   LIG    1       23.163 -20.002   4.769  0.00  0.00    +0.243 N 
ATOM      6  C   LIG    1       22.339 -18.718   4.831  0.00  0.00    +0.192 C 
ATOM      7  C   LIG    1       22.277 -21.035   5.485  0.00  0.00    +0.192 C 
ATOM      8  C   LIG    1       23.551 -20.439   3.345  0.00  0.00    +0.070 C 
ATOM      9  C   LIG    1       24.560 -21.571   3.607  0.00  0.00    +0.060 C 
ATOM     10  C   LIG    1       25.219 -21.237   4.948  0.00  0.00    +0.060 C 
ATOM     11  C   LIG    1       24.218 -19.267   2.593  0.00  0.00    +0.099 C 
ENDBRANCH   1   2
BRANCH   1  12
ATOM     12  C   LIG    1       26.707 -16.587   3.548  0.00  0.00    +0.310 C 
ATOM     13  O   LIG    1       27.715 -17.035   4.055  0.00  0.00    -0.251 OA
BRANCH  12  14
ATOM     14  C   LIG    1       26.453 -15.097   3.453  0.00  0.00    +0.098 C 
BRANCH  14  15
ATOM     15  C   LIG    1       24.941 -14.889   3.650  0.00  0.00    +0.014 C 
BRANCH  15  17
ATOM     16  C   LIG    1       24.055 -12.541   3.609  0.00  0.00    +0.004 C 
ATOM     17  C   LIG    1       24.575 -13.666   4.491  0.00  0.00    -0.003 C 
ENDBRANCH  15  17
ENDBRANCH  14  15
BRANCH  14  18
ATOM     18  C   LIG    1       27.333 -14.301   4.424  0.00  0.00    +0.014 C 
BRANCH  18  19
ATOM     19  C   LIG    1       28.407 -13.444   3.740  0.00  0.00    -0.003 C 
ATOM     20  C   LIG    1       28.856 -12.261   4.584  0.00  0.00    +0.004 C 
ENDBRANCH  18  19
ENDBRANCH  14  18
ENDBRANCH  12  14
ENDBRANCH   1  12
TORSDOF 7
ENDMDL
MODEL 7
REMARK VINA RESULT:      -2.9      1.156      2.928
REMARK  Name = *****
REMARK                            x       y       z     vdW  Elec       q    Type
REMARK                         _______ _______ _______ _____ _____    ______ ____
ROOT
ATOM      1  O   LIG    1       26.670 -17.171   3.252  0.00  0.00    -0.461 OA
ENDROOT
BRANCH   1   2
ATOM      2  C   LIG    1       26.743 -15.726   3.353  0.00  0.00    +0.187 C 
ATOM      3  C   LIG    1       25.808 -15.038   2.344  0.00  0.00    +0.099 C 
ATOM      4  C   LIG    1       25.498 -13.578   2.678  0.00  0.00    +0.070 C 
ATOM      5  N   LIG    1       24.976 -13.455   4.122  0.00  0.00    +0.243 N 
ATOM      6  C   LIG    1       23.823 -14.385   4.492  0.00  0.00    +0.192 C 
ATOM      7  C   LIG    1       24.404 -12.051   4.380  0.00  0.00    +0.192 C 
ATOM      8  C   LIG    1       26.279 -13.717   4.899  0.00  0.00    +0.070 C 
ATOM      9  C   LIG    1       27.295 -12.835   4.153  0.00  0.00    +0.060 C 
ATOM     10  C   LIG    1       26.792 -12.751   2.709  0.00  0.00    +0.060 C 
ATOM     11  C   LIG    1       26.664 -15.209   4.801  0.00  0.00    +0.099 C 
ENDBRANCH   1   2
BRANCH   1  12
ATOM     12  C   LIG    1       25.517 -17.834   3.568  0.00  0.00    +0.310 C 
ATOM     13  O   LIG    1       24.416 -17.328   3.647  0.00  0.00    -0.251 OA
BRANCH  12  14
ATOM     14  C   LIG    1       25.718 -19.331   3.668  0.00  0.00    +0.098 C 
BRANCH  14  15
ATOM     15  C   LIG    1       26.210 -19.620   5.097  0.00  0.00    +0.014 C 
BRANCH  15  17
ATOM     16  C   LIG    1       28.114 -20.153   6.643  0.00  0.00    +0.004 C 
ATOM     17  C   LIG    1       27.729 -19.714   5.238  0.00  0.00    -0.003 C 
ENDBRANCH  15  17
ENDBRANCH  14  15
BRANCH  14  18
ATOM     18  C   LIG    1       24.461 -20.108   3.262  0.00  0.00    +0.014 C 
BRANCH  18  19
ATOM     19  C   LIG    1       23.729 -20.778   4.433  0.00  0.00    -0.003 C 
ATOM     20  C   LIG    1       22.531 -19.980   4.926  0.00  0.00    +0.004 C 
ENDBRANCH  18  19
ENDBRANCH  14  18
ENDBRANCH  12  14
ENDBRANCH   1  12
TORSDOF 7
ENDMDL
MODEL 8
REMARK VINA RESULT:      -2.9      2.111      6.486
REMARK  Name = *****
REMARK                            x       y       z     vdW  Elec       q    Type
REMARK                         _______ _______ _______ _____ _____    ______ ____
ROOT
ATOM      1  O   LIG    1       25.749 -17.298   2.949  0.00  0.00    -0.461 OA
ENDROOT
BRANCH   1   2
ATOM      2  C   LIG    1       25.415 -18.641   3.382  0.00  0.00    +0.187 C 
ATOM      3  C   LIG    1       25.359 -18.746   4.915  0.00  0.00    +0.099 C 
ATOM      4  C   LIG    1       24.598 -19.971   5.427  0.00  0.00    +0.070 C 
ATOM      5  N   LIG    1       23.195 -20.037   4.795  0.00  0.00    +0.243 N 
ATOM      6  C   LIG    1       22.362 -18.762   4.894  0.00  0.00    +0.192 C 
ATOM      7  C   LIG    1       22.326 -21.092   5.499  0.00  0.00    +0.192 C 
ATOM      8  C   LIG    1       23.571 -20.442   3.358  0.00  0.00    +0.070 C 
ATOM      9  C   LIG    1       24.591 -21.571   3.585  0.00  0.00    +0.060 C 
ATOM     10  C   LIG    1       25.263 -21.260   4.925  0.00  0.00    +0.060 C 
ATOM     11  C   LIG    1       24.220 -19.248   2.624  0.00  0.00    +0.099 C 
ENDBRANCH   1   2
BRANCH   1  12
ATOM     12  C   LIG    1       26.672 -16.555   3.630  0.00  0.00    +0.310 C 
ATOM     13  O   LIG    1       27.753 -16.957   4.010  0.00  0.00    -0.251 OA
BRANCH  12  14
ATOM     14  C   LIG    1       26.275 -15.099   3.743  0.00  0.00    +0.098 C 
BRANCH  14  15
ATOM     15  C   LIG    1       27.272 -14.297   2.887  0.00  0.00    +0.014 C 
BRANCH  15  17
ATOM     16  C   LIG    1       27.719 -13.283   5.138  0.00  0.00    +0.004 C 
ATOM     17  C   LIG    1       28.142 -13.320   3.677  0.00  0.00    -0.003 C 
ENDBRANCH  15  17
ENDBRANCH  14  15
BRANCH  14  18
ATOM     18  C   LIG    1       24.804 -14.874   3.378  0.00  0.00    +0.014 C 
BRANCH  18  19
ATOM     19  C   LIG    1       23.998 -14.123   4.447  0.00  0.00    -0.003 C 
ATOM     20  C   LIG    1       24.239 -12.621   4.436  0.00  0.00    +0.004 C 
ENDBRANCH  18  19
ENDBRANCH  14  18
ENDBRANCH  12  14
ENDBRANCH   1  12
TORSDOF 7
ENDMDL
MODEL 9
REMARK VINA RESULT:      -2.3      2.149      6.546
REMARK  Name = *****
REMARK                            x       y       z     vdW  Elec       q    Type
REMARK                         _______ _______ _______ _____ _____    ______ ____
ROOT
ATOM      1  O   LIG    1       26.252 -16.746   3.607  0.00  0.00    -0.461 OA
ENDROOT
BRANCH   1   2
ATOM      2  C   LIG    1       25.294 -17.815   3.394  0.00  0.00    +0.187 C 
ATOM      3  C   LIG    1       25.985 -19.185   3.293  0.00  0.00    +0.099 C 
ATOM      4  C   LIG    1       25.046 -20.373   3.512  0.00  0.00    +0.070 C 
ATOM      5  N   LIG    1       24.277 -20.214   4.837  0.00  0.00    +0.243 N 
ATOM      6  C   LIG    1       25.131 -19.922   6.069  0.00  0.00    +0.192 C 
ATOM      7  C   LIG    1       23.545 -21.515   5.206  0.00  0.00    +0.192 C 
ATOM      8  C   LIG    1       23.312 -19.080   4.450  0.00  0.00    +0.070 C 
ATOM      9  C   LIG    1       22.796 -19.536   3.074  0.00  0.00    +0.060 C 
ATOM     10  C   LIG    1       23.926 -20.369   2.462  0.00  0.00    +0.060 C 
ATOM     11  C   LIG    1       24.079 -17.744   4.339  0.00  0.00    +0.099 C 
ENDBRANCH   1   2
BRANCH   1  12
ATOM     12  C   LIG    1       25.972 -15.470   3.208  0.00  0.00    +0.310 C 
ATOM     13  O   LIG    1       26.071 -15.054   2.071  0.00  0.00    -0.251 OA
BRANCH  12  14
ATOM     14  C   LIG    1       25.368 -14.635   4.316  0.00  0.00    +0.098 C 
BRANCH  14  15
ATOM     15  C   LIG    1       26.440 -13.618   4.744  0.00  0.00    +0.014 C 
BRANCH  15  17
ATOM     16  C   LIG    1       28.668 -12.733   4.000  0.00  0.00    +0.004 C 
ATOM     17  C   LIG    1       27.863 -13.984   4.323  0.00  0.00    -0.003 C 
ENDBRANCH  15  17
ENDBRANCH  14  15
BRANCH  14  18
ATOM     18  C   LIG    1       24.032 -14.009   3.901  0.00  0.00    +0.014 C 
BRANCH  18  19
ATOM     19  C   LIG    1       24.073 -12.482   3.750  0.00  0.00    -0.003 C 
ATOM     20  C   LIG    1       24.338 -12.027   2.323  0.00  0.00    +0.004 C 
ENDBRANCH  18  19
ENDBRANCH  14  18
ENDBRANCH  12  14
ENDBRANCH   1  12
TORSDOF 7
ENDMDL
