MODEL 1
REMARK VINA RESULT:      -6.2      0.000      0.000
REMARK  Name = *****
REMARK                            x       y       z     vdW  Elec       q    Type
REMARK                         _______ _______ _______ _____ _____    ______ ____
ROOT
ATOM      1  O   LIG    1       26.458 -17.527   3.082  0.00  0.00    -0.286 OA
ATOM      2  C   LIG    1       25.382 -17.102   3.493  0.00  0.00    +0.201 C 
ATOM      3  C   LIG    1       25.084 -15.647   3.619  0.00  0.00    +0.067 A 
ATOM      4  C   LIG    1       23.825 -15.245   4.094  0.00  0.00    -0.029 A 
ATOM      5  C   LIG    1       23.538 -13.872   4.215  0.00  0.00    +0.005 A 
ATOM      6  C   LIG    1       24.486 -12.911   3.869  0.00  0.00    +0.004 A 
ATOM      7  C   LIG    1       25.733 -13.307   3.397  0.00  0.00    +0.046 A 
ATOM      8  C   LIG    1       22.753 -16.226   4.481  0.00  0.00    +0.072 C 
ATOM      9  C   LIG    1       23.107 -17.680   4.347  0.00  0.00    -0.029 A 
ATOM     10  C   LIG    1       22.149 -18.647   4.704  0.00  0.00    +0.005 A 
ATOM     11  C   LIG    1       22.431 -20.009   4.593  0.00  0.00    +0.004 A 
ATOM     12  C   LIG    1       23.674 -20.424   4.123  0.00  0.00    +0.046 A 
ATOM     13  C   LIG    1       24.628 -19.476   3.768  0.00  0.00    +0.128 A 
ATOM     14  C   LIG    1       26.032 -14.666   3.273  0.00  0.00    +0.128 A 
ATOM     15  C   LIG    1       24.355 -18.101   3.876  0.00  0.00    +0.067 A 
ENDROOT
BRANCH  13  16
ATOM     16  O   LIG    1       25.825 -19.968   3.316  0.00  0.00    -0.506 OA
ATOM     17  H   LIG    1       25.983 -19.575   2.424  0.00  0.00    +0.292 HD
ENDBRANCH  13  16
BRANCH  14  18
ATOM     18  O   LIG    1       27.268 -15.014   2.806  0.00  0.00    -0.506 OA
ATOM     19  H   LIG    1       27.932 -14.370   3.093  0.00  0.00    +0.292 HD
ENDBRANCH  14  18
TORSDOF 2
ENDMDL
MODEL 2
REMARK VINA RESULT:      -6.2      3.526      5.823
REMARK  Name = *****
REMARK                            x       y       z     vdW  Elec       q    Type
REMARK                         _______ _______ _______ _____ _____    ______ ____
ROOT
ATOM      1  O   LIG    1       25.900 -18.302   3.738  0.00  0.00    -0.286 OA
ATOM      2  C   LIG    1       25.848 -19.161   4.613  0.00  0.00    +0.201 C 
ATOM      3  C   LIG    1       24.596 -19.898   4.948  0.00  0.00    +0.067 A 
ATOM      4  C   LIG    1       24.625 -20.871   5.961  0.00  0.00    -0.029 A 
ATOM      5  C   LIG    1       23.446 -21.570   6.281  0.00  0.00    +0.005 A 
ATOM      6  C   LIG    1       22.255 -21.308   5.606  0.00  0.00    +0.004 A 
ATOM      7  C   LIG    1       22.225 -20.346   4.602  0.00  0.00    +0.046 A 
ATOM      8  C   LIG    1       25.875 -21.207   6.727  0.00  0.00    +0.072 C 
ATOM      9  C   LIG    1       27.106 -20.429   6.360  0.00  0.00    -0.029 A 
ATOM     10  C   LIG    1       28.305 -20.691   7.049  0.00  0.00    +0.005 A 
ATOM     11  C   LIG    1       29.475 -19.996   6.739  0.00  0.00    +0.004 A 
ATOM     12  C   LIG    1       29.463 -19.030   5.738  0.00  0.00    +0.046 A 
ATOM     13  C   LIG    1       28.283 -18.762   5.051  0.00  0.00    +0.128 A 
ATOM     14  C   LIG    1       23.387 -19.644   4.274  0.00  0.00    +0.128 A 
ATOM     15  C   LIG    1       27.099 -19.456   5.354  0.00  0.00    +0.067 A 
ENDROOT
BRANCH  13  16
ATOM     16  O   LIG    1       28.358 -17.797   4.081  0.00  0.00    -0.506 OA
ATOM     17  H   LIG    1       27.455 -17.411   3.984  0.00  0.00    +0.292 HD
ENDBRANCH  13  16
BRANCH  14  18
ATOM     18  O   LIG    1       23.315 -18.707   3.282  0.00  0.00    -0.506 OA
ATOM     19  H   LIG    1       24.161 -18.244   3.191  0.00  0.00    +0.292 HD
ENDBRANCH  14  18
TORSDOF 2
ENDMDL
MODEL 3
REMARK VINA RESULT:      -6.2      0.059      4.862
REMARK  Name = *****
REMARK                            x       y       z     vdW  Elec       q    Type
REMARK                         _______ _______ _______ _____ _____    ______ ____
ROOT
ATOM      1  O   LIG    1       26.508 -17.424   3.123  0.00  0.00    -0.286 OA
ATOM      2  C   LIG    1       25.384 -17.130   3.523  0.00  0.00    +0.201 C 
ATOM      3  C   LIG    1       24.363 -18.154   3.885  0.00  0.00    +0.067 A 
ATOM      4  C   LIG    1       23.103 -17.732   4.339  0.00  0.00    -0.029 A 
ATOM      5  C   LIG    1       22.134 -18.695   4.683  0.00  0.00    +0.005 A 
ATOM      6  C   LIG    1       22.412 -20.056   4.579  0.00  0.00    +0.004 A 
ATOM      7  C   LIG    1       23.660 -20.476   4.130  0.00  0.00    +0.046 A 
ATOM      8  C   LIG    1       22.735 -16.280   4.481  0.00  0.00    +0.072 C 
ATOM      9  C   LIG    1       23.795 -15.289   4.092  0.00  0.00    -0.029 A 
ATOM     10  C   LIG    1       23.507 -13.915   4.192  0.00  0.00    +0.005 A 
ATOM     11  C   LIG    1       24.461 -12.957   3.846  0.00  0.00    +0.004 A 
ATOM     12  C   LIG    1       25.716 -13.359   3.395  0.00  0.00    +0.046 A 
ATOM     13  C   LIG    1       26.010 -14.715   3.292  0.00  0.00    +0.128 A 
ATOM     14  C   LIG    1       24.631 -19.532   3.785  0.00  0.00    +0.128 A 
ATOM     15  C   LIG    1       25.056 -15.688   3.638  0.00  0.00    +0.067 A 
ENDROOT
BRANCH  13  16
ATOM     16  O   LIG    1       27.266 -15.024   2.839  0.00  0.00    -0.506 OA
ATOM     17  H   LIG    1       27.268 -15.987   2.621  0.00  0.00    +0.292 HD
ENDBRANCH  13  16
BRANCH  14  18
ATOM     18  O   LIG    1       25.843 -19.985   3.349  0.00  0.00    -0.506 OA
ATOM     19  H   LIG    1       26.178 -20.678   3.938  0.00  0.00    +0.292 HD
ENDBRANCH  14  18
TORSDOF 2
ENDMDL
MODEL 4
REMARK VINA RESULT:      -4.9      2.068      5.637
REMARK  Name = *****
REMARK                            x       y       z     vdW  Elec       q    Type
REMARK                         _______ _______ _______ _____ _____    ______ ____
ROOT
ATOM      1  O   LIG    1       22.752 -15.528   4.397  0.00  0.00    -0.286 OA
ATOM      2  C   LIG    1       23.810 -16.067   4.082  0.00  0.00    +0.201 C 
ATOM      3  C   LIG    1       23.961 -17.545   3.972  0.00  0.00    +0.067 A 
ATOM      4  C   LIG    1       25.205 -18.080   3.599  0.00  0.00    -0.029 A 
ATOM      5  C   LIG    1       25.354 -19.476   3.494  0.00  0.00    +0.005 A 
ATOM      6  C   LIG    1       24.284 -20.330   3.752  0.00  0.00    +0.004 A 
ATOM      7  C   LIG    1       23.050 -19.802   4.120  0.00  0.00    +0.046 A 
ATOM      8  C   LIG    1       26.402 -17.219   3.301  0.00  0.00    +0.072 C 
ATOM      9  C   LIG    1       26.201 -15.737   3.438  0.00  0.00    -0.029 A 
ATOM     10  C   LIG    1       27.286 -14.878   3.183  0.00  0.00    +0.005 A 
ATOM     11  C   LIG    1       27.146 -13.494   3.293  0.00  0.00    +0.004 A 
ATOM     12  C   LIG    1       25.919 -12.949   3.660  0.00  0.00    +0.046 A 
ATOM     13  C   LIG    1       24.839 -13.788   3.915  0.00  0.00    +0.128 A 
ATOM     14  C   LIG    1       22.888 -18.419   4.230  0.00  0.00    +0.128 A 
ATOM     15  C   LIG    1       24.969 -15.184   3.807  0.00  0.00    +0.067 A 
ENDROOT
BRANCH  13  16
ATOM     16  O   LIG    1       23.669 -13.171   4.271  0.00  0.00    -0.506 OA
ATOM     17  H   LIG    1       23.273 -13.698   5.005  0.00  0.00    +0.292 HD
ENDBRANCH  13  16
BRANCH  14  18
ATOM     18  O   LIG    1       21.661 -17.941   4.593  0.00  0.00    -0.506 OA
ATOM     19  H   LIG    1       21.226 -18.553   5.205  0.00  0.00    +0.292 HD
ENDBRANCH  14  18
TORSDOF 2
ENDMDL
MODEL 5
REMARK VINA RESULT:      -4.8      2.072      2.894
REMARK  Name = *****
REMARK                            x       y       z     vdW  Elec       q    Type
REMARK                         _______ _______ _______ _____ _____    ______ ____
ROOT
ATOM      1  O   LIG    1       22.729 -15.593   4.448  0.00  0.00    -0.286 OA
ATOM      2  C   LIG    1       23.831 -16.011   4.103  0.00  0.00    +0.201 C 
ATOM      3  C   LIG    1       24.982 -15.110   3.816  0.00  0.00    +0.067 A 
ATOM      4  C   LIG    1       26.212 -15.672   3.431  0.00  0.00    -0.029 A 
ATOM      5  C   LIG    1       27.303 -14.825   3.158  0.00  0.00    +0.005 A 
ATOM      6  C   LIG    1       27.178 -13.442   3.265  0.00  0.00    +0.004 A 
ATOM      7  C   LIG    1       25.962 -12.884   3.646  0.00  0.00    +0.046 A 
ATOM      8  C   LIG    1       26.420 -17.156   3.300  0.00  0.00    +0.072 C 
ATOM      9  C   LIG    1       25.225 -18.019   3.590  0.00  0.00    -0.029 A 
ATOM     10  C   LIG    1       25.354 -19.416   3.474  0.00  0.00    +0.005 A 
ATOM     11  C   LIG    1       24.274 -20.259   3.737  0.00  0.00    +0.004 A 
ATOM     12  C   LIG    1       23.049 -19.718   4.119  0.00  0.00    +0.046 A 
ATOM     13  C   LIG    1       22.911 -18.338   4.236  0.00  0.00    +0.128 A 
ATOM     14  C   LIG    1       24.870 -13.711   3.920  0.00  0.00    +0.128 A 
ATOM     15  C   LIG    1       23.993 -17.480   3.974  0.00  0.00    +0.067 A 
ENDROOT
BRANCH  13  16
ATOM     16  O   LIG    1       21.673 -17.889   4.617  0.00  0.00    -0.506 OA
ATOM     17  H   LIG    1       21.435 -18.363   5.449  0.00  0.00    +0.292 HD
ENDBRANCH  13  16
BRANCH  14  18
ATOM     18  O   LIG    1       23.694 -13.124   4.291  0.00  0.00    -0.506 OA
ATOM     19  H   LIG    1       23.521 -13.277   5.231  0.00  0.00    +0.292 HD
ENDBRANCH  14  18
TORSDOF 2
ENDMDL
