MODEL 1
REMARK VINA RESULT:      -7.7      0.000      0.000
REMARK  Name = *****
REMARK                            x       y       z     vdW  Elec       q    Type
REMARK                         _______ _______ _______ _____ _____    ______ ____
ROOT
ATOM      1  C   LIG    1       26.838 -20.362   7.155  0.00  0.00    +0.027 C 
ENDROOT
BRANCH   1   3
ATOM      2  C   LIG    1       26.020 -22.509   8.238  0.00  0.00    -0.027 C 
ATOM      3  C   LIG    1       26.511 -21.253   8.336  0.00  0.00    -0.031 C 
BRANCH   2   4
ATOM      4  C   LIG    1       25.714 -23.287   6.979  0.00  0.00    +0.054 C 
BRANCH   4   6
ATOM      5  C   LIG    1       23.190 -22.682   6.780  0.00  0.00    -0.027 C 
ATOM      6  C   LIG    1       24.247 -23.514   6.706  0.00  0.00    -0.027 C 
BRANCH   5   7
ATOM      7  C   LIG    1       23.174 -21.211   7.076  0.00  0.00    +0.054 C 
BRANCH   7   9
ATOM      8  C   LIG    1       23.405 -19.968   4.783  0.00  0.00    -0.031 C 
ATOM      9  C   LIG    1       22.779 -20.341   5.910  0.00  0.00    -0.027 C 
BRANCH   8  11
ATOM     10  C   LIG    1       25.399 -19.135   3.643  0.00  0.00    +0.008 C 
ATOM     11  C   LIG    1       24.717 -20.392   4.193  0.00  0.00    +0.023 C 
ENDBRANCH   8  11
ENDBRANCH   7   9
ENDBRANCH   5   7
ENDBRANCH   4   6
ENDBRANCH   2   4
ENDBRANCH   1   3
BRANCH   1  12
ATOM     12  C   LIG    1       28.268 -20.470   6.580  0.00  0.00    +0.004 C 
BRANCH  12  13
ATOM     13  C   LIG    1       28.809 -19.190   5.866  0.00  0.00    +0.000 C 
BRANCH  13  14
ATOM     14  C   LIG    1       30.291 -18.922   6.098  0.00  0.00    +0.000 C 
BRANCH  14  15
ATOM     15  C   LIG    1       30.967 -19.514   7.350  0.00  0.00    +0.000 C 
BRANCH  15  16
ATOM     16  C   LIG    1       31.428 -18.445   8.374  0.00  0.00    +0.011 C 
BRANCH  16  17
ATOM     17  C   LIG    1       30.299 -17.682   9.077  0.00  0.00    +0.120 C 
BRANCH  17  18
ATOM     18  C   LIG    1       30.427 -17.577  10.566  0.00  0.00    +0.305 C 
ATOM     19  O   LIG    1       30.714 -18.546  11.304  0.00  0.00    -0.251 OA
BRANCH  18  20
ATOM     20  O   LIG    1       30.214 -16.357  11.075  0.00  0.00    -0.481 OA
ATOM     21  H   LIG    1       31.032 -15.953  11.446  0.00  0.00    +0.295 HD
ENDBRANCH  18  20
ENDBRANCH  17  18
ENDBRANCH  16  17
ENDBRANCH  15  16
ENDBRANCH  14  15
ENDBRANCH  13  14
ENDBRANCH  12  13
ENDBRANCH   1  12
TORSDOF 14
ENDMDL
MODEL 2
REMARK VINA RESULT:      -7.7      2.119      4.249
REMARK  Name = *****
REMARK                            x       y       z     vdW  Elec       q    Type
REMARK                         _______ _______ _______ _____ _____    ______ ____
ROOT
ATOM      1  C   LIG    1       25.215 -20.905   4.980  0.00  0.00    +0.027 C 
ENDROOT
BRANCH   1   3
ATOM      2  C   LIG    1       22.984 -20.615   6.158  0.00  0.00    -0.027 C 
ATOM      3  C   LIG    1       23.853 -20.272   5.182  0.00  0.00    -0.031 C 
BRANCH   2   4
ATOM      4  C   LIG    1       23.169 -21.655   7.239  0.00  0.00    +0.054 C 
BRANCH   4   6
ATOM      5  C   LIG    1       23.765 -24.117   6.640  0.00  0.00    -0.027 C 
ATOM      6  C   LIG    1       22.922 -23.080   6.808  0.00  0.00    -0.027 C 
BRANCH   5   7
ATOM      7  C   LIG    1       25.235 -24.187   6.933  0.00  0.00    +0.054 C 
BRANCH   7   9
ATOM      8  C   LIG    1       25.797 -26.565   5.993  0.00  0.00    -0.031 C 
ATOM      9  C   LIG    1       25.980 -25.246   6.161  0.00  0.00    -0.027 C 
BRANCH   8  11
ATOM     10  C   LIG    1       24.459 -28.486   5.296  0.00  0.00    +0.008 C 
ATOM     11  C   LIG    1       24.683 -27.472   6.422  0.00  0.00    +0.023 C 
ENDBRANCH   8  11
ENDBRANCH   7   9
ENDBRANCH   5   7
ENDBRANCH   4   6
ENDBRANCH   2   4
ENDBRANCH   1   3
BRANCH   1  12
ATOM     12  C   LIG    1       26.406 -20.231   5.697  0.00  0.00    +0.004 C 
BRANCH  12  13
ATOM     13  C   LIG    1       26.614 -20.639   7.191  0.00  0.00    +0.000 C 
BRANCH  13  14
ATOM     14  C   LIG    1       27.987 -20.289   7.751  0.00  0.00    +0.000 C 
BRANCH  14  15
ATOM     15  C   LIG    1       29.229 -20.502   6.862  0.00  0.00    +0.000 C 
BRANCH  15  16
ATOM     16  C   LIG    1       30.089 -19.226   6.677  0.00  0.00    +0.011 C 
BRANCH  16  17
ATOM     17  C   LIG    1       30.266 -18.367   7.936  0.00  0.00    +0.120 C 
BRANCH  17  18
ATOM     18  C   LIG    1       31.636 -18.394   8.542  0.00  0.00    +0.305 C 
ATOM     19  O   LIG    1       32.092 -19.373   9.174  0.00  0.00    -0.251 OA
BRANCH  18  20
ATOM     20  O   LIG    1       32.363 -17.284   8.364  0.00  0.00    -0.481 OA
ATOM     21  H   LIG    1       32.447 -16.750   9.188  0.00  0.00    +0.295 HD
ENDBRANCH  18  20
ENDBRANCH  17  18
ENDBRANCH  16  17
ENDBRANCH  15  16
ENDBRANCH  14  15
ENDBRANCH  13  14
ENDBRANCH  12  13
ENDBRANCH   1  12
TORSDOF 14
ENDMDL
MODEL 3
REMARK VINA RESULT:      -7.7      1.531      3.910
REMARK  Name = *****
REMARK                            x       y       z     vdW  Elec       q    Type
REMARK                         _______ _______ _______ _____ _____    ______ ____
ROOT
ATOM      1  C   LIG    1       25.540 -20.412   4.301  0.00  0.00    +0.027 C 
ENDROOT
BRANCH   1   3
ATOM      2  C   LIG    1       23.219 -19.381   4.287  0.00  0.00    -0.027 C 
ATOM      3  C   LIG    1       24.523 -19.350   3.934  0.00  0.00    -0.031 C 
BRANCH   2   4
ATOM      4  C   LIG    1       22.507 -20.430   5.109  0.00  0.00    +0.054 C 
BRANCH   4   6
ATOM      5  C   LIG    1       23.313 -21.614   7.283  0.00  0.00    -0.027 C 
ATOM      6  C   LIG    1       22.967 -20.544   6.542  0.00  0.00    -0.027 C 
BRANCH   5   7
ATOM      7  C   LIG    1       23.437 -23.048   6.856  0.00  0.00    +0.054 C 
BRANCH   7   9
ATOM      8  C   LIG    1       25.446 -24.594   6.202  0.00  0.00    -0.031 C 
ATOM      9  C   LIG    1       24.847 -23.580   6.845  0.00  0.00    -0.027 C 
BRANCH   8  11
ATOM     10  C   LIG    1       24.386 -26.765   5.832  0.00  0.00    +0.008 C 
ATOM     11  C   LIG    1       24.947 -25.521   5.134  0.00  0.00    +0.023 C 
ENDBRANCH   8  11
ENDBRANCH   7   9
ENDBRANCH   5   7
ENDBRANCH   4   6
ENDBRANCH   2   4
ENDBRANCH   1   3
BRANCH   1  12
ATOM     12  C   LIG    1       26.724 -19.962   5.186  0.00  0.00    +0.004 C 
BRANCH  12  13
ATOM     13  C   LIG    1       26.645 -20.385   6.688  0.00  0.00    +0.000 C 
BRANCH  13  14
ATOM     14  C   LIG    1       27.757 -21.326   7.133  0.00  0.00    +0.000 C 
BRANCH  14  15
ATOM     15  C   LIG    1       29.188 -20.771   7.278  0.00  0.00    +0.000 C 
BRANCH  15  16
ATOM     16  C   LIG    1       29.238 -19.261   7.629  0.00  0.00    +0.011 C 
BRANCH  16  17
ATOM     17  C   LIG    1       30.633 -18.710   7.949  0.00  0.00    +0.120 C 
BRANCH  17  18
ATOM     18  C   LIG    1       31.195 -19.120   9.275  0.00  0.00    +0.305 C 
ATOM     19  O   LIG    1       30.743 -18.718  10.370  0.00  0.00    -0.251 OA
BRANCH  18  20
ATOM     20  O   LIG    1       32.234 -19.963   9.221  0.00  0.00    -0.481 OA
ATOM     21  H   LIG    1       33.008 -19.580   8.747  0.00  0.00    +0.295 HD
ENDBRANCH  18  20
ENDBRANCH  17  18
ENDBRANCH  16  17
ENDBRANCH  15  16
ENDBRANCH  14  15
ENDBRANCH  13  14
ENDBRANCH  12  13
ENDBRANCH   1  12
TORSDOF 14
ENDMDL
MODEL 4
REMARK VINA RESULT:      -7.6      1.144      2.391
REMARK  Name = *****
REMARK                            x       y       z     vdW  Elec       q    Type
REMARK                         _______ _______ _______ _____ _____    ______ ____
ROOT
ATOM      1  C   LIG    1       25.977 -23.320   7.651  0.00  0.00    +0.027 C 
ENDROOT
BRANCH   1   3
ATOM      2  C   LIG    1       24.026 -24.074   6.211  0.00  0.00    -0.027 C 
ATOM      3  C   LIG    1       25.345 -24.082   6.504  0.00  0.00    -0.031 C 
BRANCH   2   4
ATOM      4  C   LIG    1       22.925 -23.319   6.919  0.00  0.00    +0.054 C 
BRANCH   4   6
ATOM      5  C   LIG    1       23.065 -20.744   6.556  0.00  0.00    -0.027 C 
ATOM      6  C   LIG    1       23.245 -21.882   7.255  0.00  0.00    -0.027 C 
BRANCH   5   7
ATOM      7  C   LIG    1       22.384 -20.556   5.232  0.00  0.00    +0.054 C 
BRANCH   7   9
ATOM      8  C   LIG    1       23.845 -18.924   3.797  0.00  0.00    -0.031 C 
ATOM      9  C   LIG    1       22.765 -19.292   4.505  0.00  0.00    -0.027 C 
BRANCH   8  11
ATOM     10  C   LIG    1       25.942 -19.903   4.579  0.00  0.00    +0.008 C 
ATOM     11  C   LIG    1       25.047 -19.701   3.351  0.00  0.00    +0.023 C 
ENDBRANCH   8  11
ENDBRANCH   7   9
ENDBRANCH   5   7
ENDBRANCH   4   6
ENDBRANCH   2   4
ENDBRANCH   1   3
BRANCH   1  12
ATOM     12  C   LIG    1       27.039 -22.261   7.277  0.00  0.00    +0.004 C 
BRANCH  12  13
ATOM     13  C   LIG    1       26.933 -20.899   8.036  0.00  0.00    +0.000 C 
BRANCH  13  14
ATOM     14  C   LIG    1       28.030 -19.902   7.688  0.00  0.00    +0.000 C 
BRANCH  14  15
ATOM     15  C   LIG    1       29.213 -20.369   6.817  0.00  0.00    +0.000 C 
BRANCH  15  16
ATOM     16  C   LIG    1       30.447 -19.432   6.885  0.00  0.00    +0.011 C 
BRANCH  16  17
ATOM     17  C   LIG    1       30.493 -18.497   8.100  0.00  0.00    +0.120 C 
BRANCH  17  18
ATOM     18  C   LIG    1       31.190 -19.048   9.307  0.00  0.00    +0.305 C 
ATOM     19  O   LIG    1       32.150 -19.847   9.243  0.00  0.00    -0.251 OA
BRANCH  18  20
ATOM     20  O   LIG    1       30.716 -18.624  10.485  0.00  0.00    -0.481 OA
ATOM     21  H   LIG    1       31.124 -17.775  10.774  0.00  0.00    +0.295 HD
ENDBRANCH  18  20
ENDBRANCH  17  18
ENDBRANCH  16  17
ENDBRANCH  15  16
ENDBRANCH  14  15
ENDBRANCH  13  14
ENDBRANCH  12  13
ENDBRANCH   1  12
TORSDOF 14
ENDMDL
MODEL 5
REMARK VINA RESULT:      -7.5      1.733      3.728
REMARK  Name = *****
REMARK                            x       y       z     vdW  Elec       q    Type
REMARK                         _______ _______ _______ _____ _____    ______ ____
ROOT
ATOM      1  C   LIG    1       26.380 -20.724   7.757  0.00  0.00    +0.027 C 
ENDROOT
BRANCH   1   3
ATOM      2  C   LIG    1       24.387 -20.770   6.184  0.00  0.00    -0.027 C 
ATOM      3  C   LIG    1       25.677 -20.461   6.441  0.00  0.00    -0.031 C 
BRANCH   2   4
ATOM      4  C   LIG    1       23.384 -21.408   7.117  0.00  0.00    +0.054 C 
BRANCH   4   6
ATOM      5  C   LIG    1       23.738 -23.953   6.697  0.00  0.00    -0.027 C 
ATOM      6  C   LIG    1       23.002 -22.827   6.775  0.00  0.00    -0.027 C 
BRANCH   5   7
ATOM      7  C   LIG    1       25.188 -24.149   7.033  0.00  0.00    +0.054 C 
BRANCH   7   9
ATOM      8  C   LIG    1       26.192 -26.322   5.971  0.00  0.00    -0.031 C 
ATOM      9  C   LIG    1       25.948 -25.004   6.052  0.00  0.00    -0.027 C 
BRANCH   8  11
ATOM     10  C   LIG    1       24.293 -27.838   6.230  0.00  0.00    +0.008 C 
ATOM     11  C   LIG    1       25.676 -27.474   6.780  0.00  0.00    +0.023 C 
ENDBRANCH   8  11
ENDBRANCH   7   9
ENDBRANCH   5   7
ENDBRANCH   4   6
ENDBRANCH   2   4
ENDBRANCH   1   3
BRANCH   1  12
ATOM     12  C   LIG    1       27.921 -20.613   7.754  0.00  0.00    +0.004 C 
BRANCH  12  13
ATOM     13  C   LIG    1       28.567 -20.206   6.390  0.00  0.00    +0.000 C 
BRANCH  13  14
ATOM     14  C   LIG    1       29.571 -19.064   6.489  0.00  0.00    +0.000 C 
BRANCH  14  15
ATOM     15  C   LIG    1       30.975 -19.355   7.053  0.00  0.00    +0.000 C 
BRANCH  15  16
ATOM     16  C   LIG    1       31.323 -18.525   8.316  0.00  0.00    +0.011 C 
BRANCH  16  17
ATOM     17  C   LIG    1       30.126 -17.892   9.035  0.00  0.00    +0.120 C 
BRANCH  17  18
ATOM     18  C   LIG    1       30.348 -17.556  10.478  0.00  0.00    +0.305 C 
ATOM     19  O   LIG    1       30.227 -16.402  10.944  0.00  0.00    -0.251 OA
BRANCH  18  20
ATOM     20  O   LIG    1       30.690 -18.588  11.259  0.00  0.00    -0.481 OA
ATOM     21  H   LIG    1       31.625 -18.870  11.127  0.00  0.00    +0.295 HD
ENDBRANCH  18  20
ENDBRANCH  17  18
ENDBRANCH  16  17
ENDBRANCH  15  16
ENDBRANCH  14  15
ENDBRANCH  13  14
ENDBRANCH  12  13
ENDBRANCH   1  12
TORSDOF 14
ENDMDL
MODEL 6
REMARK VINA RESULT:      -7.4      1.140      2.578
REMARK  Name = *****
REMARK                            x       y       z     vdW  Elec       q    Type
REMARK                         _______ _______ _______ _____ _____    ______ ____
ROOT
ATOM      1  C   LIG    1       27.786 -21.806   7.573  0.00  0.00    +0.027 C 
ENDROOT
BRANCH   1   3
ATOM      2  C   LIG    1       25.628 -20.477   7.401  0.00  0.00    -0.027 C 
ATOM      3  C   LIG    1       26.648 -20.976   8.133  0.00  0.00    -0.031 C 
BRANCH   2   4
ATOM      4  C   LIG    1       25.387 -20.638   5.918  0.00  0.00    +0.054 C 
BRANCH   4   6
ATOM      5  C   LIG    1       22.887 -21.363   5.970  0.00  0.00    -0.027 C 
ATOM      6  C   LIG    1       23.937 -20.660   5.502  0.00  0.00    -0.027 C 
BRANCH   5   7
ATOM      7  C   LIG    1       22.833 -22.294   7.146  0.00  0.00    +0.054 C 
BRANCH   7   9
ATOM      8  C   LIG    1       23.688 -24.575   6.189  0.00  0.00    -0.031 C 
ATOM      9  C   LIG    1       22.809 -23.757   6.787  0.00  0.00    -0.027 C 
BRANCH   8  11
ATOM     10  C   LIG    1       26.008 -25.083   6.765  0.00  0.00    +0.008 C 
ATOM     11  C   LIG    1       25.109 -24.357   5.759  0.00  0.00    +0.023 C 
ENDBRANCH   8  11
ENDBRANCH   7   9
ENDBRANCH   5   7
ENDBRANCH   4   6
ENDBRANCH   2   4
ENDBRANCH   1   3
BRANCH   1  12
ATOM     12  C   LIG    1       29.056 -21.039   7.141  0.00  0.00    +0.004 C 
BRANCH  12  13
ATOM     13  C   LIG    1       28.816 -19.619   6.535  0.00  0.00    +0.000 C 
BRANCH  13  14
ATOM     14  C   LIG    1       29.955 -18.636   6.770  0.00  0.00    +0.000 C 
BRANCH  14  15
ATOM     15  C   LIG    1       31.276 -19.157   7.370  0.00  0.00    +0.000 C 
BRANCH  15  16
ATOM     16  C   LIG    1       31.801 -18.306   8.555  0.00  0.00    +0.011 C 
BRANCH  16  17
ATOM     17  C   LIG    1       30.785 -17.332   9.163  0.00  0.00    +0.120 C 
BRANCH  17  18
ATOM     18  C   LIG    1       30.575 -17.464  10.641  0.00  0.00    +0.305 C 
ATOM     19  O   LIG    1       30.703 -18.542  11.262  0.00  0.00    -0.251 OA
BRANCH  18  20
ATOM     20  O   LIG    1       30.236 -16.334  11.274  0.00  0.00    -0.481 OA
ATOM     21  H   LIG    1       29.284 -16.107  11.161  0.00  0.00    +0.295 HD
ENDBRANCH  18  20
ENDBRANCH  17  18
ENDBRANCH  16  17
ENDBRANCH  15  16
ENDBRANCH  14  15
ENDBRANCH  13  14
ENDBRANCH  12  13
ENDBRANCH   1  12
TORSDOF 14
ENDMDL
MODEL 7
REMARK VINA RESULT:      -7.3      2.519      4.449
REMARK  Name = *****
REMARK                            x       y       z     vdW  Elec       q    Type
REMARK                         _______ _______ _______ _____ _____    ______ ____
ROOT
ATOM      1  C   LIG    1       25.866 -21.095   6.650  0.00  0.00    +0.027 C 
ENDROOT
BRANCH   1   3
ATOM      2  C   LIG    1       23.434 -21.057   7.382  0.00  0.00    -0.027 C 
ATOM      3  C   LIG    1       24.718 -20.667   7.542  0.00  0.00    -0.031 C 
BRANCH   2   4
ATOM      4  C   LIG    1       22.873 -21.985   6.330  0.00  0.00    +0.054 C 
BRANCH   4   6
ATOM      5  C   LIG    1       23.646 -24.465   6.516  0.00  0.00    -0.027 C 
ATOM      6  C   LIG    1       22.799 -23.439   6.730  0.00  0.00    -0.027 C 
BRANCH   5   7
ATOM      7  C   LIG    1       25.004 -24.440   5.876  0.00  0.00    +0.054 C 
BRANCH   7   9
ATOM      8  C   LIG    1       26.105 -26.767   6.356  0.00  0.00    -0.031 C 
ATOM      9  C   LIG    1       25.984 -25.433   6.447  0.00  0.00    -0.027 C 
BRANCH   8  11
ATOM     10  C   LIG    1       24.371 -28.485   6.453  0.00  0.00    +0.008 C 
ATOM     11  C   LIG    1       25.364 -27.773   5.527  0.00  0.00    +0.023 C 
ENDBRANCH   8  11
ENDBRANCH   7   9
ENDBRANCH   5   7
ENDBRANCH   4   6
ENDBRANCH   2   4
ENDBRANCH   1   3
BRANCH   1  12
ATOM     12  C   LIG    1       27.042 -21.824   7.336  0.00  0.00    +0.004 C 
BRANCH  12  13
ATOM     13  C   LIG    1       28.458 -21.214   7.081  0.00  0.00    +0.000 C 
BRANCH  13  14
ATOM     14  C   LIG    1       28.559 -19.723   7.376  0.00  0.00    +0.000 C 
BRANCH  14  15
ATOM     15  C   LIG    1       29.882 -18.992   7.073  0.00  0.00    +0.000 C 
BRANCH  15  16
ATOM     16  C   LIG    1       31.145 -19.802   7.464  0.00  0.00    +0.011 C 
BRANCH  16  17
ATOM     17  C   LIG    1       31.285 -20.116   8.958  0.00  0.00    +0.120 C 
BRANCH  17  18
ATOM     18  C   LIG    1       31.378 -21.572   9.301  0.00  0.00    +0.305 C 
ATOM     19  O   LIG    1       30.732 -22.104  10.230  0.00  0.00    -0.251 OA
BRANCH  18  20
ATOM     20  O   LIG    1       32.211 -22.288   8.535  0.00  0.00    -0.481 OA
ATOM     21  H   LIG    1       32.134 -23.257   8.694  0.00  0.00    +0.295 HD
ENDBRANCH  18  20
ENDBRANCH  17  18
ENDBRANCH  16  17
ENDBRANCH  15  16
ENDBRANCH  14  15
ENDBRANCH  13  14
ENDBRANCH  12  13
ENDBRANCH   1  12
TORSDOF 14
ENDMDL
MODEL 8
REMARK VINA RESULT:      -7.3      2.650      4.751
REMARK  Name = *****
REMARK                            x       y       z     vdW  Elec       q    Type
REMARK                         _______ _______ _______ _____ _____    ______ ____
ROOT
ATOM      1  C   LIG    1       24.591 -20.706   5.475  0.00  0.00    +0.027 C 
ENDROOT
BRANCH   1   3
ATOM      2  C   LIG    1       23.288 -21.929   7.280  0.00  0.00    -0.027 C 
ATOM      3  C   LIG    1       23.747 -20.783   6.732  0.00  0.00    -0.031 C 
BRANCH   2   4
ATOM      4  C   LIG    1       23.514 -23.342   6.795  0.00  0.00    +0.054 C 
BRANCH   4   6
ATOM      5  C   LIG    1       25.620 -24.774   6.249  0.00  0.00    -0.027 C 
ATOM      6  C   LIG    1       24.925 -23.855   6.949  0.00  0.00    -0.027 C 
BRANCH   5   7
ATOM      7  C   LIG    1       25.209 -25.514   5.010  0.00  0.00    +0.054 C 
BRANCH   7   9
ATOM      8  C   LIG    1       25.478 -28.113   5.160  0.00  0.00    -0.031 C 
ATOM      9  C   LIG    1       25.855 -26.865   4.843  0.00  0.00    -0.027 C 
BRANCH   8  11
ATOM     10  C   LIG    1       24.450 -29.133   7.128  0.00  0.00    +0.008 C 
ATOM     11  C   LIG    1       24.185 -28.650   5.698  0.00  0.00    +0.023 C 
ENDBRANCH   8  11
ENDBRANCH   7   9
ENDBRANCH   5   7
ENDBRANCH   4   6
ENDBRANCH   2   4
ENDBRANCH   1   3
BRANCH   1  12
ATOM     12  C   LIG    1       26.092 -20.397   5.666  0.00  0.00    +0.004 C 
BRANCH  12  13
ATOM     13  C   LIG    1       26.612 -20.450   7.139  0.00  0.00    +0.000 C 
BRANCH  13  14
ATOM     14  C   LIG    1       27.623 -21.558   7.406  0.00  0.00    +0.000 C 
BRANCH  14  15
ATOM     15  C   LIG    1       29.094 -21.177   7.665  0.00  0.00    +0.000 C 
BRANCH  15  16
ATOM     16  C   LIG    1       29.433 -19.710   7.293  0.00  0.00    +0.011 C 
BRANCH  16  17
ATOM     17  C   LIG    1       30.830 -19.235   7.711  0.00  0.00    +0.120 C 
BRANCH  17  18
ATOM     18  C   LIG    1       31.285 -19.695   9.062  0.00  0.00    +0.305 C 
ATOM     19  O   LIG    1       32.112 -20.617   9.235  0.00  0.00    -0.251 OA
BRANCH  18  20
ATOM     20  O   LIG    1       30.745 -19.044  10.100  0.00  0.00    -0.481 OA
ATOM     21  H   LIG    1       30.192 -18.278   9.821  0.00  0.00    +0.295 HD
ENDBRANCH  18  20
ENDBRANCH  17  18
ENDBRANCH  16  17
ENDBRANCH  15  16
ENDBRANCH  14  15
ENDBRANCH  13  14
ENDBRANCH  12  13
ENDBRANCH   1  12
TORSDOF 14
ENDMDL
MODEL 9
REMARK VINA RESULT:      -7.1      5.379      7.882
REMARK  Name = *****
REMARK                            x       y       z     vdW  Elec       q    Type
REMARK                         _______ _______ _______ _____ _____    ______ ____
ROOT
ATOM      1  C   LIG    1       25.766 -22.688   7.930  0.00  0.00    +0.027 C 
ENDROOT
BRANCH   1   3
ATOM      2  C   LIG    1       26.739 -20.361   7.635  0.00  0.00    -0.027 C 
ATOM      3  C   LIG    1       26.021 -21.255   8.350  0.00  0.00    -0.031 C 
BRANCH   2   4
ATOM      4  C   LIG    1       27.411 -20.572   6.298  0.00  0.00    +0.054 C 
BRANCH   4   6
ATOM      5  C   LIG    1       25.753 -19.924   4.398  0.00  0.00    -0.027 C 
ATOM      6  C   LIG    1       26.850 -19.752   5.162  0.00  0.00    -0.027 C 
BRANCH   5   7
ATOM      7  C   LIG    1       24.679 -20.965   4.522  0.00  0.00    +0.054 C 
BRANCH   7   9
ATOM      8  C   LIG    1       22.561 -19.631   5.288  0.00  0.00    -0.031 C 
ATOM      9  C   LIG    1       23.517 -20.567   5.394  0.00  0.00    -0.027 C 
BRANCH   8  11
ATOM     10  C   LIG    1       22.230 -17.273   4.741  0.00  0.00    +0.008 C 
ATOM     11  C   LIG    1       22.214 -18.694   4.169  0.00  0.00    +0.023 C 
ENDBRANCH   8  11
ENDBRANCH   7   9
ENDBRANCH   5   7
ENDBRANCH   4   6
ENDBRANCH   2   4
ENDBRANCH   1   3
BRANCH   1  12
ATOM     12  C   LIG    1       24.323 -23.039   7.503  0.00  0.00    +0.004 C 
BRANCH  12  13
ATOM     13  C   LIG    1       24.195 -24.066   6.332  0.00  0.00    +0.000 C 
BRANCH  13  14
ATOM     14  C   LIG    1       25.517 -24.674   5.885  0.00  0.00    +0.000 C 
BRANCH  14  15
ATOM     15  C   LIG    1       25.558 -26.166   5.499  0.00  0.00    +0.000 C 
BRANCH  15  16
ATOM     16  C   LIG    1       24.399 -26.999   6.106  0.00  0.00    +0.011 C 
BRANCH  16  17
ATOM     17  C   LIG    1       24.806 -28.357   6.690  0.00  0.00    +0.120 C 
BRANCH  17  18
ATOM     18  C   LIG    1       24.431 -29.549   5.863  0.00  0.00    +0.305 C 
ATOM     19  O   LIG    1       25.210 -30.499   5.630  0.00  0.00    -0.251 OA
BRANCH  18  20
ATOM     20  O   LIG    1       23.184 -29.539   5.377  0.00  0.00    -0.481 OA
ATOM     21  H   LIG    1       22.556 -30.055   5.934  0.00  0.00    +0.295 HD
ENDBRANCH  18  20
ENDBRANCH  17  18
ENDBRANCH  16  17
ENDBRANCH  15  16
ENDBRANCH  14  15
ENDBRANCH  13  14
ENDBRANCH  12  13
ENDBRANCH   1  12
TORSDOF 14
ENDMDL
