MODEL 1
REMARK VINA RESULT:      -5.1      0.000      0.000
REMARK  Name = *****
REMARK                            x       y       z     vdW  Elec       q    Type
REMARK                         _______ _______ _______ _____ _____    ______ ____
ROOT
ATOM      1  C   LIG    1       25.464 -21.493   6.191  0.00  0.00    +0.181 C 
ATOM      2  O   LIG    1       24.967 -21.197   4.874  0.00  0.00    -0.340 OA
ATOM      3  C   LIG    1       23.725 -20.498   5.069  0.00  0.00    +0.171 C 
ATOM      4  C   LIG    1       22.606 -21.278   4.366  0.00  0.00    +0.065 C 
ATOM      5  C   LIG    1       21.270 -20.539   4.428  0.00  0.00    +0.005 C 
ATOM      6  C   LIG    1       21.388 -19.123   3.870  0.00  0.00    +0.000 C 
ATOM      7  C   LIG    1       22.506 -18.335   4.547  0.00  0.00    +0.005 C 
ATOM      8  C   LIG    1       23.836 -19.084   4.492  0.00  0.00    +0.065 C 
ATOM      9  O   LIG    1       23.447 -20.420   6.478  0.00  0.00    -0.346 OA
ATOM     10  C   LIG    1       24.226 -21.465   7.055  0.00  0.00    +0.198 C 
ENDROOT
BRANCH   1  11
ATOM     11  C   LIG    1       26.492 -20.436   6.628  0.00  0.00    +0.229 C 
BRANCH  11  12
ATOM     12  N   LIG    1       27.395 -20.137   5.522  0.00  0.00    -0.274 N 
ATOM     13  H   LIG    1       26.925 -19.614   4.783  0.00  0.00    +0.258 HD
BRANCH  12  16
ATOM     14  N   LIG    1       29.004 -18.573   5.113  0.00  0.00    -0.130 NA
ATOM     15  H   LIG    1       29.975 -18.365   5.345  0.00  0.00    +0.306 HD
ATOM     16  C   LIG    1       28.649 -19.666   5.678  0.00  0.00    +0.376 C 
BRANCH  16  17
ATOM     17  N   LIG    1       29.475 -20.417   6.431  0.00  0.00    -0.289 N 
ATOM     18  H   LIG    1       30.439 -20.366   6.127  0.00  0.00    +0.255 HD
ATOM     19  H   LIG    1       29.399 -20.261   7.427  0.00  0.00    +0.255 HD
ENDBRANCH  16  17
ENDBRANCH  12  16
ENDBRANCH  11  12
ENDBRANCH   1  11
TORSDOF 4
ENDMDL
MODEL 2
REMARK VINA RESULT:      -3.5      4.769      5.840
REMARK  Name = *****
REMARK                            x       y       z     vdW  Elec       q    Type
REMARK                         _______ _______ _______ _____ _____    ______ ____
ROOT
ATOM      1  C   LIG    1       27.241 -16.225   3.295  0.00  0.00    +0.181 C 
ATOM      2  O   LIG    1       27.259 -14.794   3.150  0.00  0.00    -0.340 OA
ATOM      3  C   LIG    1       25.946 -14.343   3.525  0.00  0.00    +0.171 C 
ATOM      4  C   LIG    1       25.331 -13.580   2.344  0.00  0.00    +0.065 C 
ATOM      5  C   LIG    1       23.978 -12.968   2.703  0.00  0.00    +0.005 C 
ATOM      6  C   LIG    1       24.079 -12.078   3.940  0.00  0.00    +0.000 C 
ATOM      7  C   LIG    1       24.701 -12.815   5.122  0.00  0.00    +0.005 C 
ATOM      8  C   LIG    1       26.047 -13.435   4.754  0.00  0.00    +0.065 C 
ATOM      9  O   LIG    1       25.130 -15.485   3.840  0.00  0.00    -0.346 OA
ATOM     10  C   LIG    1       25.777 -16.576   3.190  0.00  0.00    +0.198 C 
ENDROOT
BRANCH   1  11
ATOM     11  C   LIG    1       27.833 -16.635   4.654  0.00  0.00    +0.229 C 
BRANCH  11  12
ATOM     12  N   LIG    1       28.605 -17.864   4.507  0.00  0.00    -0.274 N 
ATOM     13  H   LIG    1       29.539 -17.680   4.137  0.00  0.00    +0.258 HD
BRANCH  12  16
ATOM     14  N   LIG    1       29.475 -18.702   6.442  0.00  0.00    -0.130 NA
ATOM     15  H   LIG    1       29.392 -19.513   7.055  0.00  0.00    +0.306 HD
ATOM     16  C   LIG    1       28.678 -18.827   5.448  0.00  0.00    +0.376 C 
BRANCH  16  17
ATOM     17  N   LIG    1       27.889 -19.901   5.258  0.00  0.00    -0.289 N 
ATOM     18  H   LIG    1       27.030 -19.677   4.771  0.00  0.00    +0.255 HD
ATOM     19  H   LIG    1       28.349 -20.697   4.836  0.00  0.00    +0.255 HD
ENDBRANCH  16  17
ENDBRANCH  12  16
ENDBRANCH  11  12
ENDBRANCH   1  11
TORSDOF 4
ENDMDL
MODEL 3
REMARK VINA RESULT:      -3.5      3.232      4.092
REMARK  Name = *****
REMARK                            x       y       z     vdW  Elec       q    Type
REMARK                         _______ _______ _______ _____ _____    ______ ____
ROOT
ATOM      1  C   LIG    1       26.100 -18.065   3.063  0.00  0.00    +0.181 C 
ATOM      2  O   LIG    1       24.897 -18.751   2.678  0.00  0.00    -0.340 OA
ATOM      3  C   LIG    1       24.385 -19.354   3.879  0.00  0.00    +0.171 C 
ATOM      4  C   LIG    1       24.279 -20.870   3.664  0.00  0.00    +0.065 C 
ATOM      5  C   LIG    1       23.632 -21.572   4.856  0.00  0.00    +0.005 C 
ATOM      6  C   LIG    1       22.271 -20.967   5.189  0.00  0.00    +0.000 C 
ATOM      7  C   LIG    1       22.352 -19.457   5.394  0.00  0.00    +0.005 C 
ATOM      8  C   LIG    1       23.010 -18.763   4.204  0.00  0.00    +0.065 C 
ATOM      9  O   LIG    1       25.290 -19.083   4.963  0.00  0.00    -0.346 OA
ATOM     10  C   LIG    1       26.527 -18.773   4.326  0.00  0.00    +0.198 C 
ENDROOT
BRANCH   1  11
ATOM     11  C   LIG    1       25.813 -16.575   3.311  0.00  0.00    +0.229 C 
BRANCH  11  12
ATOM     12  N   LIG    1       27.066 -15.854   3.503  0.00  0.00    -0.274 N 
ATOM     13  H   LIG    1       27.865 -16.389   3.161  0.00  0.00    +0.258 HD
BRANCH  12  16
ATOM     14  N   LIG    1       26.825 -14.079   2.090  0.00  0.00    -0.130 NA
ATOM     15  H   LIG    1       27.030 -13.082   2.038  0.00  0.00    +0.306 HD
ATOM     16  C   LIG    1       27.240 -14.550   3.206  0.00  0.00    +0.376 C 
BRANCH  16  17
ATOM     17  N   LIG    1       27.879 -13.811   4.132  0.00  0.00    -0.289 N 
ATOM     18  H   LIG    1       27.369 -13.746   5.004  0.00  0.00    +0.255 HD
ATOM     19  H   LIG    1       28.842 -14.073   4.294  0.00  0.00    +0.255 HD
ENDBRANCH  16  17
ENDBRANCH  12  16
ENDBRANCH  11  12
ENDBRANCH   1  11
TORSDOF 4
ENDMDL
MODEL 4
REMARK VINA RESULT:      -2.5      1.247      2.289
REMARK  Name = *****
REMARK                            x       y       z     vdW  Elec       q    Type
REMARK                         _______ _______ _______ _____ _____    ______ ____
ROOT
ATOM      1  C   LIG    1       25.748 -20.053   5.207  0.00  0.00    +0.181 C 
ATOM      2  O   LIG    1       24.511 -19.709   5.856  0.00  0.00    -0.340 OA
ATOM      3  C   LIG    1       23.470 -20.046   4.923  0.00  0.00    +0.171 C 
ATOM      4  C   LIG    1       22.651 -18.783   4.621  0.00  0.00    +0.065 C 
ATOM      5  C   LIG    1       21.451 -19.082   3.725  0.00  0.00    +0.005 C 
ATOM      6  C   LIG    1       20.570 -20.179   4.317  0.00  0.00    +0.000 C 
ATOM      7  C   LIG    1       21.369 -21.440   4.637  0.00  0.00    +0.005 C 
ATOM      8  C   LIG    1       22.574 -21.133   5.524  0.00  0.00    +0.065 C 
ATOM      9  O   LIG    1       24.067 -20.535   3.709  0.00  0.00    -0.346 OA
ATOM     10  C   LIG    1       25.400 -20.031   3.739  0.00  0.00    +0.198 C 
ENDROOT
BRANCH   1  11
ATOM     11  C   LIG    1       26.224 -21.443   5.662  0.00  0.00    +0.229 C 
BRANCH  11  12
ATOM     12  N   LIG    1       27.215 -21.304   6.724  0.00  0.00    -0.274 N 
ATOM     13  H   LIG    1       27.278 -22.148   7.293  0.00  0.00    +0.258 HD
BRANCH  12  16
ATOM     14  N   LIG    1       29.470 -21.365   7.062  0.00  0.00    -0.130 NA
ATOM     15  H   LIG    1       30.317 -20.852   6.815  0.00  0.00    +0.306 HD
ATOM     16  C   LIG    1       28.450 -20.793   6.542  0.00  0.00    +0.376 C 
BRANCH  16  17
ATOM     17  N   LIG    1       28.522 -19.663   5.813  0.00  0.00    -0.289 N 
ATOM     18  H   LIG    1       27.843 -18.968   6.098  0.00  0.00    +0.255 HD
ATOM     19  H   LIG    1       29.447 -19.260   5.744  0.00  0.00    +0.255 HD
ENDBRANCH  16  17
ENDBRANCH  12  16
ENDBRANCH  11  12
ENDBRANCH   1  11
TORSDOF 4
ENDMDL
MODEL 5
REMARK VINA RESULT:      -2.4      5.490      6.549
REMARK  Name = *****
REMARK                            x       y       z     vdW  Elec       q    Type
REMARK                         _______ _______ _______ _____ _____    ______ ____
ROOT
ATOM      1  C   LIG    1       26.576 -15.176   4.787  0.00  0.00    +0.181 C 
ATOM      2  O   LIG    1       25.335 -15.026   4.077  0.00  0.00    -0.340 OA
ATOM      3  C   LIG    1       25.234 -13.629   3.749  0.00  0.00    +0.171 C 
ATOM      4  C   LIG    1       23.943 -13.071   4.363  0.00  0.00    +0.065 C 
ATOM      5  C   LIG    1       23.703 -11.617   3.962  0.00  0.00    +0.005 C 
ATOM      6  C   LIG    1       23.708 -11.448   2.445  0.00  0.00    +0.000 C 
ATOM      7  C   LIG    1       24.978 -12.009   1.813  0.00  0.00    +0.005 C 
ATOM      8  C   LIG    1       25.219 -13.460   2.227  0.00  0.00    +0.065 C 
ATOM      9  O   LIG    1       26.368 -12.935   4.297  0.00  0.00    -0.346 OA
ATOM     10  C   LIG    1       26.847 -13.794   5.330  0.00  0.00    +0.198 C 
ENDROOT
BRANCH   1  11
ATOM     11  C   LIG    1       27.688 -15.644   3.832  0.00  0.00    +0.229 C 
BRANCH  11  12
ATOM     12  N   LIG    1       27.639 -17.095   3.689  0.00  0.00    -0.274 N 
ATOM     13  H   LIG    1       27.932 -17.392   2.758  0.00  0.00    +0.258 HD
BRANCH  12  16
ATOM     14  N   LIG    1       29.224 -17.721   5.206  0.00  0.00    -0.130 NA
ATOM     15  H   LIG    1       29.426 -18.471   5.868  0.00  0.00    +0.306 HD
ATOM     16  C   LIG    1       28.118 -17.960   4.606  0.00  0.00    +0.376 C 
BRANCH  16  17
ATOM     17  N   LIG    1       27.379 -19.065   4.821  0.00  0.00    -0.289 N 
ATOM     18  H   LIG    1       26.606 -19.152   4.173  0.00  0.00    +0.255 HD
ATOM     19  H   LIG    1       27.908 -19.925   4.874  0.00  0.00    +0.255 HD
ENDBRANCH  16  17
ENDBRANCH  12  16
ENDBRANCH  11  12
ENDBRANCH   1  11
TORSDOF 4
ENDMDL
MODEL 6
REMARK VINA RESULT:      -2.1      5.804      7.591
REMARK  Name = *****
REMARK                            x       y       z     vdW  Elec       q    Type
REMARK                         _______ _______ _______ _____ _____    ______ ____
ROOT
ATOM      1  C   LIG    1       23.793 -14.757   3.488  0.00  0.00    +0.181 C 
ATOM      2  O   LIG    1       25.172 -15.138   3.349  0.00  0.00    -0.340 OA
ATOM      3  C   LIG    1       25.940 -14.000   3.779  0.00  0.00    +0.171 C 
ATOM      4  C   LIG    1       26.853 -13.558   2.628  0.00  0.00    +0.065 C 
ATOM      5  C   LIG    1       27.787 -12.423   3.044  0.00  0.00    +0.005 C 
ATOM      6  C   LIG    1       28.603 -12.796   4.280  0.00  0.00    +0.000 C 
ATOM      7  C   LIG    1       27.713 -13.252   5.433  0.00  0.00    +0.005 C 
ATOM      8  C   LIG    1       26.774 -14.378   5.007  0.00  0.00    +0.065 C 
ATOM      9  O   LIG    1       25.042 -12.930   4.122  0.00  0.00    -0.346 OA
ATOM     10  C   LIG    1       23.831 -13.249   3.441  0.00  0.00    +0.198 C 
ENDROOT
BRANCH   1  11
ATOM     11  C   LIG    1       23.224 -15.275   4.820  0.00  0.00    +0.229 C 
BRANCH  11  12
ATOM     12  N   LIG    1       22.376 -16.437   4.578  0.00  0.00    -0.274 N 
ATOM     13  H   LIG    1       21.643 -16.234   3.898  0.00  0.00    +0.258 HD
BRANCH  12  16
ATOM     14  N   LIG    1       23.998 -17.863   3.842  0.00  0.00    -0.130 NA
ATOM     15  H   LIG    1       24.194 -18.861   3.771  0.00  0.00    +0.306 HD
ATOM     16  C   LIG    1       22.846 -17.684   4.372  0.00  0.00    +0.376 C 
BRANCH  16  17
ATOM     17  N   LIG    1       22.031 -18.692   4.737  0.00  0.00    -0.289 N 
ATOM     18  H   LIG    1       21.829 -18.695   5.728  0.00  0.00    +0.255 HD
ATOM     19  H   LIG    1       21.183 -18.771   4.192  0.00  0.00    +0.255 HD
ENDBRANCH  16  17
ENDBRANCH  12  16
ENDBRANCH  11  12
ENDBRANCH   1  11
TORSDOF 4
ENDMDL
