MODEL 1
REMARK VINA RESULT:      -7.3      0.000      0.000
REMARK  Name = *****
REMARK                            x       y       z     vdW  Elec       q    Type
REMARK                         _______ _______ _______ _____ _____    ______ ____
ROOT
ATOM      1  O   LIG    1       28.654 -19.474   8.318  0.00  0.00    -0.471 OA
ENDROOT
BRANCH   1   2
ATOM      2  C   LIG    1       29.786 -20.207   8.578  0.00  0.00    +0.265 A 
ATOM      3  C   LIG    1       31.024 -19.680   9.163  0.00  0.00    +0.194 A 
ATOM      4  N   LIG    1       31.978 -20.620   9.311  0.00  0.00    -0.172 NA
ATOM      5  S   LIG    1       31.317 -22.033   8.737  0.00  0.00    +0.121 S 
ATOM      6  N   LIG    1       29.791 -21.508   8.302  0.00  0.00    -0.153 NA
BRANCH   3   7
ATOM      7  N   LIG    1       31.181 -18.375   9.549  0.00  0.00    -0.306 N 
ATOM      8  C   LIG    1       32.382 -17.674   9.042  0.00  0.00    +0.135 C 
ATOM      9  C   LIG    1       32.228 -16.161   9.259  0.00  0.00    +0.178 C 
ATOM     10  O   LIG    1       31.989 -15.844  10.641  0.00  0.00    -0.377 OA
ATOM     11  C   LIG    1       30.800 -16.506  11.105  0.00  0.00    +0.178 C 
ATOM     12  C   LIG    1       30.929 -18.033  10.972  0.00  0.00    +0.135 C 
ENDBRANCH   3   7
ENDBRANCH   1   2
BRANCH   1  13
ATOM     13  C   LIG    1       27.686 -20.173   7.512  0.00  0.00    +0.263 C 
BRANCH  13  14
ATOM     14  C   LIG    1       26.418 -20.476   8.336  0.00  0.00    +0.166 C 
BRANCH  14  15
ATOM     15  O   LIG    1       26.615 -21.672   9.106  0.00  0.00    -0.387 OA
ATOM     16  H   LIG    1       27.485 -22.019   8.835  0.00  0.00    +0.210 HD
ENDBRANCH  14  15
BRANCH  14  17
ATOM     17  C   LIG    1       25.209 -20.680   7.393  0.00  0.00    +0.116 C 
BRANCH  17  18
ATOM     18  N   LIG    1       24.442 -21.891   7.739  0.00  0.00    -0.309 NA
ATOM     19  H   LIG    1       24.846 -22.271   8.600  0.00  0.00    +0.122 HD
BRANCH  18  21
ATOM     20  C   LIG    1       24.561 -22.320   5.296  0.00  0.00    +0.027 C 
ATOM     21  C   LIG    1       24.392 -22.937   6.695  0.00  0.00    +0.011 C 
ATOM     22  C   LIG    1       25.441 -24.040   6.922  0.00  0.00    +0.027 C 
ATOM     23  C   LIG    1       22.995 -23.590   6.755  0.00  0.00    +0.027 C 
ENDBRANCH  18  21
ENDBRANCH  17  18
ENDBRANCH  14  17
ENDBRANCH  13  14
ENDBRANCH   1  13
TORSDOF 8
ENDMDL
MODEL 2
REMARK VINA RESULT:      -6.9      2.959      7.765
REMARK  Name = *****
REMARK                            x       y       z     vdW  Elec       q    Type
REMARK                         _______ _______ _______ _____ _____    ______ ____
ROOT
ATOM      1  O   LIG    1       26.534 -20.643   7.453  0.00  0.00    -0.471 OA
ENDROOT
BRANCH   1   2
ATOM      2  C   LIG    1       25.988 -21.807   6.970  0.00  0.00    +0.265 A 
ATOM      3  C   LIG    1       24.926 -21.894   5.961  0.00  0.00    +0.194 A 
ATOM      4  N   LIG    1       24.580 -23.163   5.670  0.00  0.00    -0.172 NA
ATOM      5  S   LIG    1       25.541 -24.126   6.623  0.00  0.00    +0.121 S 
ATOM      6  N   LIG    1       26.446 -22.971   7.422  0.00  0.00    -0.153 NA
BRANCH   3   7
ATOM      7  N   LIG    1       24.369 -20.798   5.356  0.00  0.00    -0.306 N 
ATOM      8  C   LIG    1       22.895 -20.681   5.425  0.00  0.00    +0.135 C 
ATOM      9  C   LIG    1       22.470 -19.259   5.029  0.00  0.00    +0.178 C 
ATOM     10  O   LIG    1       22.956 -18.903   3.724  0.00  0.00    -0.377 OA
ATOM     11  C   LIG    1       24.391 -18.990   3.687  0.00  0.00    +0.178 C 
ATOM     12  C   LIG    1       24.869 -20.415   4.011  0.00  0.00    +0.135 C 
ENDBRANCH   3   7
ENDBRANCH   1   2
BRANCH   1  13
ATOM     13  C   LIG    1       27.974 -20.649   7.485  0.00  0.00    +0.263 C 
BRANCH  13  14
ATOM     14  C   LIG    1       28.540 -19.638   6.466  0.00  0.00    +0.166 C 
BRANCH  14  15
ATOM     15  O   LIG    1       28.231 -20.071   5.133  0.00  0.00    -0.387 OA
ATOM     16  H   LIG    1       29.085 -20.305   4.726  0.00  0.00    +0.210 HD
ENDBRANCH  14  15
BRANCH  14  17
ATOM     17  C   LIG    1       30.076 -19.536   6.618  0.00  0.00    +0.116 C 
BRANCH  17  18
ATOM     18  N   LIG    1       30.482 -18.264   7.243  0.00  0.00    -0.309 NA
ATOM     19  H   LIG    1       31.181 -17.834   6.631  0.00  0.00    +0.122 HD
BRANCH  18  21
ATOM     20  C   LIG    1       31.306 -19.833   8.983  0.00  0.00    +0.027 C 
ATOM     21  C   LIG    1       31.005 -18.368   8.622  0.00  0.00    +0.011 C 
ATOM     22  C   LIG    1       32.254 -17.497   8.839  0.00  0.00    +0.027 C 
ATOM     23  C   LIG    1       29.903 -17.865   9.578  0.00  0.00    +0.027 C 
ENDBRANCH  18  21
ENDBRANCH  17  18
ENDBRANCH  14  17
ENDBRANCH  13  14
ENDBRANCH   1  13
TORSDOF 8
ENDMDL
MODEL 3
REMARK VINA RESULT:      -6.9      1.543      2.598
REMARK  Name = *****
REMARK                            x       y       z     vdW  Elec       q    Type
REMARK                         _______ _______ _______ _____ _____    ______ ____
ROOT
ATOM      1  O   LIG    1       29.123 -19.247   8.156  0.00  0.00    -0.471 OA
ENDROOT
BRANCH   1   2
ATOM      2  C   LIG    1       30.092 -20.141   8.541  0.00  0.00    +0.265 A 
ATOM      3  C   LIG    1       31.306 -19.809   9.293  0.00  0.00    +0.194 A 
ATOM      4  N   LIG    1       32.084 -20.881   9.538  0.00  0.00    -0.172 NA
ATOM      5  S   LIG    1       31.303 -22.176   8.849  0.00  0.00    +0.121 S 
ATOM      6  N   LIG    1       29.941 -21.427   8.235  0.00  0.00    -0.153 NA
BRANCH   3   7
ATOM      7  N   LIG    1       31.602 -18.544   9.729  0.00  0.00    -0.306 N 
ATOM      8  C   LIG    1       30.618 -17.908  10.633  0.00  0.00    +0.135 C 
ATOM      9  C   LIG    1       31.249 -16.677  11.300  0.00  0.00    +0.178 C 
ATOM     10  O   LIG    1       31.740 -15.738  10.329  0.00  0.00    -0.377 OA
ATOM     11  C   LIG    1       32.719 -16.365   9.483  0.00  0.00    +0.178 C 
ATOM     12  C   LIG    1       32.117 -17.567   8.736  0.00  0.00    +0.135 C 
ENDBRANCH   3   7
ENDBRANCH   1   2
BRANCH   1  13
ATOM     13  C   LIG    1       29.482 -18.471   6.996  0.00  0.00    +0.263 C 
BRANCH  13  14
ATOM     14  C   LIG    1       28.971 -19.156   5.712  0.00  0.00    +0.166 C 
BRANCH  14  15
ATOM     15  O   LIG    1       28.991 -18.219   4.624  0.00  0.00    -0.387 OA
ATOM     16  H   LIG    1       29.114 -18.753   3.818  0.00  0.00    +0.210 HD
ENDBRANCH  14  15
BRANCH  14  17
ATOM     17  C   LIG    1       27.522 -19.656   5.917  0.00  0.00    +0.116 C 
BRANCH  17  18
ATOM     18  N   LIG    1       27.486 -21.041   6.421  0.00  0.00    -0.309 NA
ATOM     19  H   LIG    1       27.682 -21.658   5.627  0.00  0.00    +0.122 HD
BRANCH  18  21
ATOM     20  C   LIG    1       26.151 -22.979   7.216  0.00  0.00    +0.027 C 
ATOM     21  C   LIG    1       26.230 -21.447   7.086  0.00  0.00    +0.011 C 
ATOM     22  C   LIG    1       26.058 -20.786   8.465  0.00  0.00    +0.027 C 
ATOM     23  C   LIG    1       25.059 -20.991   6.191  0.00  0.00    +0.027 C 
ENDBRANCH  18  21
ENDBRANCH  17  18
ENDBRANCH  14  17
ENDBRANCH  13  14
ENDBRANCH   1  13
TORSDOF 8
ENDMDL
MODEL 4
REMARK VINA RESULT:      -6.8      2.930      7.671
REMARK  Name = *****
REMARK                            x       y       z     vdW  Elec       q    Type
REMARK                         _______ _______ _______ _____ _____    ______ ____
ROOT
ATOM      1  O   LIG    1       26.370 -20.450   7.237  0.00  0.00    -0.471 OA
ENDROOT
BRANCH   1   2
ATOM      2  C   LIG    1       25.939 -21.708   6.893  0.00  0.00    +0.265 A 
ATOM      3  C   LIG    1       24.877 -22.009   5.927  0.00  0.00    +0.194 A 
ATOM      4  N   LIG    1       24.659 -23.330   5.779  0.00  0.00    -0.172 NA
ATOM      5  S   LIG    1       25.729 -24.085   6.802  0.00  0.00    +0.121 S 
ATOM      6  N   LIG    1       26.521 -22.765   7.452  0.00  0.00    -0.153 NA
BRANCH   3   7
ATOM      7  N   LIG    1       24.201 -21.046   5.224  0.00  0.00    -0.306 N 
ATOM      8  C   LIG    1       25.017 -20.145   4.380  0.00  0.00    +0.135 C 
ATOM      9  C   LIG    1       24.106 -19.382   3.407  0.00  0.00    +0.178 C 
ATOM     10  O   LIG    1       23.081 -18.651   4.101  0.00  0.00    -0.377 OA
ATOM     11  C   LIG    1       22.278 -19.547   4.888  0.00  0.00    +0.178 C 
ATOM     12  C   LIG    1       23.134 -20.290   5.928  0.00  0.00    +0.135 C 
ENDBRANCH   3   7
ENDBRANCH   1   2
BRANCH   1  13
ATOM     13  C   LIG    1       27.785 -20.374   7.495  0.00  0.00    +0.263 C 
BRANCH  13  14
ATOM     14  C   LIG    1       28.495 -19.582   6.378  0.00  0.00    +0.166 C 
BRANCH  14  15
ATOM     15  O   LIG    1       28.344 -20.269   5.127  0.00  0.00    -0.387 OA
ATOM     16  H   LIG    1       29.027 -19.900   4.539  0.00  0.00    +0.210 HD
ENDBRANCH  14  15
BRANCH  14  17
ATOM     17  C   LIG    1       30.002 -19.448   6.699  0.00  0.00    +0.116 C 
BRANCH  17  18
ATOM     18  N   LIG    1       30.309 -18.173   7.372  0.00  0.00    -0.309 NA
ATOM     19  H   LIG    1       30.928 -17.643   6.752  0.00  0.00    +0.122 HD
BRANCH  18  21
ATOM     20  C   LIG    1       32.244 -17.523   8.787  0.00  0.00    +0.027 C 
ATOM     21  C   LIG    1       30.911 -18.288   8.717  0.00  0.00    +0.011 C 
ATOM     22  C   LIG    1       29.960 -17.806   9.827  0.00  0.00    +0.027 C 
ATOM     23  C   LIG    1       31.213 -19.781   8.966  0.00  0.00    +0.027 C 
ENDBRANCH  18  21
ENDBRANCH  17  18
ENDBRANCH  14  17
ENDBRANCH  13  14
ENDBRANCH   1  13
TORSDOF 8
ENDMDL
MODEL 5
REMARK VINA RESULT:      -6.7      4.681      6.559
REMARK  Name = *****
REMARK                            x       y       z     vdW  Elec       q    Type
REMARK                         _______ _______ _______ _____ _____    ______ ____
ROOT
ATOM      1  O   LIG    1       25.754 -22.824   7.848  0.00  0.00    -0.471 OA
ENDROOT
BRANCH   1   2
ATOM      2  C   LIG    1       26.664 -21.852   7.508  0.00  0.00    +0.265 A 
ATOM      3  C   LIG    1       26.488 -20.858   6.444  0.00  0.00    +0.194 A 
ATOM      4  N   LIG    1       27.537 -20.022   6.326  0.00  0.00    -0.172 NA
ATOM      5  S   LIG    1       28.631 -20.500   7.482  0.00  0.00    +0.121 S 
ATOM      6  N   LIG    1       27.804 -21.769   8.188  0.00  0.00    -0.153 NA
BRANCH   3   7
ATOM      7  N   LIG    1       25.358 -20.769   5.673  0.00  0.00    -0.306 N 
ATOM      8  C   LIG    1       25.477 -20.011   4.408  0.00  0.00    +0.135 C 
ATOM      9  C   LIG    1       24.263 -20.303   3.514  0.00  0.00    +0.178 C 
ATOM     10  O   LIG    1       23.026 -20.003   4.181  0.00  0.00    -0.377 OA
ATOM     11  C   LIG    1       22.914 -20.775   5.389  0.00  0.00    +0.178 C 
ATOM     12  C   LIG    1       24.073 -20.468   6.352  0.00  0.00    +0.135 C 
ENDBRANCH   3   7
ENDBRANCH   1   2
BRANCH   1  13
ATOM     13  C   LIG    1       25.826 -23.999   7.018  0.00  0.00    +0.263 C 
BRANCH  13  14
ATOM     14  C   LIG    1       24.608 -24.067   6.075  0.00  0.00    +0.166 C 
BRANCH  14  15
ATOM     15  O   LIG    1       23.417 -24.309   6.839  0.00  0.00    -0.387 OA
ATOM     16  H   LIG    1       23.683 -24.911   7.558  0.00  0.00    +0.210 HD
ENDBRANCH  14  15
BRANCH  14  17
ATOM     17  C   LIG    1       24.791 -25.215   5.054  0.00  0.00    +0.116 C 
BRANCH  17  18
ATOM     18  N   LIG    1       24.195 -26.476   5.534  0.00  0.00    -0.309 NA
ATOM     19  H   LIG    1       23.698 -26.265   6.404  0.00  0.00    +0.122 HD
BRANCH  18  21
ATOM     20  C   LIG    1       25.573 -27.669   7.222  0.00  0.00    +0.027 C 
ATOM     21  C   LIG    1       25.143 -27.590   5.747  0.00  0.00    +0.011 C 
ATOM     22  C   LIG    1       24.569 -28.941   5.285  0.00  0.00    +0.027 C 
ATOM     23  C   LIG    1       26.404 -27.298   4.905  0.00  0.00    +0.027 C 
ENDBRANCH  18  21
ENDBRANCH  17  18
ENDBRANCH  14  17
ENDBRANCH  13  14
ENDBRANCH   1  13
TORSDOF 8
ENDMDL
MODEL 6
REMARK VINA RESULT:      -6.6      2.874      7.492
REMARK  Name = *****
REMARK                            x       y       z     vdW  Elec       q    Type
REMARK                         _______ _______ _______ _____ _____    ______ ____
ROOT
ATOM      1  O   LIG    1       25.727 -20.999   7.732  0.00  0.00    -0.471 OA
ENDROOT
BRANCH   1   2
ATOM      2  C   LIG    1       25.540 -22.180   7.058  0.00  0.00    +0.265 A 
ATOM      3  C   LIG    1       24.788 -22.336   5.808  0.00  0.00    +0.194 A 
ATOM      4  N   LIG    1       24.764 -23.607   5.363  0.00  0.00    -0.172 NA
ATOM      5  S   LIG    1       25.629 -24.493   6.472  0.00  0.00    +0.121 S 
ATOM      6  N   LIG    1       26.083 -23.293   7.542  0.00  0.00    -0.153 NA
BRANCH   3   7
ATOM      7  N   LIG    1       24.199 -21.291   5.146  0.00  0.00    -0.306 N 
ATOM      8  C   LIG    1       25.106 -20.364   4.432  0.00  0.00    +0.135 C 
ATOM      9  C   LIG    1       24.293 -19.485   3.470  0.00  0.00    +0.178 C 
ATOM     10  O   LIG    1       23.255 -18.765   4.156  0.00  0.00    -0.377 OA
ATOM     11  C   LIG    1       22.366 -19.683   4.814  0.00  0.00    +0.178 C 
ATOM     12  C   LIG    1       23.120 -20.545   5.841  0.00  0.00    +0.135 C 
ENDBRANCH   3   7
ENDBRANCH   1   2
BRANCH   1  13
ATOM     13  C   LIG    1       27.099 -20.751   8.095  0.00  0.00    +0.263 C 
BRANCH  13  14
ATOM     14  C   LIG    1       27.953 -20.504   6.834  0.00  0.00    +0.166 C 
BRANCH  14  15
ATOM     15  O   LIG    1       28.758 -21.661   6.561  0.00  0.00    -0.387 OA
ATOM     16  H   LIG    1       28.960 -22.053   7.430  0.00  0.00    +0.210 HD
ENDBRANCH  14  15
BRANCH  14  17
ATOM     17  C   LIG    1       28.881 -19.286   7.052  0.00  0.00    +0.116 C 
BRANCH  17  18
ATOM     18  N   LIG    1       29.413 -19.242   8.427  0.00  0.00    -0.309 NA
ATOM     19  H   LIG    1       29.163 -18.330   8.820  0.00  0.00    +0.122 HD
BRANCH  18  21
ATOM     20  C   LIG    1       31.495 -18.462   9.535  0.00  0.00    +0.027 C 
ATOM     21  C   LIG    1       30.868 -19.471   8.557  0.00  0.00    +0.011 C 
ATOM     22  C   LIG    1       31.196 -20.910   8.992  0.00  0.00    +0.027 C 
ATOM     23  C   LIG    1       31.503 -19.238   7.170  0.00  0.00    +0.027 C 
ENDBRANCH  18  21
ENDBRANCH  17  18
ENDBRANCH  14  17
ENDBRANCH  13  14
ENDBRANCH   1  13
TORSDOF 8
ENDMDL
MODEL 7
REMARK VINA RESULT:      -6.6      4.331      6.113
REMARK  Name = *****
REMARK                            x       y       z     vdW  Elec       q    Type
REMARK                         _______ _______ _______ _____ _____    ______ ____
ROOT
ATOM      1  O   LIG    1       23.777 -21.345   6.762  0.00  0.00    -0.471 OA
ENDROOT
BRANCH   1   2
ATOM      2  C   LIG    1       24.179 -20.613   5.672  0.00  0.00    +0.265 A 
ATOM      3  C   LIG    1       25.558 -20.204   5.384  0.00  0.00    +0.194 A 
ATOM      4  N   LIG    1       25.670 -19.494   4.244  0.00  0.00    -0.172 NA
ATOM      5  S   LIG    1       24.130 -19.375   3.631  0.00  0.00    +0.121 S 
ATOM      6  N   LIG    1       23.271 -20.239   4.775  0.00  0.00    -0.153 NA
BRANCH   3   7
ATOM      7  N   LIG    1       26.626 -20.539   6.175  0.00  0.00    -0.306 N 
ATOM      8  C   LIG    1       26.396 -20.528   7.637  0.00  0.00    +0.135 C 
ATOM      9  C   LIG    1       27.548 -21.256   8.347  0.00  0.00    +0.178 C 
ATOM     10  O   LIG    1       28.823 -20.679   8.020  0.00  0.00    -0.377 OA
ATOM     11  C   LIG    1       29.042 -20.730   6.600  0.00  0.00    +0.178 C 
ATOM     12  C   LIG    1       27.950 -19.956   5.842  0.00  0.00    +0.135 C 
ENDBRANCH   3   7
ENDBRANCH   1   2
BRANCH   1  13
ATOM     13  C   LIG    1       23.250 -22.642   6.425  0.00  0.00    +0.263 C 
BRANCH  13  14
ATOM     14  C   LIG    1       24.397 -23.645   6.185  0.00  0.00    +0.166 C 
BRANCH  14  15
ATOM     15  O   LIG    1       24.788 -23.612   4.804  0.00  0.00    -0.387 OA
ATOM     16  H   LIG    1       24.882 -24.544   4.535  0.00  0.00    +0.210 HD
ENDBRANCH  14  15
BRANCH  14  17
ATOM     17  C   LIG    1       23.934 -25.077   6.543  0.00  0.00    +0.116 C 
BRANCH  17  18
ATOM     18  N   LIG    1       24.070 -25.998   5.400  0.00  0.00    -0.309 NA
ATOM     19  H   LIG    1       23.133 -26.346   5.177  0.00  0.00    +0.122 HD
BRANCH  18  21
ATOM     20  C   LIG    1       25.710 -27.022   6.959  0.00  0.00    +0.027 C 
ATOM     21  C   LIG    1       25.001 -27.130   5.598  0.00  0.00    +0.011 C 
ATOM     22  C   LIG    1       24.300 -28.493   5.467  0.00  0.00    +0.027 C 
ATOM     23  C   LIG    1       26.081 -27.043   4.498  0.00  0.00    +0.027 C 
ENDBRANCH  18  21
ENDBRANCH  17  18
ENDBRANCH  14  17
ENDBRANCH  13  14
ENDBRANCH   1  13
TORSDOF 8
ENDMDL
MODEL 8
REMARK VINA RESULT:      -6.5      2.112      2.774
REMARK  Name = *****
REMARK                            x       y       z     vdW  Elec       q    Type
REMARK                         _______ _______ _______ _____ _____    ______ ____
ROOT
ATOM      1  O   LIG    1       28.709 -20.690   8.447  0.00  0.00    -0.471 OA
ENDROOT
BRANCH   1   2
ATOM      2  C   LIG    1       29.030 -19.832   7.424  0.00  0.00    +0.265 A 
ATOM      3  C   LIG    1       29.901 -18.657   7.542  0.00  0.00    +0.194 A 
ATOM      4  N   LIG    1       30.047 -17.991   6.380  0.00  0.00    -0.172 NA
ATOM      5  S   LIG    1       29.134 -18.818   5.265  0.00  0.00    +0.121 S 
ATOM      6  N   LIG    1       28.540 -20.062   6.210  0.00  0.00    -0.153 NA
BRANCH   3   7
ATOM      7  N   LIG    1       30.526 -18.295   8.706  0.00  0.00    -0.306 N 
ATOM      8  C   LIG    1       29.679 -17.675   9.749  0.00  0.00    +0.135 C 
ATOM      9  C   LIG    1       30.432 -17.661  11.087  0.00  0.00    +0.178 C 
ATOM     10  O   LIG    1       31.695 -16.983  10.979  0.00  0.00    -0.377 OA
ATOM     11  C   LIG    1       32.517 -17.621   9.986  0.00  0.00    +0.178 C 
ATOM     12  C   LIG    1       31.836 -17.602   8.608  0.00  0.00    +0.135 C 
ENDBRANCH   3   7
ENDBRANCH   1   2
BRANCH   1  13
ATOM     13  C   LIG    1       27.591 -21.549   8.151  0.00  0.00    +0.263 C 
BRANCH  13  14
ATOM     14  C   LIG    1       26.262 -20.795   8.362  0.00  0.00    +0.166 C 
BRANCH  14  15
ATOM     15  O   LIG    1       25.688 -21.171   9.624  0.00  0.00    -0.387 OA
ATOM     16  H   LIG    1       26.427 -21.513  10.159  0.00  0.00    +0.210 HD
ENDBRANCH  14  15
BRANCH  14  17
ATOM     17  C   LIG    1       25.266 -21.148   7.233  0.00  0.00    +0.116 C 
BRANCH  17  18
ATOM     18  N   LIG    1       25.433 -20.269   6.061  0.00  0.00    -0.309 NA
ATOM     19  H   LIG    1       25.449 -19.304   6.404  0.00  0.00    +0.122 HD
BRANCH  18  21
ATOM     20  C   LIG    1       23.013 -20.068   5.537  0.00  0.00    +0.027 C 
ATOM     21  C   LIG    1       24.413 -20.416   5.001  0.00  0.00    +0.011 C 
ATOM     22  C   LIG    1       24.735 -19.568   3.758  0.00  0.00    +0.027 C 
ATOM     23  C   LIG    1       24.396 -21.899   4.572  0.00  0.00    +0.027 C 
ENDBRANCH  18  21
ENDBRANCH  17  18
ENDBRANCH  14  17
ENDBRANCH  13  14
ENDBRANCH   1  13
TORSDOF 8
ENDMDL
MODEL 9
REMARK VINA RESULT:      -6.2      4.445      6.924
REMARK  Name = *****
REMARK                            x       y       z     vdW  Elec       q    Type
REMARK                         _______ _______ _______ _____ _____    ______ ____
ROOT
ATOM      1  O   LIG    1       26.089 -24.454   6.386  0.00  0.00    -0.471 OA
ENDROOT
BRANCH   1   2
ATOM      2  C   LIG    1       25.135 -23.493   6.615  0.00  0.00    +0.265 A 
ATOM      3  C   LIG    1       25.398 -22.062   6.802  0.00  0.00    +0.194 A 
ATOM      4  N   LIG    1       24.278 -21.343   7.008  0.00  0.00    -0.172 NA
ATOM      5  S   LIG    1       23.025 -22.433   6.967  0.00  0.00    +0.121 S 
ATOM      6  N   LIG    1       23.856 -23.851   6.663  0.00  0.00    -0.153 NA
BRANCH   3   7
ATOM      7  N   LIG    1       26.651 -21.510   6.740  0.00  0.00    -0.306 N 
ATOM      8  C   LIG    1       27.453 -21.544   7.984  0.00  0.00    +0.135 C 
ATOM      9  C   LIG    1       28.920 -21.226   7.663  0.00  0.00    +0.178 C 
ATOM     10  O   LIG    1       29.056 -19.960   6.996  0.00  0.00    -0.377 OA
ATOM     11  C   LIG    1       28.299 -19.959   5.773  0.00  0.00    +0.178 C 
ATOM     12  C   LIG    1       26.806 -20.207   6.046  0.00  0.00    +0.135 C 
ENDBRANCH   3   7
ENDBRANCH   1   2
BRANCH   1  13
ATOM     13  C   LIG    1       25.618 -25.556   5.587  0.00  0.00    +0.263 C 
BRANCH  13  14
ATOM     14  C   LIG    1       26.368 -26.852   5.960  0.00  0.00    +0.166 C 
BRANCH  14  15
ATOM     15  O   LIG    1       27.270 -27.210   4.902  0.00  0.00    -0.387 OA
ATOM     16  H   LIG    1       26.723 -27.652   4.227  0.00  0.00    +0.210 HD
ENDBRANCH  14  15
BRANCH  14  17
ATOM     17  C   LIG    1       25.360 -28.005   6.173  0.00  0.00    +0.116 C 
BRANCH  17  18
ATOM     18  N   LIG    1       25.647 -28.764   7.404  0.00  0.00    -0.309 NA
ATOM     19  H   LIG    1       26.660 -28.911   7.441  0.00  0.00    +0.122 HD
BRANCH  18  21
ATOM     20  C   LIG    1       25.940 -31.210   7.719  0.00  0.00    +0.027 C 
ATOM     21  C   LIG    1       24.940 -30.055   7.540  0.00  0.00    +0.011 C 
ATOM     22  C   LIG    1       23.923 -30.046   8.695  0.00  0.00    +0.027 C 
ATOM     23  C   LIG    1       24.166 -30.303   6.228  0.00  0.00    +0.027 C 
ENDBRANCH  18  21
ENDBRANCH  17  18
ENDBRANCH  14  17
ENDBRANCH  13  14
ENDBRANCH   1  13
TORSDOF 8
ENDMDL
