MODEL 1
REMARK VINA RESULT:      -9.2      0.000      0.000
REMARK  Name = *****
REMARK                            x       y       z     vdW  Elec       q    Type
REMARK                         _______ _______ _______ _____ _____    ______ ____
ROOT
ATOM      1  O   LIG    1       24.640 -23.232   6.989  0.00  0.00    -0.284 OA
ENDROOT
BRANCH   1   2
ATOM      2  P   LIG    1       24.097 -21.703   7.029  0.00  0.00    +0.462 P 
ATOM      3  O   LIG    1       23.015 -21.487   8.044  0.00  0.00    -0.228 OA
BRANCH   2   4
ATOM      4  N   LIG    1       25.447 -20.821   7.243  0.00  0.00    -0.199 NA
ATOM      5  H   LIG    1       25.614 -20.605   8.223  0.00  0.00    +0.135 HD
BRANCH   4   6
ATOM      6  C   LIG    1       26.726 -21.179   6.620  0.00  0.00    +0.171 C 
ATOM      7  C   LIG    1       27.277 -20.093   5.694  0.00  0.00    +0.036 C 
BRANCH   6   8
ATOM      8  C   LIG    1       27.754 -21.421   7.734  0.00  0.00    +0.325 C 
ATOM      9  O   LIG    1       27.500 -21.780   8.877  0.00  0.00    -0.249 OA
BRANCH   8  10
ATOM     10  O   LIG    1       29.002 -21.222   7.223  0.00  0.00    -0.461 OA
BRANCH  10  12
ATOM     11  C   LIG    1       30.845 -21.460   8.738  0.00  0.00    +0.051 C 
ATOM     12  C   LIG    1       29.922 -20.479   8.031  0.00  0.00    +0.170 C 
ATOM     13  C   LIG    1       30.689 -19.576   7.073  0.00  0.00    +0.051 C 
ENDBRANCH  10  12
ENDBRANCH   8  10
ENDBRANCH   6   8
ENDBRANCH   4   6
ENDBRANCH   2   4
BRANCH   2  14
ATOM     14  O   LIG    1       23.609 -21.474   5.502  0.00  0.00    -0.413 OA
BRANCH  14  15
ATOM     15  C   LIG    1       23.436 -20.234   4.938  0.00  0.00    +0.131 A 
ATOM     16  C   LIG    1       22.347 -19.408   5.214  0.00  0.00    +0.046 A 
ATOM     17  C   LIG    1       22.245 -18.147   4.623  0.00  0.00    +0.004 A 
ATOM     18  C   LIG    1       23.224 -17.711   3.736  0.00  0.00    +0.000 A 
ATOM     19  C   LIG    1       24.302 -18.542   3.432  0.00  0.00    +0.004 A 
ATOM     20  C   LIG    1       24.409 -19.801   4.033  0.00  0.00    +0.046 A 
ENDBRANCH  14  15
ENDBRANCH   2  14
ENDBRANCH   1   2
BRANCH   1  21
ATOM     21  C   LIG    1       23.673 -24.250   6.751  0.00  0.00    +0.206 C 
BRANCH  21  22
ATOM     22  C   LIG    1       24.223 -25.337   5.809  0.00  0.00    +0.179 C 
ATOM     23  C   LIG    1       25.767 -25.301   5.722  0.00  0.00    +0.186 C 
ATOM     24  C   LIG    1       26.169 -26.778   5.743  0.00  0.00    +0.182 C 
ATOM     25  C   LIG    1       26.245 -27.309   4.316  0.00  0.00    +0.055 C 
ATOM     26  F   LIG    1       27.408 -26.898   6.295  0.00  0.00    -0.235 F 
ATOM     27  C   LIG    1       25.079 -27.298   6.698  0.00  0.00    +0.263 C 
ATOM     28  O   LIG    1       23.854 -26.674   6.265  0.00  0.00    -0.345 OA
BRANCH  27  29
ATOM     29  N   LIG    1       24.903 -28.740   6.899  0.00  0.00    -0.271 N 
ATOM     30  C   LIG    1       25.481 -29.280   8.050  0.00  0.00    +0.331 C 
ATOM     31  O   LIG    1       26.171 -28.659   8.852  0.00  0.00    -0.246 OA
ATOM     32  N   LIG    1       25.245 -30.612   8.264  0.00  0.00    -0.275 N 
ATOM     33  H   LIG    1       25.668 -31.007   9.095  0.00  0.00    +0.173 HD
ATOM     34  C   LIG    1       24.666 -31.477   7.383  0.00  0.00    +0.254 C 
ATOM     35  O   LIG    1       24.647 -32.694   7.547  0.00  0.00    -0.268 OA
ATOM     36  C   LIG    1       24.063 -30.856   6.205  0.00  0.00    +0.088 C 
ATOM     37  C   LIG    1       24.199 -29.523   6.009  0.00  0.00    +0.098 C 
ENDBRANCH  27  29
BRANCH  23  38
ATOM     38  O   LIG    1       26.346 -24.626   6.845  0.00  0.00    -0.386 OA
ATOM     39  H   LIG    1       27.120 -24.127   6.511  0.00  0.00    +0.210 HD
ENDBRANCH  23  38
ENDBRANCH  21  22
ENDBRANCH   1  21
TORSDOF 12
ENDMDL
MODEL 2
REMARK VINA RESULT:      -9.1      1.660      2.268
REMARK  Name = *****
REMARK                            x       y       z     vdW  Elec       q    Type
REMARK                         _______ _______ _______ _____ _____    ______ ____
ROOT
ATOM      1  O   LIG    1       25.290 -24.392   6.962  0.00  0.00    -0.284 OA
ENDROOT
BRANCH   1   2
ATOM      2  P   LIG    1       25.169 -22.774   6.903  0.00  0.00    +0.462 P 
ATOM      3  O   LIG    1       24.274 -22.209   7.964  0.00  0.00    -0.228 OA
BRANCH   2   4
ATOM      4  N   LIG    1       26.716 -22.271   6.946  0.00  0.00    -0.199 NA
ATOM      5  H   LIG    1       27.258 -22.628   6.163  0.00  0.00    +0.135 HD
BRANCH   4   6
ATOM      6  C   LIG    1       27.078 -20.866   7.163  0.00  0.00    +0.171 C 
ATOM      7  C   LIG    1       26.690 -20.344   8.548  0.00  0.00    +0.036 C 
BRANCH   6   8
ATOM      8  C   LIG    1       28.600 -20.732   7.012  0.00  0.00    +0.325 C 
ATOM      9  O   LIG    1       29.193 -20.404   5.992  0.00  0.00    -0.249 OA
BRANCH   8  10
ATOM     10  O   LIG    1       29.179 -20.988   8.220  0.00  0.00    -0.461 OA
BRANCH  10  12
ATOM     11  C   LIG    1       30.874 -19.437   8.905  0.00  0.00    +0.051 C 
ATOM     12  C   LIG    1       30.597 -20.809   8.309  0.00  0.00    +0.170 C 
ATOM     13  C   LIG    1       31.106 -21.927   9.210  0.00  0.00    +0.051 C 
ENDBRANCH  10  12
ENDBRANCH   8  10
ENDBRANCH   6   8
ENDBRANCH   4   6
ENDBRANCH   2   4
BRANCH   2  14
ATOM     14  O   LIG    1       24.626 -22.528   5.397  0.00  0.00    -0.413 OA
BRANCH  14  15
ATOM     15  C   LIG    1       24.170 -21.315   4.943  0.00  0.00    +0.131 A 
ATOM     16  C   LIG    1       24.907 -20.482   4.101  0.00  0.00    +0.046 A 
ATOM     17  C   LIG    1       24.373 -19.272   3.655  0.00  0.00    +0.004 A 
ATOM     18  C   LIG    1       23.103 -18.877   4.064  0.00  0.00    +0.000 A 
ATOM     19  C   LIG    1       22.370 -19.689   4.928  0.00  0.00    +0.004 A 
ATOM     20  C   LIG    1       22.902 -20.908   5.365  0.00  0.00    +0.046 A 
ENDBRANCH  14  15
ENDBRANCH   2  14
ENDBRANCH   1   2
BRANCH   1  21
ATOM     21  C   LIG    1       25.473 -25.067   5.722  0.00  0.00    +0.206 C 
BRANCH  21  22
ATOM     22  C   LIG    1       24.684 -26.388   5.681  0.00  0.00    +0.179 C 
ATOM     23  C   LIG    1       25.367 -27.443   4.778  0.00  0.00    +0.186 C 
ATOM     24  C   LIG    1       25.222 -28.747   5.565  0.00  0.00    +0.182 C 
ATOM     25  C   LIG    1       23.930 -29.449   5.160  0.00  0.00    +0.055 C 
ATOM     26  F   LIG    1       26.257 -29.576   5.255  0.00  0.00    -0.235 F 
ATOM     27  C   LIG    1       25.371 -28.175   6.987  0.00  0.00    +0.263 C 
ATOM     28  O   LIG    1       24.565 -26.980   7.010  0.00  0.00    -0.345 OA
BRANCH  27  29
ATOM     29  N   LIG    1       25.106 -29.023   8.154  0.00  0.00    -0.271 N 
ATOM     30  C   LIG    1       26.033 -28.951   9.195  0.00  0.00    +0.331 C 
ATOM     31  O   LIG    1       27.070 -28.295   9.174  0.00  0.00    -0.246 OA
ATOM     32  N   LIG    1       25.734 -29.690  10.309  0.00  0.00    -0.275 N 
ATOM     33  H   LIG    1       26.407 -29.643  11.064  0.00  0.00    +0.173 HD
ATOM     34  C   LIG    1       24.732 -30.609  10.418  0.00  0.00    +0.254 C 
ATOM     35  O   LIG    1       24.622 -31.376  11.370  0.00  0.00    -0.268 OA
ATOM     36  C   LIG    1       23.782 -30.629   9.307  0.00  0.00    +0.088 C 
ATOM     37  C   LIG    1       23.999 -29.841   8.228  0.00  0.00    +0.098 C 
ENDBRANCH  27  29
BRANCH  23  38
ATOM     38  O   LIG    1       26.755 -27.150   4.578  0.00  0.00    -0.386 OA
ATOM     39  H   LIG    1       27.253 -27.647   5.260  0.00  0.00    +0.210 HD
ENDBRANCH  23  38
ENDBRANCH  21  22
ENDBRANCH   1  21
TORSDOF 12
ENDMDL
MODEL 3
REMARK VINA RESULT:      -9.0      0.789      1.404
REMARK  Name = *****
REMARK                            x       y       z     vdW  Elec       q    Type
REMARK                         _______ _______ _______ _____ _____    ______ ____
ROOT
ATOM      1  O   LIG    1       24.433 -23.758   7.213  0.00  0.00    -0.284 OA
ENDROOT
BRANCH   1   2
ATOM      2  P   LIG    1       24.412 -22.145   7.040  0.00  0.00    +0.462 P 
ATOM      3  O   LIG    1       23.617 -21.447   8.101  0.00  0.00    -0.228 OA
BRANCH   2   4
ATOM      4  N   LIG    1       25.988 -21.745   6.965  0.00  0.00    -0.199 NA
ATOM      5  H   LIG    1       26.393 -21.946   6.054  0.00  0.00    +0.135 HD
BRANCH   4   6
ATOM      6  C   LIG    1       26.491 -20.445   7.423  0.00  0.00    +0.171 C 
ATOM      7  C   LIG    1       26.463 -20.284   8.945  0.00  0.00    +0.036 C 
BRANCH   6   8
ATOM      8  C   LIG    1       27.945 -20.299   6.956  0.00  0.00    +0.325 C 
ATOM      9  O   LIG    1       28.307 -19.960   5.836  0.00  0.00    -0.249 OA
BRANCH   8  10
ATOM     10  O   LIG    1       28.768 -20.559   8.011  0.00  0.00    -0.461 OA
BRANCH  10  12
ATOM     11  C   LIG    1       30.044 -18.618   8.608  0.00  0.00    +0.051 C 
ATOM     12  C   LIG    1       30.084 -19.995   7.961  0.00  0.00    +0.170 C 
ATOM     13  C   LIG    1       30.981 -20.953   8.734  0.00  0.00    +0.051 C 
ENDBRANCH  10  12
ENDBRANCH   8  10
ENDBRANCH   6   8
ENDBRANCH   4   6
ENDBRANCH   2   4
BRANCH   2  14
ATOM     14  O   LIG    1       23.801 -21.969   5.551  0.00  0.00    -0.413 OA
BRANCH  14  15
ATOM     15  C   LIG    1       23.650 -20.755   4.929  0.00  0.00    +0.131 A 
ATOM     16  C   LIG    1       24.616 -20.191   4.095  0.00  0.00    +0.046 A 
ATOM     17  C   LIG    1       24.387 -18.962   3.475  0.00  0.00    +0.004 A 
ATOM     18  C   LIG    1       23.197 -18.278   3.698  0.00  0.00    +0.000 A 
ATOM     19  C   LIG    1       22.237 -18.819   4.552  0.00  0.00    +0.004 A 
ATOM     20  C   LIG    1       22.463 -20.057   5.166  0.00  0.00    +0.046 A 
ENDBRANCH  14  15
ENDBRANCH   2  14
ENDBRANCH   1   2
BRANCH   1  21
ATOM     21  C   LIG    1       23.480 -24.497   6.456  0.00  0.00    +0.206 C 
BRANCH  21  22
ATOM     22  C   LIG    1       24.159 -25.597   5.620  0.00  0.00    +0.179 C 
ATOM     23  C   LIG    1       25.701 -25.477   5.646  0.00  0.00    +0.186 C 
ATOM     24  C   LIG    1       26.178 -26.925   5.779  0.00  0.00    +0.182 C 
ATOM     25  C   LIG    1       26.393 -27.523   4.392  0.00  0.00    +0.055 C 
ATOM     26  F   LIG    1       27.375 -26.946   6.428  0.00  0.00    -0.235 F 
ATOM     27  C   LIG    1       25.046 -27.458   6.676  0.00  0.00    +0.263 C 
ATOM     28  O   LIG    1       23.827 -26.928   6.119  0.00  0.00    -0.345 OA
BRANCH  27  29
ATOM     29  N   LIG    1       24.932 -28.896   6.942  0.00  0.00    -0.271 N 
ATOM     30  C   LIG    1       25.522 -29.356   8.121  0.00  0.00    +0.331 C 
ATOM     31  O   LIG    1       26.175 -28.669   8.900  0.00  0.00    -0.246 OA
ATOM     32  N   LIG    1       25.342 -30.686   8.395  0.00  0.00    -0.275 N 
ATOM     33  H   LIG    1       25.773 -31.024   9.247  0.00  0.00    +0.173 HD
ATOM     34  C   LIG    1       24.811 -31.616   7.550  0.00  0.00    +0.254 C 
ATOM     35  O   LIG    1       24.845 -32.823   7.770  0.00  0.00    -0.268 OA
ATOM     36  C   LIG    1       24.195 -31.077   6.339  0.00  0.00    +0.088 C 
ATOM     37  C   LIG    1       24.273 -29.750   6.083  0.00  0.00    +0.098 C 
ENDBRANCH  27  29
BRANCH  23  38
ATOM     38  O   LIG    1       26.154 -24.714   6.771  0.00  0.00    -0.386 OA
ATOM     39  H   LIG    1       27.130 -24.787   6.792  0.00  0.00    +0.210 HD
ENDBRANCH  23  38
ENDBRANCH  21  22
ENDBRANCH   1  21
TORSDOF 12
ENDMDL
MODEL 4
REMARK VINA RESULT:      -9.0      3.249      9.245
REMARK  Name = *****
REMARK                            x       y       z     vdW  Elec       q    Type
REMARK                         _______ _______ _______ _____ _____    ______ ____
ROOT
ATOM      1  O   LIG    1       26.873 -22.275   6.513  0.00  0.00    -0.284 OA
ENDROOT
BRANCH   1   2
ATOM      2  P   LIG    1       25.694 -23.372   6.718  0.00  0.00    +0.462 P 
ATOM      3  O   LIG    1       25.170 -23.423   8.121  0.00  0.00    -0.228 OA
BRANCH   2   4
ATOM      4  N   LIG    1       24.604 -22.984   5.574  0.00  0.00    -0.199 NA
ATOM      5  H   LIG    1       24.423 -23.757   4.937  0.00  0.00    +0.135 HD
BRANCH   4   6
ATOM      6  C   LIG    1       23.328 -22.334   5.893  0.00  0.00    +0.171 C 
ATOM      7  C   LIG    1       22.439 -23.163   6.822  0.00  0.00    +0.036 C 
BRANCH   6   8
ATOM      8  C   LIG    1       23.629 -20.999   6.588  0.00  0.00    +0.325 C 
ATOM      9  O   LIG    1       23.377 -20.727   7.755  0.00  0.00    -0.249 OA
BRANCH   8  10
ATOM     10  O   LIG    1       24.270 -20.184   5.703  0.00  0.00    -0.461 OA
BRANCH  10  12
ATOM     11  C   LIG    1       22.460 -18.901   4.793  0.00  0.00    +0.051 C 
ATOM     12  C   LIG    1       23.581 -19.883   4.484  0.00  0.00    +0.170 C 
ATOM     13  C   LIG    1       24.621 -19.273   3.553  0.00  0.00    +0.051 C 
ENDBRANCH  10  12
ENDBRANCH   8  10
ENDBRANCH   6   8
ENDBRANCH   4   6
ENDBRANCH   2   4
BRANCH   2  14
ATOM     14  O   LIG    1       26.418 -24.742   6.246  0.00  0.00    -0.413 OA
BRANCH  14  15
ATOM     15  C   LIG    1       25.844 -25.984   6.360  0.00  0.00    +0.131 A 
ATOM     16  C   LIG    1       26.195 -26.908   7.344  0.00  0.00    +0.046 A 
ATOM     17  C   LIG    1       25.553 -28.145   7.417  0.00  0.00    +0.004 A 
ATOM     18  C   LIG    1       24.565 -28.474   6.494  0.00  0.00    +0.000 A 
ATOM     19  C   LIG    1       24.226 -27.569   5.490  0.00  0.00    +0.004 A 
ATOM     20  C   LIG    1       24.863 -26.324   5.424  0.00  0.00    +0.046 A 
ENDBRANCH  14  15
ENDBRANCH   2  14
ENDBRANCH   1   2
BRANCH   1  21
ATOM     21  C   LIG    1       27.552 -21.839   7.685  0.00  0.00    +0.206 C 
BRANCH  21  22
ATOM     22  C   LIG    1       28.917 -21.214   7.343  0.00  0.00    +0.179 C 
ATOM     23  C   LIG    1       28.806 -20.165   6.210  0.00  0.00    +0.186 C 
ATOM     24  C   LIG    1       29.726 -19.032   6.670  0.00  0.00    +0.182 C 
ATOM     25  C   LIG    1       31.132 -19.259   6.125  0.00  0.00    +0.055 C 
ATOM     26  F   LIG    1       29.273 -17.852   6.164  0.00  0.00    -0.235 F 
ATOM     27  C   LIG    1       29.467 -19.126   8.185  0.00  0.00    +0.263 C 
ATOM     28  O   LIG    1       29.497 -20.533   8.496  0.00  0.00    -0.345 OA
BRANCH  27  29
ATOM     29  N   LIG    1       30.287 -18.353   9.122  0.00  0.00    -0.271 N 
ATOM     30  C   LIG    1       31.525 -18.902   9.462  0.00  0.00    +0.331 C 
ATOM     31  O   LIG    1       31.937 -19.997   9.093  0.00  0.00    -0.246 OA
ATOM     32  N   LIG    1       32.313 -18.134  10.277  0.00  0.00    -0.275 N 
ATOM     33  H   LIG    1       33.209 -18.532  10.529  0.00  0.00    +0.173 HD
ATOM     34  C   LIG    1       31.931 -16.993  10.920  0.00  0.00    +0.254 C 
ATOM     35  O   LIG    1       32.611 -16.446  11.784  0.00  0.00    -0.268 OA
ATOM     36  C   LIG    1       30.634 -16.454  10.515  0.00  0.00    +0.088 C 
ATOM     37  C   LIG    1       29.869 -17.144   9.637  0.00  0.00    +0.098 C 
ENDBRANCH  27  29
BRANCH  23  38
ATOM     38  O   LIG    1       27.467 -19.675   6.071  0.00  0.00    -0.386 OA
ATOM     39  H   LIG    1       27.100 -20.072   5.254  0.00  0.00    +0.210 HD
ENDBRANCH  23  38
ENDBRANCH  21  22
ENDBRANCH   1  21
TORSDOF 12
ENDMDL
MODEL 5
REMARK VINA RESULT:      -9.0      3.189      8.795
REMARK  Name = *****
REMARK                            x       y       z     vdW  Elec       q    Type
REMARK                         _______ _______ _______ _____ _____    ______ ____
ROOT
ATOM      1  O   LIG    1       26.032 -21.484   6.838  0.00  0.00    -0.284 OA
ENDROOT
BRANCH   1   2
ATOM      2  P   LIG    1       25.129 -21.340   5.497  0.00  0.00    +0.462 P 
ATOM      3  O   LIG    1       25.770 -20.492   4.441  0.00  0.00    -0.228 OA
BRANCH   2   4
ATOM      4  N   LIG    1       24.822 -22.880   5.072  0.00  0.00    -0.199 NA
ATOM      5  H   LIG    1       25.437 -23.203   4.328  0.00  0.00    +0.135 HD
BRANCH   4   6
ATOM      6  C   LIG    1       24.683 -23.955   6.061  0.00  0.00    +0.171 C 
ATOM      7  C   LIG    1       23.310 -23.984   6.737  0.00  0.00    +0.036 C 
BRANCH   6   8
ATOM      8  C   LIG    1       24.891 -25.297   5.347  0.00  0.00    +0.325 C 
ATOM      9  O   LIG    1       25.462 -25.458   4.276  0.00  0.00    -0.249 OA
BRANCH   8  10
ATOM     10  O   LIG    1       24.379 -26.289   6.130  0.00  0.00    -0.461 OA
BRANCH  10  12
ATOM     11  C   LIG    1       26.038 -27.362   7.489  0.00  0.00    +0.051 C 
ATOM     12  C   LIG    1       25.159 -27.484   6.253  0.00  0.00    +0.170 C 
ATOM     13  C   LIG    1       24.159 -28.626   6.385  0.00  0.00    +0.051 C 
ENDBRANCH  10  12
ENDBRANCH   8  10
ENDBRANCH   6   8
ENDBRANCH   4   6
ENDBRANCH   2   4
BRANCH   2  14
ATOM     14  O   LIG    1       23.751 -20.719   6.079  0.00  0.00    -0.413 OA
BRANCH  14  15
ATOM     15  C   LIG    1       22.809 -20.096   5.300  0.00  0.00    +0.131 A 
ATOM     16  C   LIG    1       22.860 -18.744   4.962  0.00  0.00    +0.046 A 
ATOM     17  C   LIG    1       21.881 -18.179   4.144  0.00  0.00    +0.004 A 
ATOM     18  C   LIG    1       20.830 -18.959   3.672  0.00  0.00    +0.000 A 
ATOM     19  C   LIG    1       20.755 -20.305   4.027  0.00  0.00    +0.004 A 
ATOM     20  C   LIG    1       21.743 -20.874   4.838  0.00  0.00    +0.046 A 
ENDBRANCH  14  15
ENDBRANCH   2  14
ENDBRANCH   1   2
BRANCH   1  21
ATOM     21  C   LIG    1       26.694 -20.309   7.294  0.00  0.00    +0.206 C 
BRANCH  21  22
ATOM     22  C   LIG    1       27.876 -20.654   8.218  0.00  0.00    +0.179 C 
ATOM     23  C   LIG    1       29.047 -21.305   7.443  0.00  0.00    +0.186 C 
ATOM     24  C   LIG    1       30.293 -20.652   8.048  0.00  0.00    +0.182 C 
ATOM     25  C   LIG    1       30.793 -21.491   9.220  0.00  0.00    +0.055 C 
ATOM     26  F   LIG    1       31.282 -20.619   7.113  0.00  0.00    -0.235 F 
ATOM     27  C   LIG    1       29.716 -19.248   8.302  0.00  0.00    +0.263 C 
ATOM     28  O   LIG    1       28.409 -19.463   8.871  0.00  0.00    -0.345 OA
BRANCH  27  29
ATOM     29  N   LIG    1       30.482 -18.266   9.076  0.00  0.00    -0.271 N 
ATOM     30  C   LIG    1       31.703 -17.865   8.531  0.00  0.00    +0.331 C 
ATOM     31  O   LIG    1       32.203 -18.318   7.506  0.00  0.00    -0.246 OA
ATOM     32  N   LIG    1       32.373 -16.891   9.225  0.00  0.00    -0.275 N 
ATOM     33  H   LIG    1       33.261 -16.602   8.834  0.00  0.00    +0.173 HD
ATOM     34  C   LIG    1       32.050 -16.423  10.465  0.00  0.00    +0.254 C 
ATOM     35  O   LIG    1       32.785 -15.690  11.120  0.00  0.00    -0.268 OA
ATOM     36  C   LIG    1       30.755 -16.863  10.979  0.00  0.00    +0.088 C 
ATOM     37  C   LIG    1       30.024 -17.757  10.272  0.00  0.00    +0.098 C 
ENDBRANCH  27  29
BRANCH  23  38
ATOM     38  O   LIG    1       28.981 -21.014   6.042  0.00  0.00    -0.386 OA
ATOM     39  H   LIG    1       29.891 -21.101   5.689  0.00  0.00    +0.210 HD
ENDBRANCH  23  38
ENDBRANCH  21  22
ENDBRANCH   1  21
TORSDOF 12
ENDMDL
MODEL 6
REMARK VINA RESULT:      -8.9      3.267      9.323
REMARK  Name = *****
REMARK                            x       y       z     vdW  Elec       q    Type
REMARK                         _______ _______ _______ _____ _____    ______ ____
ROOT
ATOM      1  O   LIG    1       26.472 -21.414   6.382  0.00  0.00    -0.284 OA
ENDROOT
BRANCH   1   2
ATOM      2  P   LIG    1       25.618 -22.625   7.044  0.00  0.00    +0.462 P 
ATOM      3  O   LIG    1       25.495 -22.516   8.534  0.00  0.00    -0.228 OA
BRANCH   2   4
ATOM      4  N   LIG    1       24.215 -22.602   6.220  0.00  0.00    -0.199 NA
ATOM      5  H   LIG    1       23.879 -23.539   6.008  0.00  0.00    +0.135 HD
BRANCH   4   6
ATOM      6  C   LIG    1       23.074 -21.780   6.635  0.00  0.00    +0.171 C 
ATOM      7  C   LIG    1       23.418 -20.772   7.733  0.00  0.00    +0.036 C 
BRANCH   6   8
ATOM      8  C   LIG    1       22.573 -20.999   5.412  0.00  0.00    +0.325 C 
ATOM      9  O   LIG    1       21.557 -21.244   4.773  0.00  0.00    -0.249 OA
BRANCH   8  10
ATOM     10  O   LIG    1       23.419 -19.954   5.188  0.00  0.00    -0.461 OA
BRANCH  10  12
ATOM     11  C   LIG    1       22.289 -17.956   4.493  0.00  0.00    +0.051 C 
ATOM     12  C   LIG    1       23.146 -19.132   4.047  0.00  0.00    +0.170 C 
ATOM     13  C   LIG    1       24.502 -18.673   3.526  0.00  0.00    +0.051 C 
ENDBRANCH  10  12
ENDBRANCH   8  10
ENDBRANCH   6   8
ENDBRANCH   4   6
ENDBRANCH   2   4
BRANCH   2  14
ATOM     14  O   LIG    1       26.442 -23.930   6.555  0.00  0.00    -0.413 OA
BRANCH  14  15
ATOM     15  C   LIG    1       25.851 -25.130   6.246  0.00  0.00    +0.131 A 
ATOM     16  C   LIG    1       25.122 -25.352   5.077  0.00  0.00    +0.046 A 
ATOM     17  C   LIG    1       24.568 -26.605   4.814  0.00  0.00    +0.004 A 
ATOM     18  C   LIG    1       24.724 -27.643   5.727  0.00  0.00    +0.000 A 
ATOM     19  C   LIG    1       25.427 -27.424   6.910  0.00  0.00    +0.004 A 
ATOM     20  C   LIG    1       25.992 -26.170   7.169  0.00  0.00    +0.046 A 
ENDBRANCH  14  15
ENDBRANCH   2  14
ENDBRANCH   1   2
BRANCH   1  21
ATOM     21  C   LIG    1       26.818 -20.331   7.238  0.00  0.00    +0.206 C 
BRANCH  21  22
ATOM     22  C   LIG    1       28.018 -20.685   8.136  0.00  0.00    +0.179 C 
ATOM     23  C   LIG    1       29.229 -21.185   7.313  0.00  0.00    +0.186 C 
ATOM     24  C   LIG    1       30.429 -20.514   7.986  0.00  0.00    +0.182 C 
ATOM     25  C   LIG    1       30.980 -21.425   9.077  0.00  0.00    +0.055 C 
ATOM     26  F   LIG    1       31.416 -20.330   7.065  0.00  0.00    -0.235 F 
ATOM     27  C   LIG    1       29.763 -19.179   8.365  0.00  0.00    +0.263 C 
ATOM     28  O   LIG    1       28.472 -19.529   8.901  0.00  0.00    -0.345 OA
BRANCH  27  29
ATOM     29  N   LIG    1       30.464 -18.227   9.234  0.00  0.00    -0.271 N 
ATOM     30  C   LIG    1       31.651 -17.690   8.732  0.00  0.00    +0.331 C 
ATOM     31  O   LIG    1       32.175 -18.004   7.669  0.00  0.00    -0.246 OA
ATOM     32  N   LIG    1       32.255 -16.745   9.520  0.00  0.00    -0.275 N 
ATOM     33  H   LIG    1       33.119 -16.358   9.161  0.00  0.00    +0.173 HD
ATOM     34  C   LIG    1       31.907 -16.426  10.800  0.00  0.00    +0.254 C 
ATOM     35  O   LIG    1       32.593 -15.711  11.525  0.00  0.00    -0.268 OA
ATOM     36  C   LIG    1       30.649 -17.004  11.267  0.00  0.00    +0.088 C 
ATOM     37  C   LIG    1       29.977 -17.872  10.473  0.00  0.00    +0.098 C 
ENDBRANCH  27  29
BRANCH  23  38
ATOM     38  O   LIG    1       29.147 -20.768   5.944  0.00  0.00    -0.386 OA
ATOM     39  H   LIG    1       29.954 -20.246   5.755  0.00  0.00    +0.210 HD
ENDBRANCH  23  38
ENDBRANCH  21  22
ENDBRANCH   1  21
TORSDOF 12
ENDMDL
MODEL 7
REMARK VINA RESULT:      -8.6      3.624      9.422
REMARK  Name = *****
REMARK                            x       y       z     vdW  Elec       q    Type
REMARK                         _______ _______ _______ _____ _____    ______ ____
ROOT
ATOM      1  O   LIG    1       27.109 -22.281   7.224  0.00  0.00    -0.284 OA
ENDROOT
BRANCH   1   2
ATOM      2  P   LIG    1       25.515 -22.010   7.078  0.00  0.00    +0.462 P 
ATOM      3  O   LIG    1       25.036 -20.847   7.893  0.00  0.00    -0.228 OA
BRANCH   2   4
ATOM      4  N   LIG    1       25.292 -21.882   5.472  0.00  0.00    -0.199 NA
ATOM      5  H   LIG    1       25.563 -22.729   4.977  0.00  0.00    +0.135 HD
BRANCH   4   6
ATOM      6  C   LIG    1       24.042 -21.383   4.890  0.00  0.00    +0.171 C 
ATOM      7  C   LIG    1       22.819 -21.625   5.777  0.00  0.00    +0.036 C 
BRANCH   6   8
ATOM      8  C   LIG    1       24.181 -19.869   4.674  0.00  0.00    +0.325 C 
ATOM      9  O   LIG    1       25.164 -19.298   4.219  0.00  0.00    -0.249 OA
BRANCH   8  10
ATOM     10  O   LIG    1       23.006 -19.272   5.024  0.00  0.00    -0.461 OA
BRANCH  10  12
ATOM     11  C   LIG    1       21.046 -18.878   3.700  0.00  0.00    +0.051 C 
ATOM     12  C   LIG    1       22.430 -18.369   4.073  0.00  0.00    +0.170 C 
ATOM     13  C   LIG    1       22.363 -17.014   4.767  0.00  0.00    +0.051 C 
ENDBRANCH  10  12
ENDBRANCH   8  10
ENDBRANCH   6   8
ENDBRANCH   4   6
ENDBRANCH   2   4
BRANCH   2  14
ATOM     14  O   LIG    1       24.884 -23.429   7.539  0.00  0.00    -0.413 OA
BRANCH  14  15
ATOM     15  C   LIG    1       24.980 -24.580   6.797  0.00  0.00    +0.131 A 
ATOM     16  C   LIG    1       23.895 -25.171   6.149  0.00  0.00    +0.046 A 
ATOM     17  C   LIG    1       24.067 -26.329   5.391  0.00  0.00    +0.004 A 
ATOM     18  C   LIG    1       25.324 -26.917   5.288  0.00  0.00    +0.000 A 
ATOM     19  C   LIG    1       26.409 -26.349   5.955  0.00  0.00    +0.004 A 
ATOM     20  C   LIG    1       26.238 -25.181   6.707  0.00  0.00    +0.046 A 
ENDBRANCH  14  15
ENDBRANCH   2  14
ENDBRANCH   1   2
BRANCH   1  21
ATOM     21  C   LIG    1       27.787 -21.575   8.257  0.00  0.00    +0.206 C 
BRANCH  21  22
ATOM     22  C   LIG    1       29.136 -21.019   7.764  0.00  0.00    +0.179 C 
ATOM     23  C   LIG    1       28.968 -20.102   6.528  0.00  0.00    +0.186 C 
ATOM     24  C   LIG    1       29.929 -18.942   6.801  0.00  0.00    +0.182 C 
ATOM     25  C   LIG    1       31.295 -19.257   6.200  0.00  0.00    +0.055 C 
ATOM     26  F   LIG    1       29.459 -17.818   6.192  0.00  0.00    -0.235 F 
ATOM     27  C   LIG    1       29.763 -18.861   8.330  0.00  0.00    +0.263 C 
ATOM     28  O   LIG    1       29.795 -20.225   8.795  0.00  0.00    -0.345 OA
BRANCH  27  29
ATOM     29  N   LIG    1       30.650 -18.003   9.122  0.00  0.00    -0.271 N 
ATOM     30  C   LIG    1       30.187 -17.635  10.387  0.00  0.00    +0.331 C 
ATOM     31  O   LIG    1       29.084 -17.914  10.845  0.00  0.00    -0.246 OA
ATOM     32  N   LIG    1       31.057 -16.897  11.146  0.00  0.00    -0.275 N 
ATOM     33  H   LIG    1       30.722 -16.624  12.061  0.00  0.00    +0.173 HD
ATOM     34  C   LIG    1       32.230 -16.348  10.718  0.00  0.00    +0.254 C 
ATOM     35  O   LIG    1       32.878 -15.542  11.380  0.00  0.00    -0.268 OA
ATOM     36  C   LIG    1       32.674 -16.781   9.394  0.00  0.00    +0.088 C 
ATOM     37  C   LIG    1       31.878 -17.587   8.653  0.00  0.00    +0.098 C 
ENDBRANCH  27  29
BRANCH  23  38
ATOM     38  O   LIG    1       27.629 -19.604   6.416  0.00  0.00    -0.386 OA
ATOM     39  H   LIG    1       27.576 -19.112   5.571  0.00  0.00    +0.210 HD
ENDBRANCH  23  38
ENDBRANCH  21  22
ENDBRANCH   1  21
TORSDOF 12
ENDMDL
MODEL 8
REMARK VINA RESULT:      -7.7      2.891      9.279
REMARK  Name = *****
REMARK                            x       y       z     vdW  Elec       q    Type
REMARK                         _______ _______ _______ _____ _____    ______ ____
ROOT
ATOM      1  O   LIG    1       24.345 -27.069   6.607  0.00  0.00    -0.284 OA
ENDROOT
BRANCH   1   2
ATOM      2  P   LIG    1       25.367 -28.187   6.024  0.00  0.00    +0.462 P 
ATOM      3  O   LIG    1       26.250 -27.667   4.930  0.00  0.00    -0.228 OA
BRANCH   2   4
ATOM      4  N   LIG    1       26.138 -28.733   7.349  0.00  0.00    -0.199 NA
ATOM      5  H   LIG    1       27.094 -28.391   7.406  0.00  0.00    +0.135 HD
BRANCH   4   6
ATOM      6  C   LIG    1       25.539 -28.671   8.687  0.00  0.00    +0.171 C 
ATOM      7  C   LIG    1       24.552 -29.808   8.965  0.00  0.00    +0.036 C 
BRANCH   6   8
ATOM      8  C   LIG    1       26.667 -28.756   9.724  0.00  0.00    +0.325 C 
ATOM      9  O   LIG    1       27.514 -29.637   9.791  0.00  0.00    -0.249 OA
BRANCH   8  10
ATOM     10  O   LIG    1       26.600 -27.656  10.527  0.00  0.00    -0.461 OA
BRANCH  10  12
ATOM     11  C   LIG    1       26.845 -26.540  12.636  0.00  0.00    +0.051 C 
ATOM     12  C   LIG    1       26.664 -27.881  11.941  0.00  0.00    +0.170 C 
ATOM     13  C   LIG    1       25.343 -28.538  12.321  0.00  0.00    +0.051 C 
ENDBRANCH  10  12
ENDBRANCH   8  10
ENDBRANCH   6   8
ENDBRANCH   4   6
ENDBRANCH   2   4
BRANCH   2  14
ATOM     14  O   LIG    1       24.355 -29.355   5.541  0.00  0.00    -0.413 OA
BRANCH  14  15
ATOM     15  C   LIG    1       24.680 -30.689   5.538  0.00  0.00    +0.131 A 
ATOM     16  C   LIG    1       25.867 -31.192   5.005  0.00  0.00    +0.046 A 
ATOM     17  C   LIG    1       26.145 -32.558   5.057  0.00  0.00    +0.004 A 
ATOM     18  C   LIG    1       25.229 -33.436   5.628  0.00  0.00    +0.000 A 
ATOM     19  C   LIG    1       24.027 -32.947   6.138  0.00  0.00    +0.004 A 
ATOM     20  C   LIG    1       23.754 -31.575   6.095  0.00  0.00    +0.046 A 
ENDBRANCH  14  15
ENDBRANCH   2  14
ENDBRANCH   1   2
BRANCH   1  21
ATOM     21  C   LIG    1       24.133 -25.913   5.805  0.00  0.00    +0.206 C 
BRANCH  21  22
ATOM     22  C   LIG    1       24.132 -24.631   6.657  0.00  0.00    +0.179 C 
ATOM     23  C   LIG    1       25.566 -24.151   6.984  0.00  0.00    +0.186 C 
ATOM     24  C   LIG    1       25.489 -22.631   6.817  0.00  0.00    +0.182 C 
ATOM     25  C   LIG    1       25.126 -21.987   8.150  0.00  0.00    +0.055 C 
ATOM     26  F   LIG    1       26.712 -22.158   6.449  0.00  0.00    -0.235 F 
ATOM     27  C   LIG    1       24.494 -22.579   5.643  0.00  0.00    +0.263 C 
ATOM     28  O   LIG    1       23.463 -23.532   5.967  0.00  0.00    -0.345 OA
BRANCH  27  29
ATOM     29  N   LIG    1       23.924 -21.297   5.217  0.00  0.00    -0.271 N 
ATOM     30  C   LIG    1       24.772 -20.449   4.504  0.00  0.00    +0.331 C 
ATOM     31  O   LIG    1       25.957 -20.665   4.272  0.00  0.00    -0.246 OA
ATOM     32  N   LIG    1       24.205 -19.288   4.046  0.00  0.00    -0.275 N 
ATOM     33  H   LIG    1       24.820 -18.669   3.533  0.00  0.00    +0.173 HD
ATOM     34  C   LIG    1       22.969 -18.815   4.375  0.00  0.00    +0.254 C 
ATOM     35  O   LIG    1       22.583 -17.685   4.090  0.00  0.00    -0.268 OA
ATOM     36  C   LIG    1       22.118 -19.750   5.109  0.00  0.00    +0.088 C 
ATOM     37  C   LIG    1       22.620 -20.946   5.496  0.00  0.00    +0.098 C 
ENDBRANCH  27  29
BRANCH  23  38
ATOM     38  O   LIG    1       26.527 -24.690   6.068  0.00  0.00    -0.386 OA
ATOM     39  H   LIG    1       27.410 -24.568   6.474  0.00  0.00    +0.210 HD
ENDBRANCH  23  38
ENDBRANCH  21  22
ENDBRANCH   1  21
TORSDOF 12
ENDMDL
MODEL 9
REMARK VINA RESULT:      -7.4      4.596      9.282
REMARK  Name = *****
REMARK                            x       y       z     vdW  Elec       q    Type
REMARK                         _______ _______ _______ _____ _____    ______ ____
ROOT
ATOM      1  O   LIG    1       23.738 -30.185   8.530  0.00  0.00    -0.284 OA
ENDROOT
BRANCH   1   2
ATOM      2  P   LIG    1       24.352 -30.647   7.100  0.00  0.00    +0.462 P 
ATOM      3  O   LIG    1       23.301 -30.986   6.087  0.00  0.00    -0.228 OA
BRANCH   2   4
ATOM      4  N   LIG    1       25.348 -29.425   6.696  0.00  0.00    -0.199 NA
ATOM      5  H   LIG    1       25.479 -29.352   5.690  0.00  0.00    +0.135 HD
BRANCH   4   6
ATOM      6  C   LIG    1       25.196 -28.073   7.246  0.00  0.00    +0.171 C 
ATOM      7  C   LIG    1       26.452 -27.561   7.955  0.00  0.00    +0.036 C 
BRANCH   6   8
ATOM      8  C   LIG    1       24.878 -27.115   6.089  0.00  0.00    +0.325 C 
ATOM      9  O   LIG    1       25.303 -27.209   4.945  0.00  0.00    -0.249 OA
BRANCH   8  10
ATOM     10  O   LIG    1       24.001 -26.173   6.536  0.00  0.00    -0.461 OA
BRANCH  10  12
ATOM     11  C   LIG    1       23.113 -23.949   6.661  0.00  0.00    +0.051 C 
ATOM     12  C   LIG    1       24.248 -24.818   6.141  0.00  0.00    +0.170 C 
ATOM     13  C   LIG    1       25.583 -24.435   6.769  0.00  0.00    +0.051 C 
ENDBRANCH  10  12
ENDBRANCH   8  10
ENDBRANCH   6   8
ENDBRANCH   4   6
ENDBRANCH   2   4
BRANCH   2  14
ATOM     14  O   LIG    1       25.281 -31.905   7.518  0.00  0.00    -0.413 OA
BRANCH  14  15
ATOM     15  C   LIG    1       26.185 -32.498   6.672  0.00  0.00    +0.131 A 
ATOM     16  C   LIG    1       25.903 -32.811   5.342  0.00  0.00    +0.046 A 
ATOM     17  C   LIG    1       26.878 -33.392   4.528  0.00  0.00    +0.004 A 
ATOM     18  C   LIG    1       28.137 -33.680   5.045  0.00  0.00    +0.000 A 
ATOM     19  C   LIG    1       28.418 -33.397   6.381  0.00  0.00    +0.004 A 
ATOM     20  C   LIG    1       27.444 -32.805   7.193  0.00  0.00    +0.046 A 
ENDBRANCH  14  15
ENDBRANCH   2  14
ENDBRANCH   1   2
BRANCH   1  21
ATOM     21  C   LIG    1       23.101 -31.191   9.309  0.00  0.00    +0.206 C 
BRANCH  21  22
ATOM     22  C   LIG    1       23.285 -30.934  10.816  0.00  0.00    +0.179 C 
ATOM     23  C   LIG    1       24.394 -31.826  11.424  0.00  0.00    +0.186 C 
ATOM     24  C   LIG    1       25.142 -30.883  12.371  0.00  0.00    +0.182 C 
ATOM     25  C   LIG    1       24.521 -30.956  13.762  0.00  0.00    +0.055 C 
ATOM     26  F   LIG    1       26.438 -31.288  12.476  0.00  0.00    -0.235 F 
ATOM     27  C   LIG    1       25.025 -29.589  11.546  0.00  0.00    +0.263 C 
ATOM     28  O   LIG    1       23.662 -29.549  11.079  0.00  0.00    -0.345 OA
BRANCH  27  29
ATOM     29  N   LIG    1       25.429 -28.305  12.128  0.00  0.00    -0.271 N 
ATOM     30  C   LIG    1       26.720 -27.867  11.825  0.00  0.00    +0.331 C 
ATOM     31  O   LIG    1       27.547 -28.500  11.177  0.00  0.00    -0.246 OA
ATOM     32  N   LIG    1       27.058 -26.632  12.312  0.00  0.00    -0.275 N 
ATOM     33  H   LIG    1       27.995 -26.314  12.098  0.00  0.00    +0.173 HD
ATOM     34  C   LIG    1       26.331 -25.892  13.199  0.00  0.00    +0.254 C 
ATOM     35  O   LIG    1       26.764 -24.882  13.747  0.00  0.00    -0.268 OA
ATOM     36  C   LIG    1       24.983 -26.389  13.467  0.00  0.00    +0.088 C 
ATOM     37  C   LIG    1       24.584 -27.563  12.925  0.00  0.00    +0.098 C 
ENDBRANCH  27  29
BRANCH  23  38
ATOM     38  O   LIG    1       25.291 -32.315  10.420  0.00  0.00    -0.386 OA
ATOM     39  H   LIG    1       26.180 -32.363  10.830  0.00  0.00    +0.210 HD
ENDBRANCH  23  38
ENDBRANCH  21  22
ENDBRANCH   1  21
TORSDOF 12
ENDMDL
