MODEL 1
REMARK VINA RESULT:      -7.7      0.000      0.000
REMARK  Name = *****
REMARK                            x       y       z     vdW  Elec       q    Type
REMARK                         _______ _______ _______ _____ _____    ______ ____
ROOT
ATOM      1  C   LIG    1       24.766 -27.758   6.050  0.00  0.00    +0.225 C 
ATOM      2  C   LIG    1       25.939 -27.375   5.125  0.00  0.00    +0.045 C 
ATOM      3  C   LIG    1       26.971 -26.547   5.920  0.00  0.00    +0.058 C 
ATOM      4  C   LIG    1       26.247 -25.471   6.750  0.00  0.00    +0.133 C 
ATOM      5  N   LIG    1       24.850 -25.218   6.099  0.00  0.00    +0.246 N 
ATOM      6  C   LIG    1       25.091 -25.091   4.576  0.00  0.00    +0.133 C 
ATOM      7  C   LIG    1       25.410 -26.477   4.007  0.00  0.00    +0.058 C 
ATOM      8  C   LIG    1       23.968 -26.478   6.405  0.00  0.00    +0.179 C 
ENDROOT
BRANCH   1   9
ATOM      9  O   LIG    1       25.365 -28.396   7.196  0.00  0.00    -0.453 OA
BRANCH   9  11
ATOM     10  O   LIG    1       23.760 -30.007   7.212  0.00  0.00    -0.247 OA
ATOM     11  C   LIG    1       24.820 -29.570   7.618  0.00  0.00    +0.350 C 
BRANCH  11  12
ATOM     12  C   LIG    1       25.797 -30.188   8.708  0.00  0.00    +0.226 C 
BRANCH  12  13
ATOM     13  C   LIG    1       26.376 -31.520   8.224  0.00  0.00    +0.037 A 
ATOM     14  S   LIG    1       26.285 -32.032   6.582  0.00  0.00    -0.098 S 
ATOM     15  C   LIG    1       27.114 -33.490   6.906  0.00  0.00    +0.045 A 
ATOM     16  C   LIG    1       27.441 -33.612   8.236  0.00  0.00    +0.008 A 
ATOM     17  C   LIG    1       27.016 -32.485   8.991  0.00  0.00    +0.015 A 
ENDBRANCH  12  13
BRANCH  12  18
ATOM     18  C   LIG    1       25.086 -30.295  10.050  0.00  0.00    +0.037 A 
ATOM     19  S   LIG    1       25.561 -29.289  11.369  0.00  0.00    -0.098 S 
ATOM     20  C   LIG    1       24.415 -29.993  12.418  0.00  0.00    +0.045 A 
ATOM     21  C   LIG    1       23.647 -30.940  11.783  0.00  0.00    +0.008 A 
ATOM     22  C   LIG    1       24.024 -31.105  10.419  0.00  0.00    +0.015 A 
ENDBRANCH  12  18
BRANCH  12  23
ATOM     23  O   LIG    1       26.933 -29.329   8.875  0.00  0.00    -0.369 OA
ATOM     24  H   LIG    1       27.628 -29.691   8.300  0.00  0.00    +0.212 HD
ENDBRANCH  12  23
ENDBRANCH  11  12
ENDBRANCH   9  11
ENDBRANCH   1   9
BRANCH   5  25
ATOM     25  C   LIG    1       24.205 -23.924   6.700  0.00  0.00    +0.136 C 
BRANCH  25  26
ATOM     26  C   LIG    1       25.212 -23.088   7.507  0.00  0.00    +0.092 C 
BRANCH  26  27
ATOM     27  C   LIG    1       25.411 -21.651   7.009  0.00  0.00    +0.234 C 
BRANCH  27  28
ATOM     28  O   LIG    1       25.358 -21.578   5.586  0.00  0.00    -0.492 OA
BRANCH  28  29
ATOM     29  C   LIG    1       24.562 -20.578   5.066  0.00  0.00    +0.120 A 
ATOM     30  C   LIG    1       23.319 -20.408   5.686  0.00  0.00    +0.045 A 
ATOM     31  C   LIG    1       22.411 -19.446   5.225  0.00  0.00    +0.004 A 
ATOM     32  C   LIG    1       22.744 -18.630   4.147  0.00  0.00    +0.000 A 
ATOM     33  C   LIG    1       23.990 -18.769   3.541  0.00  0.00    +0.004 A 
ATOM     34  C   LIG    1       24.893 -19.740   3.994  0.00  0.00    +0.045 A 
ENDBRANCH  28  29
ENDBRANCH  27  28
ENDBRANCH  26  27
ENDBRANCH  25  26
ENDBRANCH   5  25
TORSDOF 11
ENDMDL
MODEL 2
REMARK VINA RESULT:      -7.6      1.302      3.073
REMARK  Name = *****
REMARK                            x       y       z     vdW  Elec       q    Type
REMARK                         _______ _______ _______ _____ _____    ______ ____
ROOT
ATOM      1  C   LIG    1       24.532 -28.015   5.668  0.00  0.00    +0.225 C 
ATOM      2  C   LIG    1       25.882 -27.632   5.029  0.00  0.00    +0.045 C 
ATOM      3  C   LIG    1       26.814 -27.042   6.110  0.00  0.00    +0.058 C 
ATOM      4  C   LIG    1       26.038 -26.024   6.966  0.00  0.00    +0.133 C 
ATOM      5  N   LIG    1       24.810 -25.532   6.137  0.00  0.00    +0.246 N 
ATOM      6  C   LIG    1       25.337 -25.214   4.717  0.00  0.00    +0.133 C 
ATOM      7  C   LIG    1       25.642 -26.530   3.996  0.00  0.00    +0.058 C 
ATOM      8  C   LIG    1       23.788 -26.721   6.083  0.00  0.00    +0.179 C 
ENDROOT
BRANCH   1   9
ATOM      9  O   LIG    1       24.857 -28.871   6.781  0.00  0.00    -0.453 OA
BRANCH   9  11
ATOM     10  O   LIG    1       23.368 -30.442   6.083  0.00  0.00    -0.247 OA
ATOM     11  C   LIG    1       24.276 -30.102   6.817  0.00  0.00    +0.350 C 
BRANCH  11  12
ATOM     12  C   LIG    1       24.981 -30.931   7.974  0.00  0.00    +0.226 C 
BRANCH  12  13
ATOM     13  C   LIG    1       25.492 -29.998   9.076  0.00  0.00    +0.037 A 
ATOM     14  S   LIG    1       24.668 -29.790  10.575  0.00  0.00    -0.098 S 
ATOM     15  C   LIG    1       25.835 -28.684  11.154  0.00  0.00    +0.045 A 
ATOM     16  C   LIG    1       26.826 -28.449  10.231  0.00  0.00    +0.008 A 
ATOM     17  C   LIG    1       26.628 -29.200   9.039  0.00  0.00    +0.015 A 
ENDBRANCH  12  13
BRANCH  12  18
ATOM     18  C   LIG    1       26.069 -31.824   7.394  0.00  0.00    +0.037 A 
ATOM     19  S   LIG    1       26.979 -32.869   8.423  0.00  0.00    -0.098 S 
ATOM     20  C   LIG    1       27.932 -33.439   7.128  0.00  0.00    +0.045 A 
ATOM     21  C   LIG    1       27.550 -32.893   5.926  0.00  0.00    +0.008 A 
ATOM     22  C   LIG    1       26.471 -31.974   6.076  0.00  0.00    +0.015 A 
ENDBRANCH  12  18
BRANCH  12  23
ATOM     23  O   LIG    1       24.015 -31.771   8.619  0.00  0.00    -0.369 OA
ATOM     24  H   LIG    1       24.146 -32.661   8.252  0.00  0.00    +0.212 HD
ENDBRANCH  12  23
ENDBRANCH  11  12
ENDBRANCH   9  11
ENDBRANCH   1   9
BRANCH   5  25
ATOM     25  C   LIG    1       24.171 -24.275   6.819  0.00  0.00    +0.136 C 
BRANCH  25  26
ATOM     26  C   LIG    1       25.230 -23.286   7.332  0.00  0.00    +0.092 C 
BRANCH  26  27
ATOM     27  C   LIG    1       24.733 -21.849   7.538  0.00  0.00    +0.234 C 
BRANCH  27  28
ATOM     28  O   LIG    1       23.553 -21.591   6.781  0.00  0.00    -0.492 OA
BRANCH  28  29
ATOM     29  C   LIG    1       23.695 -20.705   5.733  0.00  0.00    +0.120 A 
ATOM     30  C   LIG    1       22.600 -19.865   5.496  0.00  0.00    +0.045 A 
ATOM     31  C   LIG    1       22.614 -18.947   4.439  0.00  0.00    +0.004 A 
ATOM     32  C   LIG    1       23.731 -18.847   3.614  0.00  0.00    +0.000 A 
ATOM     33  C   LIG    1       24.838 -19.655   3.858  0.00  0.00    +0.004 A 
ATOM     34  C   LIG    1       24.820 -20.583   4.909  0.00  0.00    +0.045 A 
ENDBRANCH  28  29
ENDBRANCH  27  28
ENDBRANCH  26  27
ENDBRANCH  25  26
ENDBRANCH   5  25
TORSDOF 11
ENDMDL
MODEL 3
REMARK VINA RESULT:      -7.5      1.808      3.613
REMARK  Name = *****
REMARK                            x       y       z     vdW  Elec       q    Type
REMARK                         _______ _______ _______ _____ _____    ______ ____
ROOT
ATOM      1  C   LIG    1       24.826 -28.256   5.554  0.00  0.00    +0.225 C 
ATOM      2  C   LIG    1       26.159 -27.617   5.117  0.00  0.00    +0.045 C 
ATOM      3  C   LIG    1       26.799 -26.889   6.318  0.00  0.00    +0.058 C 
ATOM      4  C   LIG    1       25.732 -26.050   7.045  0.00  0.00    +0.133 C 
ATOM      5  N   LIG    1       24.567 -25.775   6.043  0.00  0.00    +0.246 N 
ATOM      6  C   LIG    1       25.226 -25.336   4.713  0.00  0.00    +0.133 C 
ATOM      7  C   LIG    1       25.871 -26.558   4.053  0.00  0.00    +0.058 C 
ATOM      8  C   LIG    1       23.803 -27.130   5.848  0.00  0.00    +0.179 C 
ENDROOT
BRANCH   1   9
ATOM      9  O   LIG    1       25.140 -29.061   6.708  0.00  0.00    -0.453 OA
BRANCH   9  11
ATOM     10  O   LIG    1       23.430 -30.487   6.245  0.00  0.00    -0.247 OA
ATOM     11  C   LIG    1       24.416 -30.199   6.896  0.00  0.00    +0.350 C 
BRANCH  11  12
ATOM     12  C   LIG    1       25.085 -31.000   8.094  0.00  0.00    +0.226 C 
BRANCH  12  13
ATOM     13  C   LIG    1       25.564 -30.040   9.187  0.00  0.00    +0.037 A 
ATOM     14  S   LIG    1       24.721 -29.828  10.674  0.00  0.00    -0.098 S 
ATOM     15  C   LIG    1       25.858 -28.690  11.249  0.00  0.00    +0.045 A 
ATOM     16  C   LIG    1       26.853 -28.447  10.333  0.00  0.00    +0.008 A 
ATOM     17  C   LIG    1       26.684 -29.219   9.150  0.00  0.00    +0.015 A 
ENDBRANCH  12  13
BRANCH  12  18
ATOM     18  C   LIG    1       26.187 -31.908   7.569  0.00  0.00    +0.037 A 
ATOM     19  S   LIG    1       27.041 -32.953   8.645  0.00  0.00    -0.098 S 
ATOM     20  C   LIG    1       28.044 -33.544   7.398  0.00  0.00    +0.045 A 
ATOM     21  C   LIG    1       27.719 -33.005   6.175  0.00  0.00    +0.008 A 
ATOM     22  C   LIG    1       26.644 -32.075   6.271  0.00  0.00    +0.015 A 
ENDBRANCH  12  18
BRANCH  12  23
ATOM     23  O   LIG    1       24.097 -31.822   8.731  0.00  0.00    -0.369 OA
ATOM     24  H   LIG    1       23.243 -31.554   8.353  0.00  0.00    +0.212 HD
ENDBRANCH  12  23
ENDBRANCH  11  12
ENDBRANCH   9  11
ENDBRANCH   1   9
BRANCH   5  25
ATOM     25  C   LIG    1       23.614 -24.673   6.617  0.00  0.00    +0.136 C 
BRANCH  25  26
ATOM     26  C   LIG    1       24.362 -23.375   6.963  0.00  0.00    +0.092 C 
BRANCH  26  27
ATOM     27  C   LIG    1       23.491 -22.113   7.007  0.00  0.00    +0.234 C 
BRANCH  27  28
ATOM     28  O   LIG    1       24.106 -21.079   7.771  0.00  0.00    -0.492 OA
BRANCH  28  29
ATOM     29  C   LIG    1       25.390 -20.740   7.397  0.00  0.00    +0.120 A 
ATOM     30  C   LIG    1       25.574 -20.472   6.036  0.00  0.00    +0.045 A 
ATOM     31  C   LIG    1       26.840 -20.149   5.531  0.00  0.00    +0.004 A 
ATOM     32  C   LIG    1       27.936 -20.075   6.387  0.00  0.00    +0.000 A 
ATOM     33  C   LIG    1       27.760 -20.309   7.748  0.00  0.00    +0.004 A 
ATOM     34  C   LIG    1       26.495 -20.645   8.251  0.00  0.00    +0.045 A 
ENDBRANCH  28  29
ENDBRANCH  27  28
ENDBRANCH  26  27
ENDBRANCH  25  26
ENDBRANCH   5  25
TORSDOF 11
ENDMDL
MODEL 4
REMARK VINA RESULT:      -7.3      1.861      2.468
REMARK  Name = *****
REMARK                            x       y       z     vdW  Elec       q    Type
REMARK                         _______ _______ _______ _____ _____    ______ ____
ROOT
ATOM      1  C   LIG    1       24.808 -28.101   5.394  0.00  0.00    +0.225 C 
ATOM      2  C   LIG    1       26.114 -27.450   4.895  0.00  0.00    +0.045 C 
ATOM      3  C   LIG    1       26.849 -26.796   6.085  0.00  0.00    +0.058 C 
ATOM      4  C   LIG    1       25.849 -25.991   6.935  0.00  0.00    +0.133 C 
ATOM      5  N   LIG    1       24.618 -25.649   6.038  0.00  0.00    +0.246 N 
ATOM      6  C   LIG    1       25.182 -25.142   4.690  0.00  0.00    +0.133 C 
ATOM      7  C   LIG    1       25.762 -26.329   3.916  0.00  0.00    +0.058 C 
ATOM      8  C   LIG    1       23.824 -26.985   5.825  0.00  0.00    +0.179 C 
ENDROOT
BRANCH   1   9
ATOM      9  O   LIG    1       25.195 -28.973   6.475  0.00  0.00    -0.453 OA
BRANCH   9  11
ATOM     10  O   LIG    1       23.465 -30.399   6.095  0.00  0.00    -0.247 OA
ATOM     11  C   LIG    1       24.561 -30.173   6.571  0.00  0.00    +0.350 C 
BRANCH  11  12
ATOM     12  C   LIG    1       25.497 -31.143   7.414  0.00  0.00    +0.226 C 
BRANCH  12  13
ATOM     13  C   LIG    1       26.297 -32.064   6.489  0.00  0.00    +0.037 A 
ATOM     14  S   LIG    1       25.780 -32.456   4.893  0.00  0.00    -0.098 S 
ATOM     15  C   LIG    1       27.149 -33.436   4.604  0.00  0.00    +0.045 A 
ATOM     16  C   LIG    1       27.982 -33.493   5.696  0.00  0.00    +0.008 A 
ATOM     17  C   LIG    1       27.493 -32.709   6.777  0.00  0.00    +0.015 A 
ENDBRANCH  12  13
BRANCH  12  18
ATOM     18  C   LIG    1       24.674 -31.899   8.447  0.00  0.00    +0.037 A 
ATOM     19  S   LIG    1       24.212 -31.133   9.923  0.00  0.00    -0.098 S 
ATOM     20  C   LIG    1       23.426 -32.535  10.494  0.00  0.00    +0.045 A 
ATOM     21  C   LIG    1       23.464 -33.558   9.576  0.00  0.00    +0.008 A 
ATOM     22  C   LIG    1       24.169 -33.189   8.395  0.00  0.00    +0.015 A 
ENDBRANCH  12  18
BRANCH  12  23
ATOM     23  O   LIG    1       26.483 -30.370   8.111  0.00  0.00    -0.369 OA
ATOM     24  H   LIG    1       26.678 -29.608   7.541  0.00  0.00    +0.212 HD
ENDBRANCH  12  23
ENDBRANCH  11  12
ENDBRANCH   9  11
ENDBRANCH   1   9
BRANCH   5  25
ATOM     25  C   LIG    1       23.723 -24.573   6.742  0.00  0.00    +0.136 C 
BRANCH  25  26
ATOM     26  C   LIG    1       23.846 -23.190   6.083  0.00  0.00    +0.092 C 
BRANCH  26  27
ATOM     27  C   LIG    1       23.230 -22.032   6.879  0.00  0.00    +0.234 C 
BRANCH  27  28
ATOM     28  O   LIG    1       23.779 -20.777   6.487  0.00  0.00    -0.492 OA
BRANCH  28  29
ATOM     29  C   LIG    1       25.135 -20.625   6.691  0.00  0.00    +0.120 A 
ATOM     30  C   LIG    1       25.559 -20.696   8.023  0.00  0.00    +0.045 A 
ATOM     31  C   LIG    1       26.908 -20.524   8.358  0.00  0.00    +0.004 A 
ATOM     32  C   LIG    1       27.853 -20.295   7.361  0.00  0.00    +0.000 A 
ATOM     33  C   LIG    1       27.448 -20.253   6.030  0.00  0.00    +0.004 A 
ATOM     34  C   LIG    1       26.096 -20.413   5.696  0.00  0.00    +0.045 A 
ENDBRANCH  28  29
ENDBRANCH  27  28
ENDBRANCH  26  27
ENDBRANCH  25  26
ENDBRANCH   5  25
TORSDOF 11
ENDMDL
MODEL 5
REMARK VINA RESULT:      -7.3      2.852      5.819
REMARK  Name = *****
REMARK                            x       y       z     vdW  Elec       q    Type
REMARK                         _______ _______ _______ _____ _____    ______ ____
ROOT
ATOM      1  C   LIG    1       24.167 -30.894   9.850  0.00  0.00    +0.225 C 
ATOM      2  C   LIG    1       25.649 -31.294   9.700  0.00  0.00    +0.045 C 
ATOM      3  C   LIG    1       26.522 -30.022   9.656  0.00  0.00    +0.058 C 
ATOM      4  C   LIG    1       25.891 -28.990   8.704  0.00  0.00    +0.133 C 
ATOM      5  N   LIG    1       24.951 -29.752   7.718  0.00  0.00    +0.246 N 
ATOM      6  C   LIG    1       25.742 -30.987   7.223  0.00  0.00    +0.133 C 
ATOM      7  C   LIG    1       25.831 -32.008   8.360  0.00  0.00    +0.058 C 
ATOM      8  C   LIG    1       23.697 -30.208   8.543  0.00  0.00    +0.179 C 
ENDROOT
BRANCH   1   9
ATOM      9  O   LIG    1       24.111 -30.030  11.003  0.00  0.00    -0.453 OA
BRANCH   9  11
ATOM     10  O   LIG    1       22.678 -31.427  12.082  0.00  0.00    -0.247 OA
ATOM     11  C   LIG    1       23.453 -30.490  12.101  0.00  0.00    +0.350 C 
BRANCH  11  12
ATOM     12  C   LIG    1       23.870 -29.572  13.330  0.00  0.00    +0.226 C 
BRANCH  12  13
ATOM     13  C   LIG    1       22.825 -28.479  13.569  0.00  0.00    +0.037 A 
ATOM     14  S   LIG    1       22.715 -27.606  15.050  0.00  0.00    -0.098 S 
ATOM     15  C   LIG    1       21.402 -26.666  14.491  0.00  0.00    +0.045 A 
ATOM     16  C   LIG    1       21.028 -27.011  13.214  0.00  0.00    +0.008 A 
ATOM     17  C   LIG    1       21.842 -28.051  12.687  0.00  0.00    +0.015 A 
ENDBRANCH  12  13
BRANCH  12  18
ATOM     18  C   LIG    1       25.275 -29.023  13.122  0.00  0.00    +0.037 A 
ATOM     19  S   LIG    1       26.652 -29.989  13.508  0.00  0.00    -0.098 S 
ATOM     20  C   LIG    1       27.739 -28.748  13.072  0.00  0.00    +0.045 A 
ATOM     21  C   LIG    1       27.088 -27.635  12.597  0.00  0.00    +0.008 A 
ATOM     22  C   LIG    1       25.672 -27.797  12.613  0.00  0.00    +0.015 A 
ENDBRANCH  12  18
BRANCH  12  23
ATOM     23  O   LIG    1       23.872 -30.353  14.532  0.00  0.00    -0.369 OA
ATOM     24  H   LIG    1       23.756 -29.721  15.261  0.00  0.00    +0.212 HD
ENDBRANCH  12  23
ENDBRANCH  11  12
ENDBRANCH   9  11
ENDBRANCH   1   9
BRANCH   5  25
ATOM     25  C   LIG    1       24.532 -28.812   6.538  0.00  0.00    +0.136 C 
BRANCH  25  26
ATOM     26  C   LIG    1       25.226 -27.442   6.608  0.00  0.00    +0.092 C 
BRANCH  26  27
ATOM     27  C   LIG    1       24.727 -26.406   5.593  0.00  0.00    +0.234 C 
BRANCH  27  28
ATOM     28  O   LIG    1       23.672 -25.612   6.132  0.00  0.00    -0.492 OA
BRANCH  28  29
ATOM     29  C   LIG    1       24.039 -24.368   6.603  0.00  0.00    +0.120 A 
ATOM     30  C   LIG    1       22.992 -23.458   6.788  0.00  0.00    +0.045 A 
ATOM     31  C   LIG    1       23.244 -22.153   7.230  0.00  0.00    +0.004 A 
ATOM     32  C   LIG    1       24.547 -21.748   7.508  0.00  0.00    +0.000 A 
ATOM     33  C   LIG    1       25.593 -22.654   7.357  0.00  0.00    +0.004 A 
ATOM     34  C   LIG    1       25.342 -23.956   6.902  0.00  0.00    +0.045 A 
ENDBRANCH  28  29
ENDBRANCH  27  28
ENDBRANCH  26  27
ENDBRANCH  25  26
ENDBRANCH   5  25
TORSDOF 11
ENDMDL
MODEL 6
REMARK VINA RESULT:      -7.3      2.019      2.840
REMARK  Name = *****
REMARK                            x       y       z     vdW  Elec       q    Type
REMARK                         _______ _______ _______ _____ _____    ______ ____
ROOT
ATOM      1  C   LIG    1       24.268 -26.887   5.968  0.00  0.00    +0.225 C 
ATOM      2  C   LIG    1       25.531 -26.568   5.142  0.00  0.00    +0.045 C 
ATOM      3  C   LIG    1       26.608 -25.958   6.065  0.00  0.00    +0.058 C 
ATOM      4  C   LIG    1       25.972 -24.885   6.968  0.00  0.00    +0.133 C 
ATOM      5  N   LIG    1       24.657 -24.395   6.285  0.00  0.00    +0.246 N 
ATOM      6  C   LIG    1       25.000 -24.152   4.795  0.00  0.00    +0.133 C 
ATOM      7  C   LIG    1       25.181 -25.504   4.100  0.00  0.00    +0.058 C 
ATOM      8  C   LIG    1       23.613 -25.557   6.417  0.00  0.00    +0.179 C 
ENDROOT
BRANCH   1   9
ATOM      9  O   LIG    1       24.718 -27.705   7.067  0.00  0.00    -0.453 OA
BRANCH   9  11
ATOM     10  O   LIG    1       23.613 -29.523   6.263  0.00  0.00    -0.247 OA
ATOM     11  C   LIG    1       24.432 -29.034   7.019  0.00  0.00    +0.350 C 
BRANCH  11  12
ATOM     12  C   LIG    1       25.323 -29.757   8.118  0.00  0.00    +0.226 C 
BRANCH  12  13
ATOM     13  C   LIG    1       25.948 -31.035   7.555  0.00  0.00    +0.037 A 
ATOM     14  S   LIG    1       25.892 -31.439   5.881  0.00  0.00    -0.098 S 
ATOM     15  C   LIG    1       26.761 -32.890   6.118  0.00  0.00    +0.045 A 
ATOM     16  C   LIG    1       27.077 -33.091   7.441  0.00  0.00    +0.008 A 
ATOM     17  C   LIG    1       26.609 -32.029   8.264  0.00  0.00    +0.015 A 
ENDBRANCH  12  13
BRANCH  12  18
ATOM     18  C   LIG    1       24.509 -29.994   9.382  0.00  0.00    +0.037 A 
ATOM     19  S   LIG    1       25.176 -29.623  10.930  0.00  0.00    -0.098 S 
ATOM     20  C   LIG    1       23.780 -30.167  11.746  0.00  0.00    +0.045 A 
ATOM     21  C   LIG    1       22.801 -30.581  10.875  0.00  0.00    +0.008 A 
ATOM     22  C   LIG    1       23.214 -30.470   9.516  0.00  0.00    +0.015 A 
ENDBRANCH  12  18
BRANCH  12  23
ATOM     23  O   LIG    1       26.436 -28.919   8.458  0.00  0.00    -0.369 OA
ATOM     24  H   LIG    1       26.715 -28.496   7.629  0.00  0.00    +0.212 HD
ENDBRANCH  12  23
ENDBRANCH  11  12
ENDBRANCH   9  11
ENDBRANCH   1   9
BRANCH   5  25
ATOM     25  C   LIG    1       24.139 -23.094   6.987  0.00  0.00    +0.136 C 
BRANCH  25  26
ATOM     26  C   LIG    1       25.256 -22.349   7.735  0.00  0.00    +0.092 C 
BRANCH  26  27
ATOM     27  C   LIG    1       25.620 -20.974   7.160  0.00  0.00    +0.234 C 
BRANCH  27  28
ATOM     28  O   LIG    1       26.631 -21.077   6.160  0.00  0.00    -0.492 OA
BRANCH  28  29
ATOM     29  C   LIG    1       27.862 -20.552   6.496  0.00  0.00    +0.120 A 
ATOM     30  C   LIG    1       28.274 -19.445   5.744  0.00  0.00    +0.045 A 
ATOM     31  C   LIG    1       29.520 -18.846   5.970  0.00  0.00    +0.004 A 
ATOM     32  C   LIG    1       30.362 -19.338   6.964  0.00  0.00    +0.000 A 
ATOM     33  C   LIG    1       29.951 -20.418   7.738  0.00  0.00    +0.004 A 
ATOM     34  C   LIG    1       28.709 -21.026   7.504  0.00  0.00    +0.045 A 
ENDBRANCH  28  29
ENDBRANCH  27  28
ENDBRANCH  26  27
ENDBRANCH  25  26
ENDBRANCH   5  25
TORSDOF 11
ENDMDL
MODEL 7
REMARK VINA RESULT:      -6.9      2.902      5.018
REMARK  Name = *****
REMARK                            x       y       z     vdW  Elec       q    Type
REMARK                         _______ _______ _______ _____ _____    ______ ____
ROOT
ATOM      1  C   LIG    1       24.529 -31.277   9.092  0.00  0.00    +0.225 C 
ATOM      2  C   LIG    1       24.777 -32.530   8.228  0.00  0.00    +0.045 C 
ATOM      3  C   LIG    1       26.011 -32.300   7.330  0.00  0.00    +0.058 C 
ATOM      4  C   LIG    1       25.929 -30.906   6.680  0.00  0.00    +0.133 C 
ATOM      5  N   LIG    1       24.434 -30.456   6.688  0.00  0.00    +0.246 N 
ATOM      6  C   LIG    1       23.608 -31.669   6.195  0.00  0.00    +0.133 C 
ATOM      7  C   LIG    1       23.579 -32.731   7.299  0.00  0.00    +0.058 C 
ATOM      8  C   LIG    1       24.066 -30.118   8.175  0.00  0.00    +0.179 C 
ENDROOT
BRANCH   1   9
ATOM      9  O   LIG    1       25.778 -31.013   9.762  0.00  0.00    -0.453 OA
BRANCH   9  11
ATOM     10  O   LIG    1       25.532 -32.116  11.736  0.00  0.00    -0.247 OA
ATOM     11  C   LIG    1       25.792 -31.100  11.120  0.00  0.00    +0.350 C 
BRANCH  11  12
ATOM     12  C   LIG    1       26.170 -29.665  11.688  0.00  0.00    +0.226 C 
BRANCH  12  13
ATOM     13  C   LIG    1       27.287 -29.770  12.730  0.00  0.00    +0.037 A 
ATOM     14  S   LIG    1       27.021 -30.374  14.321  0.00  0.00    -0.098 S 
ATOM     15  C   LIG    1       28.659 -30.168  14.760  0.00  0.00    +0.045 A 
ATOM     16  C   LIG    1       29.403 -29.631  13.736  0.00  0.00    +0.008 A 
ATOM     17  C   LIG    1       28.616 -29.401  12.574  0.00  0.00    +0.015 A 
ENDBRANCH  12  13
BRANCH  12  18
ATOM     18  C   LIG    1       24.925 -28.964  12.214  0.00  0.00    +0.037 A 
ATOM     19  S   LIG    1       25.062 -27.473  13.073  0.00  0.00    -0.098 S 
ATOM     20  C   LIG    1       23.379 -27.380  13.333  0.00  0.00    +0.045 A 
ATOM     21  C   LIG    1       22.707 -28.426  12.746  0.00  0.00    +0.008 A 
ATOM     22  C   LIG    1       23.593 -29.329  12.092  0.00  0.00    +0.015 A 
ENDBRANCH  12  18
BRANCH  12  23
ATOM     23  O   LIG    1       26.720 -28.862  10.635  0.00  0.00    -0.369 OA
ATOM     24  H   LIG    1       26.940 -29.479   9.917  0.00  0.00    +0.212 HD
ENDBRANCH  12  23
ENDBRANCH  11  12
ENDBRANCH   9  11
ENDBRANCH   1   9
BRANCH   5  25
ATOM     25  C   LIG    1       24.245 -29.205   5.766  0.00  0.00    +0.136 C 
BRANCH  25  26
ATOM     26  C   LIG    1       25.021 -27.980   6.276  0.00  0.00    +0.092 C 
BRANCH  26  27
ATOM     27  C   LIG    1       24.374 -26.624   5.968  0.00  0.00    +0.234 C 
BRANCH  27  28
ATOM     28  O   LIG    1       25.312 -25.557   6.091  0.00  0.00    -0.492 OA
BRANCH  28  29
ATOM     29  C   LIG    1       24.802 -24.360   6.550  0.00  0.00    +0.120 A 
ATOM     30  C   LIG    1       23.409 -24.231   6.491  0.00  0.00    +0.045 A 
ATOM     31  C   LIG    1       22.778 -23.049   6.898  0.00  0.00    +0.004 A 
ATOM     32  C   LIG    1       23.534 -21.986   7.385  0.00  0.00    +0.000 A 
ATOM     33  C   LIG    1       24.917 -22.112   7.477  0.00  0.00    +0.004 A 
ATOM     34  C   LIG    1       25.549 -23.291   7.058  0.00  0.00    +0.045 A 
ENDBRANCH  28  29
ENDBRANCH  27  28
ENDBRANCH  26  27
ENDBRANCH  25  26
ENDBRANCH   5  25
TORSDOF 11
ENDMDL
MODEL 8
REMARK VINA RESULT:      -6.7      2.944      5.502
REMARK  Name = *****
REMARK                            x       y       z     vdW  Elec       q    Type
REMARK                         _______ _______ _______ _____ _____    ______ ____
ROOT
ATOM      1  C   LIG    1       24.597 -31.099   9.010  0.00  0.00    +0.225 C 
ATOM      2  C   LIG    1       24.856 -32.331   8.120  0.00  0.00    +0.045 C 
ATOM      3  C   LIG    1       26.080 -32.065   7.217  0.00  0.00    +0.058 C 
ATOM      4  C   LIG    1       25.972 -30.661   6.596  0.00  0.00    +0.133 C 
ATOM      5  N   LIG    1       24.471 -30.234   6.623  0.00  0.00    +0.246 N 
ATOM      6  C   LIG    1       23.659 -31.449   6.113  0.00  0.00    +0.133 C 
ATOM      7  C   LIG    1       23.654 -32.532   7.196  0.00  0.00    +0.058 C 
ATOM      8  C   LIG    1       24.109 -29.930   8.119  0.00  0.00    +0.179 C 
ENDROOT
BRANCH   1   9
ATOM      9  O   LIG    1       25.847 -30.829   9.676  0.00  0.00    -0.453 OA
BRANCH   9  11
ATOM     10  O   LIG    1       26.280 -28.600   9.787  0.00  0.00    -0.247 OA
ATOM     11  C   LIG    1       25.966 -29.642  10.330  0.00  0.00    +0.350 C 
BRANCH  11  12
ATOM     12  C   LIG    1       25.653 -29.907  11.865  0.00  0.00    +0.226 C 
BRANCH  12  13
ATOM     13  C   LIG    1       24.598 -28.925  12.381  0.00  0.00    +0.037 A 
ATOM     14  S   LIG    1       25.007 -27.447  13.167  0.00  0.00    -0.098 S 
ATOM     15  C   LIG    1       23.369 -27.012  13.378  0.00  0.00    +0.045 A 
ATOM     16  C   LIG    1       22.514 -27.969  12.887  0.00  0.00    +0.008 A 
ATOM     17  C   LIG    1       23.218 -29.067  12.317  0.00  0.00    +0.015 A 
ENDBRANCH  12  13
BRANCH  12  18
ATOM     18  C   LIG    1       26.941 -29.882  12.676  0.00  0.00    +0.037 A 
ATOM     19  S   LIG    1       26.982 -30.549  14.267  0.00  0.00    -0.098 S 
ATOM     20  C   LIG    1       28.619 -30.125  14.486  0.00  0.00    +0.045 A 
ATOM     21  C   LIG    1       29.153 -29.531  13.367  0.00  0.00    +0.008 A 
ATOM     22  C   LIG    1       28.193 -29.403  12.322  0.00  0.00    +0.015 A 
ENDBRANCH  12  18
BRANCH  12  23
ATOM     23  O   LIG    1       25.058 -31.203  12.016  0.00  0.00    -0.369 OA
ATOM     24  H   LIG    1       24.143 -31.045  12.302  0.00  0.00    +0.212 HD
ENDBRANCH  12  23
ENDBRANCH  11  12
ENDBRANCH   9  11
ENDBRANCH   1   9
BRANCH   5  25
ATOM     25  C   LIG    1       24.255 -28.968   5.727  0.00  0.00    +0.136 C 
BRANCH  25  26
ATOM     26  C   LIG    1       25.580 -28.393   5.199  0.00  0.00    +0.092 C 
BRANCH  26  27
ATOM     27  C   LIG    1       25.610 -26.867   5.040  0.00  0.00    +0.234 C 
BRANCH  27  28
ATOM     28  O   LIG    1       25.901 -26.218   6.275  0.00  0.00    -0.492 OA
BRANCH  28  29
ATOM     29  C   LIG    1       25.170 -25.078   6.540  0.00  0.00    +0.120 A 
ATOM     30  C   LIG    1       25.904 -23.985   7.015  0.00  0.00    +0.045 A 
ATOM     31  C   LIG    1       25.267 -22.783   7.349  0.00  0.00    +0.004 A 
ATOM     32  C   LIG    1       23.889 -22.655   7.198  0.00  0.00    +0.000 A 
ATOM     33  C   LIG    1       23.153 -23.725   6.697  0.00  0.00    +0.004 A 
ATOM     34  C   LIG    1       23.788 -24.933   6.374  0.00  0.00    +0.045 A 
ENDBRANCH  28  29
ENDBRANCH  27  28
ENDBRANCH  26  27
ENDBRANCH  25  26
ENDBRANCH   5  25
TORSDOF 11
ENDMDL
MODEL 9
REMARK VINA RESULT:      -6.6      2.841      5.443
REMARK  Name = *****
REMARK                            x       y       z     vdW  Elec       q    Type
REMARK                         _______ _______ _______ _____ _____    ______ ____
ROOT
ATOM      1  C   LIG    1       24.370 -30.625   9.865  0.00  0.00    +0.225 C 
ATOM      2  C   LIG    1       25.844 -31.021   9.649  0.00  0.00    +0.045 C 
ATOM      3  C   LIG    1       26.697 -29.747   9.460  0.00  0.00    +0.058 C 
ATOM      4  C   LIG    1       25.993 -28.792   8.480  0.00  0.00    +0.133 C 
ATOM      5  N   LIG    1       25.003 -29.631   7.612  0.00  0.00    +0.246 N 
ATOM      6  C   LIG    1       25.778 -30.890   7.156  0.00  0.00    +0.133 C 
ATOM      7  C   LIG    1       25.952 -31.827   8.354  0.00  0.00    +0.058 C 
ATOM      8  C   LIG    1       23.810 -30.038   8.544  0.00  0.00    +0.179 C 
ENDROOT
BRANCH   1   9
ATOM      9  O   LIG    1       24.375 -29.681  10.954  0.00  0.00    -0.453 OA
BRANCH   9  11
ATOM     10  O   LIG    1       22.219 -30.037  11.583  0.00  0.00    -0.247 OA
ATOM     11  C   LIG    1       23.371 -29.772  11.868  0.00  0.00    +0.350 C 
BRANCH  11  12
ATOM     12  C   LIG    1       23.990 -29.446  13.295  0.00  0.00    +0.226 C 
BRANCH  12  13
ATOM     13  C   LIG    1       24.882 -28.203  13.227  0.00  0.00    +0.037 A 
ATOM     14  S   LIG    1       26.576 -28.290  12.924  0.00  0.00    -0.098 S 
ATOM     15  C   LIG    1       26.758 -26.593  13.003  0.00  0.00    +0.045 A 
ATOM     16  C   LIG    1       25.570 -25.959  13.276  0.00  0.00    +0.008 A 
ATOM     17  C   LIG    1       24.495 -26.882  13.407  0.00  0.00    +0.015 A 
ENDBRANCH  12  13
BRANCH  12  18
ATOM     18  C   LIG    1       24.708 -30.669  13.848  0.00  0.00    +0.037 A 
ATOM     19  S   LIG    1       25.240 -30.698  15.490  0.00  0.00    -0.098 S 
ATOM     20  C   LIG    1       25.923 -32.252  15.321  0.00  0.00    +0.045 A 
ATOM     21  C   LIG    1       25.719 -32.772  14.065  0.00  0.00    +0.008 A 
ATOM     22  C   LIG    1       25.010 -31.868  13.222  0.00  0.00    +0.015 A 
ENDBRANCH  12  18
BRANCH  12  23
ATOM     23  O   LIG    1       22.939 -29.098  14.206  0.00  0.00    -0.369 OA
ATOM     24  H   LIG    1       22.686 -28.186  13.986  0.00  0.00    +0.212 HD
ENDBRANCH  12  23
ENDBRANCH  11  12
ENDBRANCH   9  11
ENDBRANCH   1   9
BRANCH   5  25
ATOM     25  C   LIG    1       24.500 -28.781   6.397  0.00  0.00    +0.136 C 
BRANCH  25  26
ATOM     26  C   LIG    1       25.429 -27.596   6.088  0.00  0.00    +0.092 C 
BRANCH  26  27
ATOM     27  C   LIG    1       24.752 -26.397   5.410  0.00  0.00    +0.234 C 
BRANCH  27  28
ATOM     28  O   LIG    1       23.735 -25.835   6.237  0.00  0.00    -0.492 OA
BRANCH  28  29
ATOM     29  C   LIG    1       23.936 -24.528   6.630  0.00  0.00    +0.120 A 
ATOM     30  C   LIG    1       25.258 -24.182   6.932  0.00  0.00    +0.045 A 
ATOM     31  C   LIG    1       25.580 -22.893   7.373  0.00  0.00    +0.004 A 
ATOM     32  C   LIG    1       24.585 -21.928   7.503  0.00  0.00    +0.000 A 
ATOM     33  C   LIG    1       23.271 -22.251   7.177  0.00  0.00    +0.004 A 
ATOM     34  C   LIG    1       22.946 -23.545   6.746  0.00  0.00    +0.045 A 
ENDBRANCH  28  29
ENDBRANCH  27  28
ENDBRANCH  26  27
ENDBRANCH  25  26
ENDBRANCH   5  25
TORSDOF 11
ENDMDL
