MODEL 1
REMARK VINA RESULT:      -6.0      0.000      0.000
REMARK  Name = *****
REMARK                            x       y       z     vdW  Elec       q    Type
REMARK                         _______ _______ _______ _____ _____    ______ ____
ROOT
ATOM      1  C   LIG    1       24.866 -13.566   3.473  0.00  0.00    +0.101 A 
ATOM      2  C   LIG    1       26.219 -13.635   3.128  0.00  0.00    +0.131 A 
ATOM      3  C   LIG    1       26.862 -14.866   3.044  0.00  0.00    +0.047 A 
ATOM      4  C   LIG    1       26.153 -16.043   3.312  0.00  0.00    +0.012 A 
ATOM      5  C   LIG    1       24.789 -16.028   3.652  0.00  0.00    -0.014 A 
ATOM      6  C   LIG    1       24.166 -14.765   3.719  0.00  0.00    +0.027 A 
ENDROOT
BRANCH   5   7
ATOM      7  C   LIG    1       24.040 -17.279   3.940  0.00  0.00    +0.018 A 
ATOM      8  C   LIG    1       24.602 -18.559   3.754  0.00  0.00    +0.134 A 
ATOM      9  F   LIG    1       25.847 -18.694   3.272  0.00  0.00    -0.205 F 
ATOM     10  C   LIG    1       23.904 -19.731   4.042  0.00  0.00    +0.077 A 
ATOM     11  C   LIG    1       22.607 -19.645   4.517  0.00  0.00    +0.126 A 
ATOM     12  F   LIG    1       21.927 -20.765   4.793  0.00  0.00    -0.205 F 
ATOM     13  C   LIG    1       22.004 -18.411   4.710  0.00  0.00    +0.039 A 
ATOM     14  C   LIG    1       22.716 -17.239   4.429  0.00  0.00    +0.014 A 
ENDBRANCH   5   7
BRANCH   1  16
ATOM     15  O   LIG    1       23.784 -11.828   4.692  0.00  0.00    -0.245 OA
ATOM     16  C   LIG    1       24.100 -12.292   3.605  0.00  0.00    +0.340 C 
BRANCH  16  17
ATOM     17  O   LIG    1       23.789 -11.679   2.445  0.00  0.00    -0.477 OA
ATOM     18  H   LIG    1       24.437 -11.877   1.733  0.00  0.00    +0.295 HD
ENDBRANCH  16  17
ENDBRANCH   1  16
BRANCH   2  19
ATOM     19  O   LIG    1       26.927 -12.489   2.870  0.00  0.00    -0.506 OA
ATOM     20  H   LIG    1       27.165 -12.073   3.721  0.00  0.00    +0.292 HD
ENDBRANCH   2  19
TORSDOF 4
ENDMDL
MODEL 2
REMARK VINA RESULT:      -5.9      3.991      6.458
REMARK  Name = *****
REMARK                            x       y       z     vdW  Elec       q    Type
REMARK                         _______ _______ _______ _____ _____    ______ ____
ROOT
ATOM      1  C   LIG    1       23.977 -19.250   4.075  0.00  0.00    +0.101 A 
ATOM      2  C   LIG    1       22.665 -19.165   4.550  0.00  0.00    +0.131 A 
ATOM      3  C   LIG    1       22.055 -17.925   4.712  0.00  0.00    +0.047 A 
ATOM      4  C   LIG    1       22.760 -16.755   4.405  0.00  0.00    +0.012 A 
ATOM      5  C   LIG    1       24.077 -16.789   3.913  0.00  0.00    -0.014 A 
ATOM      6  C   LIG    1       24.661 -18.061   3.752  0.00  0.00    +0.027 A 
ENDROOT
BRANCH   5   7
ATOM      7  C   LIG    1       24.824 -15.544   3.592  0.00  0.00    +0.018 A 
ATOM      8  C   LIG    1       26.201 -15.546   3.284  0.00  0.00    +0.134 A 
ATOM      9  F   LIG    1       26.903 -16.689   3.301  0.00  0.00    -0.205 F 
ATOM     10  C   LIG    1       26.897 -14.381   2.965  0.00  0.00    +0.077 A 
ATOM     11  C   LIG    1       26.222 -13.172   2.960  0.00  0.00    +0.126 A 
ATOM     12  F   LIG    1       26.882 -12.047   2.659  0.00  0.00    -0.205 F 
ATOM     13  C   LIG    1       24.870 -13.114   3.264  0.00  0.00    +0.039 A 
ATOM     14  C   LIG    1       24.177 -14.291   3.571  0.00  0.00    +0.014 A 
ENDBRANCH   5   7
BRANCH   1  16
ATOM     15  O   LIG    1       24.155 -21.571   3.564  0.00  0.00    -0.245 OA
ATOM     16  C   LIG    1       24.716 -20.534   3.887  0.00  0.00    +0.340 C 
BRANCH  16  17
ATOM     17  O   LIG    1       26.048 -20.469   4.086  0.00  0.00    -0.477 OA
ATOM     18  H   LIG    1       26.514 -20.017   3.349  0.00  0.00    +0.295 HD
ENDBRANCH  16  17
ENDBRANCH   1  16
BRANCH   2  19
ATOM     19  O   LIG    1       21.966 -20.303   4.863  0.00  0.00    -0.506 OA
ATOM     20  H   LIG    1       21.289 -20.451   4.174  0.00  0.00    +0.292 HD
ENDBRANCH   2  19
TORSDOF 4
ENDMDL
MODEL 3
REMARK VINA RESULT:      -5.0      4.153      6.663
REMARK  Name = *****
REMARK                            x       y       z     vdW  Elec       q    Type
REMARK                         _______ _______ _______ _____ _____    ______ ____
ROOT
ATOM      1  C   LIG    1       24.172 -19.224   3.877  0.00  0.00    +0.101 A 
ATOM      2  C   LIG    1       22.827 -19.086   4.230  0.00  0.00    +0.131 A 
ATOM      3  C   LIG    1       22.273 -17.823   4.410  0.00  0.00    +0.047 A 
ATOM      4  C   LIG    1       23.068 -16.682   4.244  0.00  0.00    +0.012 A 
ATOM      5  C   LIG    1       24.423 -16.768   3.878  0.00  0.00    -0.014 A 
ATOM      6  C   LIG    1       24.949 -18.062   3.694  0.00  0.00    +0.027 A 
ENDROOT
BRANCH   5   7
ATOM      7  C   LIG    1       25.266 -15.556   3.706  0.00  0.00    +0.018 A 
ATOM      8  C   LIG    1       24.837 -14.271   4.102  0.00  0.00    +0.134 A 
ATOM      9  F   LIG    1       23.616 -14.093   4.630  0.00  0.00    -0.205 F 
ATOM     10  C   LIG    1       25.636 -13.139   3.956  0.00  0.00    +0.077 A 
ATOM     11  C   LIG    1       26.893 -13.267   3.392  0.00  0.00    +0.126 A 
ATOM     12  F   LIG    1       27.667 -12.185   3.245  0.00  0.00    -0.205 F 
ATOM     13  C   LIG    1       27.360 -14.506   2.978  0.00  0.00    +0.039 A 
ATOM     14  C   LIG    1       26.556 -15.640   3.139  0.00  0.00    +0.014 A 
ENDBRANCH   5   7
BRANCH   1  16
ATOM     15  O   LIG    1       24.240 -21.562   3.416  0.00  0.00    -0.245 OA
ATOM     16  C   LIG    1       24.855 -20.538   3.681  0.00  0.00    +0.340 C 
BRANCH  16  17
ATOM     17  O   LIG    1       26.197 -20.517   3.804  0.00  0.00    -0.477 OA
ATOM     18  H   LIG    1       26.556 -19.603   3.824  0.00  0.00    +0.295 HD
ENDBRANCH  16  17
ENDBRANCH   1  16
BRANCH   2  19
ATOM     19  O   LIG    1       22.039 -20.195   4.404  0.00  0.00    -0.506 OA
ATOM     20  H   LIG    1       22.280 -20.857   3.729  0.00  0.00    +0.292 HD
ENDBRANCH   2  19
TORSDOF 4
ENDMDL
MODEL 4
REMARK VINA RESULT:      -5.0      4.102      6.246
REMARK  Name = *****
REMARK                            x       y       z     vdW  Elec       q    Type
REMARK                         _______ _______ _______ _____ _____    ______ ____
ROOT
ATOM      1  C   LIG    1       23.706 -19.155   4.205  0.00  0.00    +0.101 A 
ATOM      2  C   LIG    1       24.820 -19.996   4.147  0.00  0.00    +0.131 A 
ATOM      3  C   LIG    1       26.077 -19.479   3.847  0.00  0.00    +0.047 A 
ATOM      4  C   LIG    1       26.226 -18.110   3.594  0.00  0.00    +0.012 A 
ATOM      5  C   LIG    1       25.138 -17.221   3.651  0.00  0.00    -0.014 A 
ATOM      6  C   LIG    1       23.882 -17.776   3.967  0.00  0.00    +0.027 A 
ENDROOT
BRANCH   5   7
ATOM      7  C   LIG    1       25.298 -15.769   3.378  0.00  0.00    +0.018 A 
ATOM      8  C   LIG    1       24.320 -14.817   3.737  0.00  0.00    +0.134 A 
ATOM      9  F   LIG    1       23.176 -15.203   4.323  0.00  0.00    -0.205 F 
ATOM     10  C   LIG    1       24.481 -13.454   3.496  0.00  0.00    +0.077 A 
ATOM     11  C   LIG    1       25.632 -13.010   2.871  0.00  0.00    +0.126 A 
ATOM     12  F   LIG    1       25.794 -11.702   2.632  0.00  0.00    -0.205 F 
ATOM     13  C   LIG    1       26.621 -13.904   2.488  0.00  0.00    +0.039 A 
ATOM     14  C   LIG    1       26.457 -15.270   2.746  0.00  0.00    +0.014 A 
ENDBRANCH   5   7
BRANCH   1  16
ATOM     15  O   LIG    1       22.091 -20.703   5.026  0.00  0.00    -0.245 OA
ATOM     16  C   LIG    1       22.319 -19.623   4.500  0.00  0.00    +0.340 C 
BRANCH  16  17
ATOM     17  O   LIG    1       21.334 -18.769   4.157  0.00  0.00    -0.477 OA
ATOM     18  H   LIG    1       21.544 -18.265   3.341  0.00  0.00    +0.295 HD
ENDBRANCH  16  17
ENDBRANCH   1  16
BRANCH   2  19
ATOM     19  O   LIG    1       24.687 -21.340   4.385  0.00  0.00    -0.506 OA
ATOM     20  H   LIG    1       23.860 -21.649   3.967  0.00  0.00    +0.292 HD
ENDBRANCH   2  19
TORSDOF 4
ENDMDL
MODEL 5
REMARK VINA RESULT:      -4.4      4.194      6.168
REMARK  Name = *****
REMARK                            x       y       z     vdW  Elec       q    Type
REMARK                         _______ _______ _______ _____ _____    ______ ____
ROOT
ATOM      1  C   LIG    1       23.289 -19.436   4.138  0.00  0.00    +0.101 A 
ATOM      2  C   LIG    1       24.405 -20.201   3.791  0.00  0.00    +0.131 A 
ATOM      3  C   LIG    1       25.601 -19.583   3.442  0.00  0.00    +0.047 A 
ATOM      4  C   LIG    1       25.687 -18.185   3.431  0.00  0.00    +0.012 A 
ATOM      5  C   LIG    1       24.596 -17.371   3.784  0.00  0.00    -0.014 A 
ATOM      6  C   LIG    1       23.403 -18.030   4.141  0.00  0.00    +0.027 A 
ENDROOT
BRANCH   5   7
ATOM      7  C   LIG    1       24.689 -15.888   3.768  0.00  0.00    +0.018 A 
ATOM      8  C   LIG    1       25.880 -15.206   3.443  0.00  0.00    +0.134 A 
ATOM      9  F   LIG    1       27.001 -15.887   3.160  0.00  0.00    -0.205 F 
ATOM     10  C   LIG    1       25.960 -13.815   3.411  0.00  0.00    +0.077 A 
ATOM     11  C   LIG    1       24.838 -13.067   3.721  0.00  0.00    +0.126 A 
ATOM     12  F   LIG    1       24.905 -11.730   3.697  0.00  0.00    -0.205 F 
ATOM     13  C   LIG    1       23.644 -13.688   4.057  0.00  0.00    +0.039 A 
ATOM     14  C   LIG    1       23.569 -15.085   4.074  0.00  0.00    +0.014 A 
ENDBRANCH   5   7
BRANCH   1  16
ATOM     15  O   LIG    1       20.908 -19.456   4.231  0.00  0.00    -0.245 OA
ATOM     16  C   LIG    1       21.962 -20.011   4.508  0.00  0.00    +0.340 C 
BRANCH  16  17
ATOM     17  O   LIG    1       22.002 -21.192   5.158  0.00  0.00    -0.477 OA
ATOM     18  H   LIG    1       22.089 -21.080   6.130  0.00  0.00    +0.295 HD
ENDBRANCH  16  17
ENDBRANCH   1  16
BRANCH   2  19
ATOM     19  O   LIG    1       24.333 -21.571   3.789  0.00  0.00    -0.506 OA
ATOM     20  H   LIG    1       25.203 -21.928   3.528  0.00  0.00    +0.292 HD
ENDBRANCH   2  19
TORSDOF 4
ENDMDL
MODEL 6
REMARK VINA RESULT:      -4.4      4.286      6.665
REMARK  Name = *****
REMARK                            x       y       z     vdW  Elec       q    Type
REMARK                         _______ _______ _______ _____ _____    ______ ____
ROOT
ATOM      1  C   LIG    1       26.517 -19.493   4.788  0.00  0.00    +0.101 A 
ATOM      2  C   LIG    1       25.399 -20.236   4.401  0.00  0.00    +0.131 A 
ATOM      3  C   LIG    1       24.357 -19.630   3.707  0.00  0.00    +0.047 A 
ATOM      4  C   LIG    1       24.424 -18.266   3.399  0.00  0.00    +0.012 A 
ATOM      5  C   LIG    1       25.533 -17.477   3.756  0.00  0.00    -0.014 A 
ATOM      6  C   LIG    1       26.574 -18.125   4.450  0.00  0.00    +0.027 A 
ENDROOT
BRANCH   5   7
ATOM      7  C   LIG    1       25.600 -16.028   3.432  0.00  0.00    +0.018 A 
ATOM      8  C   LIG    1       24.531 -15.144   3.688  0.00  0.00    +0.134 A 
ATOM      9  F   LIG    1       23.383 -15.595   4.217  0.00  0.00    -0.205 F 
ATOM     10  C   LIG    1       24.603 -13.782   3.401  0.00  0.00    +0.077 A 
ATOM     11  C   LIG    1       25.756 -13.272   2.831  0.00  0.00    +0.126 A 
ATOM     12  F   LIG    1       25.834 -11.966   2.547  0.00  0.00    -0.205 F 
ATOM     13  C   LIG    1       26.833 -14.100   2.550  0.00  0.00    +0.039 A 
ATOM     14  C   LIG    1       26.757 -15.464   2.854  0.00  0.00    +0.014 A 
ENDBRANCH   5   7
BRANCH   1  16
ATOM     15  O   LIG    1       28.792 -19.565   5.497  0.00  0.00    -0.245 OA
ATOM     16  C   LIG    1       27.672 -20.054   5.550  0.00  0.00    +0.340 C 
BRANCH  16  17
ATOM     17  O   LIG    1       27.395 -21.132   6.312  0.00  0.00    -0.477 OA
ATOM     18  H   LIG    1       28.028 -21.868   6.161  0.00  0.00    +0.295 HD
ENDBRANCH  16  17
ENDBRANCH   1  16
BRANCH   2  19
ATOM     19  O   LIG    1       25.316 -21.572   4.703  0.00  0.00    -0.506 OA
ATOM     20  H   LIG    1       26.156 -22.001   4.449  0.00  0.00    +0.292 HD
ENDBRANCH   2  19
TORSDOF 4
ENDMDL
MODEL 7
REMARK VINA RESULT:      -4.4      4.179      6.244
REMARK  Name = *****
REMARK                            x       y       z     vdW  Elec       q    Type
REMARK                         _______ _______ _______ _____ _____    ______ ____
ROOT
ATOM      1  C   LIG    1       24.979 -19.135   4.029  0.00  0.00    +0.101 A 
ATOM      2  C   LIG    1       26.271 -19.524   4.390  0.00  0.00    +0.131 A 
ATOM      3  C   LIG    1       27.309 -18.597   4.399  0.00  0.00    +0.047 A 
ATOM      4  C   LIG    1       27.059 -17.268   4.038  0.00  0.00    +0.012 A 
ATOM      5  C   LIG    1       25.775 -16.824   3.678  0.00  0.00    -0.014 A 
ATOM      6  C   LIG    1       24.746 -17.787   3.688  0.00  0.00    +0.027 A 
ENDROOT
BRANCH   5   7
ATOM      7  C   LIG    1       25.513 -15.413   3.291  0.00  0.00    +0.018 A 
ATOM      8  C   LIG    1       24.338 -14.729   3.666  0.00  0.00    +0.134 A 
ATOM      9  F   LIG    1       23.383 -15.351   4.375  0.00  0.00    -0.205 F 
ATOM     10  C   LIG    1       24.103 -13.400   3.318  0.00  0.00    +0.077 A 
ATOM     11  C   LIG    1       25.046 -12.723   2.565  0.00  0.00    +0.126 A 
ATOM     12  F   LIG    1       24.828 -11.447   2.221  0.00  0.00    -0.205 F 
ATOM     13  C   LIG    1       26.215 -13.352   2.161  0.00  0.00    +0.039 A 
ATOM     14  C   LIG    1       26.448 -14.682   2.527  0.00  0.00    +0.014 A 
ENDBRANCH   5   7
BRANCH   1  16
ATOM     15  O   LIG    1       23.877 -21.169   3.454  0.00  0.00    -0.245 OA
ATOM     16  C   LIG    1       23.810 -20.063   3.972  0.00  0.00    +0.340 C 
BRANCH  16  17
ATOM     17  O   LIG    1       22.678 -19.605   4.543  0.00  0.00    -0.477 OA
ATOM     18  H   LIG    1       22.829 -18.790   5.071  0.00  0.00    +0.295 HD
ENDBRANCH  16  17
ENDBRANCH   1  16
BRANCH   2  19
ATOM     19  O   LIG    1       26.531 -20.825   4.738  0.00  0.00    -0.506 OA
ATOM     20  H   LIG    1       27.352 -21.109   4.291  0.00  0.00    +0.292 HD
ENDBRANCH   2  19
TORSDOF 4
ENDMDL
MODEL 8
REMARK VINA RESULT:      -4.4      4.412      6.773
REMARK  Name = *****
REMARK                            x       y       z     vdW  Elec       q    Type
REMARK                         _______ _______ _______ _____ _____    ______ ____
ROOT
ATOM      1  C   LIG    1       23.657 -19.919   4.948  0.00  0.00    +0.101 A 
ATOM      2  C   LIG    1       22.298 -20.010   4.633  0.00  0.00    +0.131 A 
ATOM      3  C   LIG    1       21.633 -18.927   4.068  0.00  0.00    +0.047 A 
ATOM      4  C   LIG    1       22.325 -17.736   3.819  0.00  0.00    +0.012 A 
ATOM      5  C   LIG    1       23.694 -17.598   4.107  0.00  0.00    -0.014 A 
ATOM      6  C   LIG    1       24.339 -18.717   4.670  0.00  0.00    +0.027 A 
ENDROOT
BRANCH   5   7
ATOM      7  C   LIG    1       24.426 -16.331   3.846  0.00  0.00    +0.018 A 
ATOM      8  C   LIG    1       23.902 -15.067   4.192  0.00  0.00    +0.134 A 
ATOM      9  F   LIG    1       22.688 -14.963   4.753  0.00  0.00    -0.205 F 
ATOM     10  C   LIG    1       24.597 -13.881   3.962  0.00  0.00    +0.077 A 
ATOM     11  C   LIG    1       25.843 -13.935   3.362  0.00  0.00    +0.126 A 
ATOM     12  F   LIG    1       26.517 -12.801   3.133  0.00  0.00    -0.205 F 
ATOM     13  C   LIG    1       26.400 -15.151   2.993  0.00  0.00    +0.039 A 
ATOM     14  C   LIG    1       25.700 -16.338   3.239  0.00  0.00    +0.014 A 
ENDBRANCH   5   7
BRANCH   1  16
ATOM     15  O   LIG    1       24.237 -21.412   6.712  0.00  0.00    -0.245 OA
ATOM     16  C   LIG    1       24.446 -21.022   5.572  0.00  0.00    +0.340 C 
BRANCH  16  17
ATOM     17  O   LIG    1       25.399 -21.567   4.790  0.00  0.00    -0.477 OA
ATOM     18  H   LIG    1       26.128 -21.967   5.314  0.00  0.00    +0.295 HD
ENDBRANCH  16  17
ENDBRANCH   1  16
BRANCH   2  19
ATOM     19  O   LIG    1       21.606 -21.168   4.879  0.00  0.00    -0.506 OA
ATOM     20  H   LIG    1       20.939 -20.991   5.571  0.00  0.00    +0.292 HD
ENDBRANCH   2  19
TORSDOF 4
ENDMDL
MODEL 9
REMARK VINA RESULT:      -3.8      4.417      6.076
REMARK  Name = *****
REMARK                            x       y       z     vdW  Elec       q    Type
REMARK                         _______ _______ _______ _____ _____    ______ ____
ROOT
ATOM      1  C   LIG    1       26.259 -18.759   4.056  0.00  0.00    +0.101 A 
ATOM      2  C   LIG    1       27.586 -18.752   4.493  0.00  0.00    +0.131 A 
ATOM      3  C   LIG    1       28.291 -17.555   4.583  0.00  0.00    +0.047 A 
ATOM      4  C   LIG    1       27.670 -16.352   4.227  0.00  0.00    +0.012 A 
ATOM      5  C   LIG    1       26.333 -16.305   3.793  0.00  0.00    -0.014 A 
ATOM      6  C   LIG    1       25.647 -17.534   3.723  0.00  0.00    +0.027 A 
ENDROOT
BRANCH   5   7
ATOM      7  C   LIG    1       25.678 -15.027   3.412  0.00  0.00    +0.018 A 
ATOM      8  C   LIG    1       26.325 -14.046   2.631  0.00  0.00    +0.134 A 
ATOM      9  F   LIG    1       27.590 -14.225   2.222  0.00  0.00    -0.205 F 
ATOM     10  C   LIG    1       25.702 -12.856   2.260  0.00  0.00    +0.077 A 
ATOM     11  C   LIG    1       24.406 -12.613   2.679  0.00  0.00    +0.126 A 
ATOM     12  F   LIG    1       23.800 -11.471   2.331  0.00  0.00    -0.205 F 
ATOM     13  C   LIG    1       23.727 -13.540   3.457  0.00  0.00    +0.039 A 
ATOM     14  C   LIG    1       24.356 -14.738   3.814  0.00  0.00    +0.014 A 
ENDBRANCH   5   7
BRANCH   1  16
ATOM     15  O   LIG    1       25.586 -20.973   4.630  0.00  0.00    -0.245 OA
ATOM     16  C   LIG    1       25.433 -19.995   3.911  0.00  0.00    +0.340 C 
BRANCH  16  17
ATOM     17  O   LIG    1       24.498 -19.956   2.941  0.00  0.00    -0.477 OA
ATOM     18  H   LIG    1       24.472 -19.088   2.482  0.00  0.00    +0.295 HD
ENDBRANCH  16  17
ENDBRANCH   1  16
BRANCH   2  19
ATOM     19  O   LIG    1       28.209 -19.924   4.837  0.00  0.00    -0.506 OA
ATOM     20  H   LIG    1       27.589 -20.663   4.684  0.00  0.00    +0.292 HD
ENDBRANCH   2  19
TORSDOF 4
ENDMDL
