MODEL 1
REMARK VINA RESULT:       4.3      0.000      0.000
REMARK  Name = *****
REMARK                            x       y       z     vdW  Elec       q    Type
REMARK                         _______ _______ _______ _____ _____    ______ ____
ROOT
ATOM      1  C   LIG    1       26.971 -15.294   2.792  0.00  0.00    +0.003 C 
ENDROOT
BRANCH   1   2
ATOM      2  C   LIG    1       27.874 -14.099   3.072  0.00  0.00    +0.003 C 
BRANCH   2   3
ATOM      3  C   LIG    1       27.576 -12.920   2.150  0.00  0.00    +0.041 C 
BRANCH   3   4
ATOM      4  C   LIG    1       26.078 -12.851   1.878  0.00  0.00    +0.243 C 
BRANCH   4   5
ATOM      5  N   LIG    1       25.425 -12.275   3.046  0.00  0.00    -0.110 NA
ATOM      6  C   LIG    1       24.183 -11.928   2.954  0.00  0.00    +0.425 C 
BRANCH   6   7
ATOM      7  N   LIG    1       23.390 -12.006   1.849  0.00  0.00    -0.286 N 
ATOM      8  H   LIG    1       23.872 -11.720   1.013  0.00  0.00    +0.255 HD
ATOM      9  H   LIG    1       22.840 -12.852   1.746  0.00  0.00    +0.255 HD
ENDBRANCH   6   7
BRANCH   6  10
ATOM     10  N   LIG    1       23.573 -11.451   4.060  0.00  0.00    -0.003 NA
ATOM     11  C   LIG    1       23.426 -12.140   5.154  0.00  0.00    +0.394 C 
BRANCH  11  12
ATOM     12  N   LIG    1       22.838 -11.469   6.176  0.00  0.00    -0.288 N 
ATOM     13  H   LIG    1       21.840 -11.558   6.279  0.00  0.00    +0.255 HD
ATOM     14  H   LIG    1       23.171 -10.513   6.239  0.00  0.00    +0.255 HD
ENDBRANCH  11  12
BRANCH  11  15
ATOM     15  N   LIG    1       23.875 -13.409   5.450  0.00  0.00    -0.243 N 
ATOM     16  H   LIG    1       24.895 -13.464   5.427  0.00  0.00    +0.265 HD
BRANCH  15  17
ATOM     17  C   LIG    1       23.274 -14.645   5.110  0.00  0.00    +0.100 A 
ATOM     18  C   LIG    1       23.706 -15.338   3.967  0.00  0.00    +0.043 A 
ATOM     19  C   LIG    1       23.156 -16.585   3.629  0.00  0.00    +0.023 A 
ATOM     20  C   LIG    1       22.173 -17.152   4.436  0.00  0.00    +0.041 A 
ATOM     21 CL   LIG    1       21.499 -18.683   4.036  0.00  0.00    -0.084 Cl
ATOM     22  C   LIG    1       21.718 -16.474   5.561  0.00  0.00    +0.023 A 
ATOM     23  C   LIG    1       22.248 -15.219   5.874  0.00  0.00    +0.043 A 
ENDBRANCH  15  17
ENDBRANCH  11  15
ENDBRANCH   6  10
ENDBRANCH   4   5
ENDBRANCH   3   4
ENDBRANCH   2   3
ENDBRANCH   1   2
BRANCH   1  24
ATOM     24  C   LIG    1       26.828 -16.149   4.050  0.00  0.00    +0.041 C 
BRANCH  24  25
ATOM     25  C   LIG    1       26.376 -17.565   3.724  0.00  0.00    +0.243 C 
BRANCH  25  27
ATOM     26  C   LIG    1       28.041 -18.575   5.071  0.00  0.00    +0.425 C 
ATOM     27  N   LIG    1       26.786 -18.425   4.829  0.00  0.00    -0.110 NA
BRANCH  26  28
ATOM     28  N   LIG    1       29.076 -17.960   4.449  0.00  0.00    -0.286 N 
ATOM     29  H   LIG    1       29.641 -18.645   3.959  0.00  0.00    +0.255 HD
ATOM     30  H   LIG    1       29.632 -17.374   5.053  0.00  0.00    +0.255 HD
ENDBRANCH  26  28
BRANCH  26  31
ATOM     31  N   LIG    1       28.438 -19.451   6.030  0.00  0.00    -0.003 NA
ATOM     32  C   LIG    1       28.079 -20.696   6.051  0.00  0.00    +0.394 C 
BRANCH  32  33
ATOM     33  N   LIG    1       28.620 -21.428   7.062  0.00  0.00    -0.288 N 
ATOM     34  H   LIG    1       28.654 -20.902   7.928  0.00  0.00    +0.255 HD
ATOM     35  H   LIG    1       28.113 -22.298   7.171  0.00  0.00    +0.255 HD
ENDBRANCH  32  33
BRANCH  32  36
ATOM     36  N   LIG    1       27.281 -21.410   5.193  0.00  0.00    -0.243 N 
ATOM     37  H   LIG    1       27.676 -21.472   4.253  0.00  0.00    +0.265 HD
BRANCH  36  38
ATOM     38  C   LIG    1       25.866 -21.424   5.207  0.00  0.00    +0.100 A 
ATOM     39  C   LIG    1       25.118 -21.333   4.024  0.00  0.00    +0.043 A 
ATOM     40  C   LIG    1       23.721 -21.335   4.045  0.00  0.00    +0.023 A 
ATOM     41  C   LIG    1       23.052 -21.439   5.258  0.00  0.00    +0.041 A 
ATOM     42 CL   LIG    1       21.331 -21.442   5.283  0.00  0.00    -0.084 Cl
ATOM     43  C   LIG    1       23.770 -21.542   6.448  0.00  0.00    +0.023 A 
ATOM     44  C   LIG    1       25.173 -21.544   6.420  0.00  0.00    +0.043 A 
ENDBRANCH  36  38
ENDBRANCH  32  36
ENDBRANCH  26  31
ENDBRANCH  25  27
ENDBRANCH  24  25
ENDBRANCH   1  24
TORSDOF 17
ENDMDL
