MODEL 1
REMARK VINA RESULT:      -9.3      0.000      0.000
REMARK  Name = *****
REMARK                            x       y       z     vdW  Elec       q    Type
REMARK                         _______ _______ _______ _____ _____    ______ ____
ROOT
ATOM      1  N   LIG    1       24.839 -20.988   6.566  0.00  0.00    -0.310 NA
ATOM      2  H   LIG    1       24.546 -20.334   5.833  0.00  0.00    +0.122 HD
ENDROOT
BRANCH   1   4
ATOM      3  C   LIG    1       25.901 -20.716   8.743  0.00  0.00    +0.024 C 
ATOM      4  C   LIG    1       26.041 -20.431   7.239  0.00  0.00    +0.055 C 
BRANCH   4   5
ATOM      5  C   LIG    1       27.337 -21.043   6.652  0.00  0.00    +0.053 C 
BRANCH   5   6
ATOM      6  C   LIG    1       28.640 -20.663   7.325  0.00  0.00    -0.042 A 
ATOM      7  C   LIG    1       29.078 -19.334   7.280  0.00  0.00    +0.053 A 
ATOM      8  C   LIG    1       30.255 -19.015   7.919  0.00  0.00    +0.167 A 
ATOM      9  O   LIG    1       30.821 -17.785   7.957  0.00  0.00    -0.453 OA
ATOM     10  C   LIG    1       31.999 -18.058   8.748  0.00  0.00    +0.466 C 
ATOM     11  O   LIG    1       32.104 -19.434   9.160  0.00  0.00    -0.453 OA
ATOM     12  C   LIG    1       30.977 -19.960   8.610  0.00  0.00    +0.166 A 
ATOM     13  C   LIG    1       30.563 -21.268   8.699  0.00  0.00    +0.050 A 
ATOM     14  C   LIG    1       29.377 -21.624   8.052  0.00  0.00    +0.007 A 
ENDBRANCH   5   6
ENDBRANCH   4   5
ENDBRANCH   1   4
BRANCH   1  15
ATOM     15  C   LIG    1       25.085 -22.309   5.944  0.00  0.00    +0.117 C 
BRANCH  15  16
ATOM     16  C   LIG    1       24.391 -23.475   6.700  0.00  0.00    +0.158 C 
BRANCH  16  17
ATOM     17  C   LIG    1       24.826 -24.874   6.315  0.00  0.00    -0.014 A 
ATOM     18  C   LIG    1       26.183 -25.197   6.165  0.00  0.00    +0.055 A 
ATOM     19  C   LIG    1       26.557 -26.487   5.826  0.00  0.00    +0.159 A 
ATOM     20  C   LIG    1       25.604 -27.476   5.621  0.00  0.00    +0.158 A 
ATOM     21  C   LIG    1       24.256 -27.194   5.789  0.00  0.00    +0.049 A 
ATOM     22  C   LIG    1       23.873 -25.900   6.156  0.00  0.00    +0.010 A 
BRANCH  19  23
ATOM     23  O   LIG    1       27.886 -26.773   5.698  0.00  0.00    -0.503 OA
ATOM     24  H   LIG    1       28.143 -27.123   6.573  0.00  0.00    +0.292 HD
ENDBRANCH  19  23
BRANCH  20  25
ATOM     25  O   LIG    1       26.045 -28.715   5.252  0.00  0.00    -0.503 OA
ATOM     26  H   LIG    1       25.266 -29.252   5.023  0.00  0.00    +0.292 HD
ENDBRANCH  20  25
ENDBRANCH  16  17
BRANCH  16  27
ATOM     27  O   LIG    1       22.973 -23.336   6.522  0.00  0.00    -0.386 OA
ATOM     28  H   LIG    1       22.868 -22.551   5.949  0.00  0.00    +0.210 HD
ENDBRANCH  16  27
ENDBRANCH  15  16
ENDBRANCH   1  15
TORSDOF 9
ENDMDL
MODEL 2
REMARK VINA RESULT:      -9.3      1.672      8.060
REMARK  Name = *****
REMARK                            x       y       z     vdW  Elec       q    Type
REMARK                         _______ _______ _______ _____ _____    ______ ____
ROOT
ATOM      1  N   LIG    1       26.664 -20.306   5.009  0.00  0.00    -0.310 NA
ATOM      2  H   LIG    1       26.861 -19.468   4.452  0.00  0.00    +0.122 HD
ENDROOT
BRANCH   1   4
ATOM      3  C   LIG    1       24.435 -20.898   4.221  0.00  0.00    +0.024 C 
ATOM      4  C   LIG    1       25.227 -20.288   5.389  0.00  0.00    +0.055 C 
BRANCH   4   5
ATOM      5  C   LIG    1       24.994 -21.059   6.712  0.00  0.00    +0.053 C 
BRANCH   5   6
ATOM      6  C   LIG    1       24.683 -22.537   6.598  0.00  0.00    -0.042 A 
ATOM      7  C   LIG    1       25.732 -23.455   6.466  0.00  0.00    +0.053 A 
ATOM      8  C   LIG    1       25.419 -24.793   6.384  0.00  0.00    +0.167 A 
ATOM      9  O   LIG    1       26.310 -25.803   6.241  0.00  0.00    -0.453 OA
ATOM     10  C   LIG    1       25.421 -26.942   6.220  0.00  0.00    +0.466 C 
ATOM     11  O   LIG    1       24.033 -26.586   6.353  0.00  0.00    -0.453 OA
ATOM     12  C   LIG    1       24.116 -25.232   6.457  0.00  0.00    +0.166 A 
ATOM     13  C   LIG    1       23.064 -24.362   6.615  0.00  0.00    +0.050 A 
ATOM     14  C   LIG    1       23.350 -22.996   6.690  0.00  0.00    +0.007 A 
ENDBRANCH   5   6
ENDBRANCH   4   5
ENDBRANCH   1   4
BRANCH   1  15
ATOM     15  C   LIG    1       27.570 -20.314   6.180  0.00  0.00    +0.117 C 
BRANCH  15  16
ATOM     16  C   LIG    1       28.963 -19.697   5.873  0.00  0.00    +0.158 C 
BRANCH  16  17
ATOM     17  C   LIG    1       29.815 -19.343   7.074  0.00  0.00    -0.014 A 
ATOM     18  C   LIG    1       30.612 -20.307   7.709  0.00  0.00    +0.055 A 
ATOM     19  C   LIG    1       31.394 -19.955   8.797  0.00  0.00    +0.159 A 
ATOM     20  C   LIG    1       31.398 -18.653   9.283  0.00  0.00    +0.158 A 
ATOM     21  C   LIG    1       30.642 -17.672   8.658  0.00  0.00    +0.049 A 
ATOM     22  C   LIG    1       29.870 -18.015   7.544  0.00  0.00    +0.010 A 
BRANCH  19  23
ATOM     23  O   LIG    1       32.167 -20.913   9.387  0.00  0.00    -0.503 OA
ATOM     24  H   LIG    1       32.944 -20.424   9.722  0.00  0.00    +0.292 HD
ENDBRANCH  19  23
BRANCH  20  25
ATOM     25  O   LIG    1       32.165 -18.388  10.382  0.00  0.00    -0.503 OA
ATOM     26  H   LIG    1       32.301 -19.226  10.858  0.00  0.00    +0.292 HD
ENDBRANCH  20  25
ENDBRANCH  16  17
BRANCH  16  27
ATOM     27  O   LIG    1       28.761 -18.535   5.055  0.00  0.00    -0.386 OA
ATOM     28  H   LIG    1       28.847 -18.856   4.136  0.00  0.00    +0.210 HD
ENDBRANCH  16  27
ENDBRANCH  15  16
ENDBRANCH   1  15
TORSDOF 9
ENDMDL
MODEL 3
REMARK VINA RESULT:      -9.3      2.037      9.129
REMARK  Name = *****
REMARK                            x       y       z     vdW  Elec       q    Type
REMARK                         _______ _______ _______ _____ _____    ______ ____
ROOT
ATOM      1  N   LIG    1       28.133 -20.611   8.052  0.00  0.00    -0.310 NA
ATOM      2  H   LIG    1       28.365 -21.543   7.693  0.00  0.00    +0.122 HD
ENDROOT
BRANCH   1   4
ATOM      3  C   LIG    1       26.659 -20.545   6.111  0.00  0.00    +0.024 C 
ATOM      4  C   LIG    1       26.750 -20.276   7.623  0.00  0.00    +0.055 C 
BRANCH   4   5
ATOM      5  C   LIG    1       25.708 -21.098   8.421  0.00  0.00    +0.053 C 
BRANCH   5   6
ATOM      6  C   LIG    1       25.121 -22.313   7.732  0.00  0.00    -0.042 A 
ATOM      7  C   LIG    1       25.895 -23.472   7.598  0.00  0.00    +0.053 A 
ATOM      8  C   LIG    1       25.327 -24.566   6.985  0.00  0.00    +0.167 A 
ATOM      9  O   LIG    1       25.943 -25.752   6.765  0.00  0.00    -0.453 OA
ATOM     10  C   LIG    1       24.883 -26.486   6.113  0.00  0.00    +0.466 C 
ATOM     11  O   LIG    1       23.670 -25.725   5.963  0.00  0.00    -0.453 OA
ATOM     12  C   LIG    1       24.026 -24.545   6.537  0.00  0.00    +0.166 A 
ATOM     13  C   LIG    1       23.228 -23.434   6.678  0.00  0.00    +0.050 A 
ATOM     14  C   LIG    1       23.780 -22.304   7.287  0.00  0.00    +0.007 A 
ENDBRANCH   5   6
ENDBRANCH   4   5
ENDBRANCH   1   4
BRANCH   1  15
ATOM     15  C   LIG    1       29.142 -19.651   7.552  0.00  0.00    +0.117 C 
BRANCH  15  16
ATOM     16  C   LIG    1       30.522 -19.804   8.249  0.00  0.00    +0.158 C 
BRANCH  16  17
ATOM     17  C   LIG    1       30.958 -18.649   9.128  0.00  0.00    -0.014 A 
ATOM     18  C   LIG    1       31.818 -17.652   8.644  0.00  0.00    +0.055 A 
ATOM     19  C   LIG    1       32.190 -16.598   9.463  0.00  0.00    +0.159 A 
ATOM     20  C   LIG    1       31.731 -16.514  10.771  0.00  0.00    +0.158 A 
ATOM     21  C   LIG    1       30.857 -17.470  11.269  0.00  0.00    +0.049 A 
ATOM     22  C   LIG    1       30.457 -18.522  10.439  0.00  0.00    +0.010 A 
BRANCH  19  23
ATOM     23  O   LIG    1       33.021 -15.638   8.960  0.00  0.00    -0.503 OA
ATOM     24  H   LIG    1       32.921 -14.886   9.576  0.00  0.00    +0.292 HD
ENDBRANCH  19  23
BRANCH  20  25
ATOM     25  O   LIG    1       32.171 -15.467  11.531  0.00  0.00    -0.503 OA
ATOM     26  H   LIG    1       31.786 -14.652  11.165  0.00  0.00    +0.292 HD
ENDBRANCH  20  25
ENDBRANCH  16  17
BRANCH  16  27
ATOM     27  O   LIG    1       31.507 -20.044   7.232  0.00  0.00    -0.386 OA
ATOM     28  H   LIG    1       32.308 -19.578   7.544  0.00  0.00    +0.210 HD
ENDBRANCH  16  27
ENDBRANCH  15  16
ENDBRANCH   1  15
TORSDOF 9
ENDMDL
MODEL 4
REMARK VINA RESULT:      -9.2      1.539      2.586
REMARK  Name = *****
REMARK                            x       y       z     vdW  Elec       q    Type
REMARK                         _______ _______ _______ _____ _____    ______ ____
ROOT
ATOM      1  N   LIG    1       24.166 -21.968   4.936  0.00  0.00    -0.310 NA
ATOM      2  H   LIG    1       24.505 -22.934   4.874  0.00  0.00    +0.122 HD
ENDROOT
BRANCH   1   4
ATOM      3  C   LIG    1       24.982 -19.922   3.894  0.00  0.00    +0.024 C 
ATOM      4  C   LIG    1       25.337 -21.056   4.870  0.00  0.00    +0.055 C 
BRANCH   4   5
ATOM      5  C   LIG    1       25.701 -20.519   6.276  0.00  0.00    +0.053 C 
BRANCH   5   6
ATOM      6  C   LIG    1       27.175 -20.370   6.592  0.00  0.00    -0.042 A 
ATOM      7  C   LIG    1       27.727 -21.081   7.664  0.00  0.00    +0.053 A 
ATOM      8  C   LIG    1       29.073 -20.941   7.914  0.00  0.00    +0.167 A 
ATOM      9  O   LIG    1       29.755 -21.545   8.916  0.00  0.00    -0.453 OA
ATOM     10  C   LIG    1       31.086 -21.036   8.677  0.00  0.00    +0.466 C 
ATOM     11  O   LIG    1       31.165 -20.150   7.546  0.00  0.00    -0.453 OA
ATOM     12  C   LIG    1       29.872 -20.148   7.122  0.00  0.00    +0.166 A 
ATOM     13  C   LIG    1       29.371 -19.459   6.044  0.00  0.00    +0.050 A 
ATOM     14  C   LIG    1       28.005 -19.573   5.772  0.00  0.00    +0.007 A 
ENDBRANCH   5   6
ENDBRANCH   4   5
ENDBRANCH   1   4
BRANCH   1  15
ATOM     15  C   LIG    1       23.391 -21.823   6.189  0.00  0.00    +0.117 C 
BRANCH  15  16
ATOM     16  C   LIG    1       23.113 -23.181   6.891  0.00  0.00    +0.158 C 
BRANCH  16  17
ATOM     17  C   LIG    1       24.097 -24.296   6.601  0.00  0.00    -0.014 A 
ATOM     18  C   LIG    1       23.672 -25.515   6.052  0.00  0.00    +0.055 A 
ATOM     19  C   LIG    1       24.594 -26.514   5.782  0.00  0.00    +0.159 A 
ATOM     20  C   LIG    1       25.943 -26.334   6.057  0.00  0.00    +0.158 A 
ATOM     21  C   LIG    1       26.397 -25.128   6.573  0.00  0.00    +0.049 A 
ATOM     22  C   LIG    1       25.476 -24.107   6.824  0.00  0.00    +0.010 A 
BRANCH  19  23
ATOM     23  O   LIG    1       24.151 -27.685   5.239  0.00  0.00    -0.503 OA
ATOM     24  H   LIG    1       24.495 -28.375   5.839  0.00  0.00    +0.292 HD
ENDBRANCH  19  23
BRANCH  20  25
ATOM     25  O   LIG    1       26.788 -27.377   5.800  0.00  0.00    -0.503 OA
ATOM     26  H   LIG    1       27.699 -27.061   5.931  0.00  0.00    +0.292 HD
ENDBRANCH  20  25
ENDBRANCH  16  17
BRANCH  16  27
ATOM     27  O   LIG    1       21.785 -23.597   6.541  0.00  0.00    -0.386 OA
ATOM     28  H   LIG    1       21.325 -23.715   7.395  0.00  0.00    +0.210 HD
ENDBRANCH  16  27
ENDBRANCH  15  16
ENDBRANCH   1  15
TORSDOF 9
ENDMDL
MODEL 5
REMARK VINA RESULT:      -9.2      0.918      1.544
REMARK  Name = *****
REMARK                            x       y       z     vdW  Elec       q    Type
REMARK                         _______ _______ _______ _____ _____    ______ ____
ROOT
ATOM      1  N   LIG    1       24.775 -20.882   6.631  0.00  0.00    -0.310 NA
ATOM      2  H   LIG    1       25.071 -21.498   5.867  0.00  0.00    +0.122 HD
ENDROOT
BRANCH   1   4
ATOM      3  C   LIG    1       25.957 -20.722   8.757  0.00  0.00    +0.024 C 
ATOM      4  C   LIG    1       25.990 -20.317   7.274  0.00  0.00    +0.055 C 
BRANCH   4   5
ATOM      5  C   LIG    1       27.274 -20.815   6.565  0.00  0.00    +0.053 C 
BRANCH   5   6
ATOM      6  C   LIG    1       28.592 -20.524   7.251  0.00  0.00    -0.042 A 
ATOM      7  C   LIG    1       29.090 -19.215   7.262  0.00  0.00    +0.053 A 
ATOM      8  C   LIG    1       30.280 -18.978   7.912  0.00  0.00    +0.167 A 
ATOM      9  O   LIG    1       30.903 -17.778   8.002  0.00  0.00    -0.453 OA
ATOM     10  C   LIG    1       32.066 -18.138   8.778  0.00  0.00    +0.466 C 
ATOM     11  O   LIG    1       32.108 -19.533   9.131  0.00  0.00    -0.453 OA
ATOM     12  C   LIG    1       30.959 -19.984   8.561  0.00  0.00    +0.166 A 
ATOM     13  C   LIG    1       30.485 -21.274   8.596  0.00  0.00    +0.050 A 
ATOM     14  C   LIG    1       29.284 -21.548   7.936  0.00  0.00    +0.007 A 
ENDBRANCH   5   6
ENDBRANCH   4   5
ENDBRANCH   1   4
BRANCH   1  15
ATOM     15  C   LIG    1       23.938 -21.666   7.567  0.00  0.00    +0.117 C 
BRANCH  15  16
ATOM     16  C   LIG    1       23.257 -22.889   6.893  0.00  0.00    +0.158 C 
BRANCH  16  17
ATOM     17  C   LIG    1       24.138 -24.098   6.656  0.00  0.00    -0.014 A 
ATOM     18  C   LIG    1       23.608 -25.296   6.154  0.00  0.00    +0.055 A 
ATOM     19  C   LIG    1       24.438 -26.383   5.931  0.00  0.00    +0.159 A 
ATOM     20  C   LIG    1       25.797 -26.313   6.208  0.00  0.00    +0.158 A 
ATOM     21  C   LIG    1       26.355 -25.133   6.679  0.00  0.00    +0.049 A 
ATOM     22  C   LIG    1       25.527 -24.024   6.882  0.00  0.00    +0.010 A 
BRANCH  19  23
ATOM     23  O   LIG    1       23.894 -27.532   5.432  0.00  0.00    -0.503 OA
ATOM     24  H   LIG    1       24.662 -28.118   5.285  0.00  0.00    +0.292 HD
ENDBRANCH  19  23
BRANCH  20  25
ATOM     25  O   LIG    1       26.546 -27.437   6.000  0.00  0.00    -0.503 OA
ATOM     26  H   LIG    1       25.934 -28.184   5.883  0.00  0.00    +0.292 HD
ENDBRANCH  20  25
ENDBRANCH  16  17
BRANCH  16  27
ATOM     27  O   LIG    1       22.686 -22.448   5.652  0.00  0.00    -0.386 OA
ATOM     28  H   LIG    1       22.595 -23.260   5.115  0.00  0.00    +0.210 HD
ENDBRANCH  16  27
ENDBRANCH  15  16
ENDBRANCH   1  15
TORSDOF 9
ENDMDL
MODEL 6
REMARK VINA RESULT:      -9.1      1.069      1.535
REMARK  Name = *****
REMARK                            x       y       z     vdW  Elec       q    Type
REMARK                         _______ _______ _______ _____ _____    ______ ____
ROOT
ATOM      1  N   LIG    1       25.188 -21.215   6.400  0.00  0.00    -0.310 NA
ATOM      2  H   LIG    1       25.410 -21.326   5.405  0.00  0.00    +0.122 HD
ENDROOT
BRANCH   1   4
ATOM      3  C   LIG    1       26.166 -20.682   8.568  0.00  0.00    +0.024 C 
ATOM      4  C   LIG    1       26.307 -20.484   7.050  0.00  0.00    +0.055 C 
BRANCH   4   5
ATOM      5  C   LIG    1       27.675 -20.984   6.524  0.00  0.00    +0.053 C 
BRANCH   5   6
ATOM      6  C   LIG    1       28.904 -20.554   7.298  0.00  0.00    -0.042 A 
ATOM      7  C   LIG    1       29.273 -19.204   7.314  0.00  0.00    +0.053 A 
ATOM      8  C   LIG    1       30.383 -18.841   8.043  0.00  0.00    +0.167 A 
ATOM      9  O   LIG    1       30.880 -17.585   8.149  0.00  0.00    -0.453 OA
ATOM     10  C   LIG    1       32.011 -17.818   9.017  0.00  0.00    +0.466 C 
ATOM     11  O   LIG    1       32.159 -19.196   9.405  0.00  0.00    -0.453 OA
ATOM     12  C   LIG    1       31.104 -19.765   8.764  0.00  0.00    +0.166 A 
ATOM     13  C   LIG    1       30.754 -21.094   8.795  0.00  0.00    +0.050 A 
ATOM     14  C   LIG    1       29.637 -21.495   8.056  0.00  0.00    +0.007 A 
ENDBRANCH   5   6
ENDBRANCH   4   5
ENDBRANCH   1   4
BRANCH   1  15
ATOM     15  C   LIG    1       24.960 -22.557   6.982  0.00  0.00    +0.117 C 
BRANCH  15  16
ATOM     16  C   LIG    1       24.380 -23.571   5.958  0.00  0.00    +0.158 C 
BRANCH  16  17
ATOM     17  C   LIG    1       24.746 -25.025   6.178  0.00  0.00    -0.014 A 
ATOM     18  C   LIG    1       24.009 -26.058   5.579  0.00  0.00    +0.055 A 
ATOM     19  C   LIG    1       24.372 -27.379   5.783  0.00  0.00    +0.159 A 
ATOM     20  C   LIG    1       25.457 -27.706   6.586  0.00  0.00    +0.158 A 
ATOM     21  C   LIG    1       26.222 -26.705   7.169  0.00  0.00    +0.049 A 
ATOM     22  C   LIG    1       25.876 -25.369   6.946  0.00  0.00    +0.010 A 
BRANCH  19  23
ATOM     23  O   LIG    1       23.642 -28.361   5.178  0.00  0.00    -0.503 OA
ATOM     24  H   LIG    1       24.213 -29.153   5.228  0.00  0.00    +0.292 HD
ENDBRANCH  19  23
BRANCH  20  25
ATOM     25  O   LIG    1       25.733 -29.031   6.772  0.00  0.00    -0.503 OA
ATOM     26  H   LIG    1       25.961 -29.158   7.710  0.00  0.00    +0.292 HD
ENDBRANCH  20  25
ENDBRANCH  16  17
BRANCH  16  27
ATOM     27  O   LIG    1       24.787 -23.157   4.645  0.00  0.00    -0.386 OA
ATOM     28  H   LIG    1       24.849 -22.183   4.697  0.00  0.00    +0.210 HD
ENDBRANCH  16  27
ENDBRANCH  15  16
ENDBRANCH   1  15
TORSDOF 9
ENDMDL
MODEL 7
REMARK VINA RESULT:      -9.1      1.490      2.316
REMARK  Name = *****
REMARK                            x       y       z     vdW  Elec       q    Type
REMARK                         _______ _______ _______ _____ _____    ______ ____
ROOT
ATOM      1  N   LIG    1       23.629 -22.183   5.341  0.00  0.00    -0.310 NA
ATOM      2  H   LIG    1       23.321 -22.224   4.364  0.00  0.00    +0.122 HD
ENDROOT
BRANCH   1   4
ATOM      3  C   LIG    1       22.825 -19.912   5.713  0.00  0.00    +0.024 C 
ATOM      4  C   LIG    1       24.080 -20.797   5.632  0.00  0.00    +0.055 C 
BRANCH   4   5
ATOM      5  C   LIG    1       24.910 -20.748   6.939  0.00  0.00    +0.053 C 
BRANCH   5   6
ATOM      6  C   LIG    1       26.379 -20.407   6.804  0.00  0.00    -0.042 A 
ATOM      7  C   LIG    1       27.242 -20.633   7.883  0.00  0.00    +0.053 A 
ATOM      8  C   LIG    1       28.576 -20.333   7.724  0.00  0.00    +0.167 A 
ATOM      9  O   LIG    1       29.535 -20.478   8.670  0.00  0.00    -0.453 OA
ATOM     10  C   LIG    1       30.697 -20.020   7.945  0.00  0.00    +0.466 C 
ATOM     11  O   LIG    1       30.406 -19.617   6.594  0.00  0.00    -0.453 OA
ATOM     12  C   LIG    1       29.067 -19.849   6.533  0.00  0.00    +0.166 A 
ATOM     13  C   LIG    1       28.254 -19.642   5.443  0.00  0.00    +0.050 A 
ATOM     14  C   LIG    1       26.893 -19.928   5.578  0.00  0.00    +0.007 A 
ENDBRANCH   5   6
ENDBRANCH   4   5
ENDBRANCH   1   4
BRANCH   1  15
ATOM     15  C   LIG    1       24.695 -23.191   5.538  0.00  0.00    +0.117 C 
BRANCH  15  16
ATOM     16  C   LIG    1       24.280 -24.329   6.511  0.00  0.00    +0.158 C 
BRANCH  16  17
ATOM     17  C   LIG    1       24.767 -25.720   6.157  0.00  0.00    -0.014 A 
ATOM     18  C   LIG    1       26.025 -25.921   5.569  0.00  0.00    +0.055 A 
ATOM     19  C   LIG    1       26.455 -27.203   5.269  0.00  0.00    +0.159 A 
ATOM     20  C   LIG    1       25.652 -28.306   5.533  0.00  0.00    +0.158 A 
ATOM     21  C   LIG    1       24.415 -28.140   6.140  0.00  0.00    +0.049 A 
ATOM     22  C   LIG    1       23.987 -26.851   6.468  0.00  0.00    +0.010 A 
BRANCH  19  23
ATOM     23  O   LIG    1       27.688 -27.367   4.707  0.00  0.00    -0.503 OA
ATOM     24  H   LIG    1       28.016 -26.456   4.573  0.00  0.00    +0.292 HD
ENDBRANCH  19  23
BRANCH  20  25
ATOM     25  O   LIG    1       26.126 -29.536   5.175  0.00  0.00    -0.503 OA
ATOM     26  H   LIG    1       25.389 -30.034   4.780  0.00  0.00    +0.292 HD
ENDBRANCH  20  25
ENDBRANCH  16  17
BRANCH  16  27
ATOM     27  O   LIG    1       22.848 -24.324   6.613  0.00  0.00    -0.386 OA
ATOM     28  H   LIG    1       22.632 -25.106   7.158  0.00  0.00    +0.210 HD
ENDBRANCH  16  27
ENDBRANCH  15  16
ENDBRANCH   1  15
TORSDOF 9
ENDMDL
MODEL 8
REMARK VINA RESULT:      -9.0      1.799      7.472
REMARK  Name = *****
REMARK                            x       y       z     vdW  Elec       q    Type
REMARK                         _______ _______ _______ _____ _____    ______ ____
ROOT
ATOM      1  N   LIG    1       24.988 -20.846   5.757  0.00  0.00    -0.310 NA
ATOM      2  H   LIG    1       24.933 -20.357   4.857  0.00  0.00    +0.122 HD
ENDROOT
BRANCH   1   4
ATOM      3  C   LIG    1       22.597 -20.603   5.350  0.00  0.00    +0.024 C 
ATOM      4  C   LIG    1       23.675 -20.716   6.441  0.00  0.00    +0.055 C 
BRANCH   4   5
ATOM      5  C   LIG    1       23.421 -21.918   7.384  0.00  0.00    +0.053 C 
BRANCH   5   6
ATOM      6  C   LIG    1       24.154 -23.205   7.065  0.00  0.00    -0.042 A 
ATOM      7  C   LIG    1       23.477 -24.242   6.412  0.00  0.00    +0.053 A 
ATOM      8  C   LIG    1       24.175 -25.391   6.117  0.00  0.00    +0.167 A 
ATOM      9  O   LIG    1       23.666 -26.487   5.505  0.00  0.00    -0.453 OA
ATOM     10  C   LIG    1       24.833 -27.337   5.466  0.00  0.00    +0.466 C 
ATOM     11  O   LIG    1       26.001 -26.732   6.051  0.00  0.00    -0.453 OA
ATOM     12  C   LIG    1       25.510 -25.520   6.425  0.00  0.00    +0.166 A 
ATOM     13  C   LIG    1       26.214 -24.512   7.040  0.00  0.00    +0.050 A 
ATOM     14  C   LIG    1       25.529 -23.337   7.361  0.00  0.00    +0.007 A 
ENDBRANCH   5   6
ENDBRANCH   4   5
ENDBRANCH   1   4
BRANCH   1  15
ATOM     15  C   LIG    1       26.105 -20.267   6.537  0.00  0.00    +0.117 C 
BRANCH  15  16
ATOM     16  C   LIG    1       27.468 -20.351   5.797  0.00  0.00    +0.158 C 
BRANCH  16  17
ATOM     17  C   LIG    1       28.706 -20.216   6.661  0.00  0.00    -0.014 A 
ATOM     18  C   LIG    1       29.001 -21.157   7.660  0.00  0.00    +0.055 A 
ATOM     19  C   LIG    1       30.146 -21.020   8.427  0.00  0.00    +0.159 A 
ATOM     20  C   LIG    1       31.013 -19.953   8.231  0.00  0.00    +0.158 A 
ATOM     21  C   LIG    1       30.763 -19.023   7.232  0.00  0.00    +0.049 A 
ATOM     22  C   LIG    1       29.622 -19.169   6.438  0.00  0.00    +0.010 A 
BRANCH  19  23
ATOM     23  O   LIG    1       30.411 -21.957   9.384  0.00  0.00    -0.503 OA
ATOM     24  H   LIG    1       29.538 -22.345   9.589  0.00  0.00    +0.292 HD
ENDBRANCH  19  23
BRANCH  20  25
ATOM     25  O   LIG    1       32.103 -19.862   9.050  0.00  0.00    -0.503 OA
ATOM     26  H   LIG    1       32.896 -20.010   8.507  0.00  0.00    +0.292 HD
ENDBRANCH  20  25
ENDBRANCH  16  17
BRANCH  16  27
ATOM     27  O   LIG    1       27.477 -19.349   4.769  0.00  0.00    -0.386 OA
ATOM     28  H   LIG    1       27.537 -18.499   5.248  0.00  0.00    +0.210 HD
ENDBRANCH  16  27
ENDBRANCH  15  16
ENDBRANCH   1  15
TORSDOF 9
ENDMDL
MODEL 9
REMARK VINA RESULT:      -8.9      1.730      8.427
REMARK  Name = *****
REMARK                            x       y       z     vdW  Elec       q    Type
REMARK                         _______ _______ _______ _____ _____    ______ ____
ROOT
ATOM      1  N   LIG    1       25.857 -21.435   6.093  0.00  0.00    -0.310 NA
ATOM      2  H   LIG    1       25.233 -20.658   5.852  0.00  0.00    +0.122 HD
ENDROOT
BRANCH   1   4
ATOM      3  C   LIG    1       23.704 -21.953   7.114  0.00  0.00    +0.024 C 
ATOM      4  C   LIG    1       25.030 -22.553   6.618  0.00  0.00    +0.055 C 
BRANCH   4   5
ATOM      5  C   LIG    1       24.805 -23.633   5.530  0.00  0.00    +0.053 C 
BRANCH   5   6
ATOM      6  C   LIG    1       24.977 -25.077   5.953  0.00  0.00    -0.042 A 
ATOM      7  C   LIG    1       24.218 -26.075   5.329  0.00  0.00    +0.053 A 
ATOM      8  C   LIG    1       24.411 -27.380   5.722  0.00  0.00    +0.167 A 
ATOM      9  O   LIG    1       23.750 -28.456   5.230  0.00  0.00    -0.453 OA
ATOM     10  C   LIG    1       24.362 -29.517   5.996  0.00  0.00    +0.466 C 
ATOM     11  O   LIG    1       25.366 -29.052   6.917  0.00  0.00    -0.453 OA
ATOM     12  C   LIG    1       25.342 -27.713   6.680  0.00  0.00    +0.166 A 
ATOM     13  C   LIG    1       26.125 -26.764   7.292  0.00  0.00    +0.050 A 
ATOM     14  C   LIG    1       25.944 -25.428   6.922  0.00  0.00    +0.007 A 
ENDBRANCH   5   6
ENDBRANCH   4   5
ENDBRANCH   1   4
BRANCH   1  15
ATOM     15  C   LIG    1       26.856 -20.948   7.070  0.00  0.00    +0.117 C 
BRANCH  15  16
ATOM     16  C   LIG    1       28.269 -20.761   6.451  0.00  0.00    +0.158 C 
BRANCH  16  17
ATOM     17  C   LIG    1       29.318 -20.146   7.354  0.00  0.00    -0.014 A 
ATOM     18  C   LIG    1       30.264 -20.943   8.017  0.00  0.00    +0.055 A 
ATOM     19  C   LIG    1       31.223 -20.355   8.826  0.00  0.00    +0.159 A 
ATOM     20  C   LIG    1       31.260 -18.978   9.004  0.00  0.00    +0.158 A 
ATOM     21  C   LIG    1       30.356 -18.162   8.339  0.00  0.00    +0.049 A 
ATOM     22  C   LIG    1       29.401 -18.747   7.502  0.00  0.00    +0.010 A 
BRANCH  19  23
ATOM     23  O   LIG    1       32.136 -21.156   9.449  0.00  0.00    -0.503 OA
ATOM     24  H   LIG    1       32.995 -20.879   9.075  0.00  0.00    +0.292 HD
ENDBRANCH  19  23
BRANCH  20  25
ATOM     25  O   LIG    1       32.210 -18.473   9.846  0.00  0.00    -0.503 OA
ATOM     26  H   LIG    1       32.188 -17.503   9.771  0.00  0.00    +0.292 HD
ENDBRANCH  20  25
ENDBRANCH  16  17
BRANCH  16  27
ATOM     27  O   LIG    1       28.128 -19.976   5.258  0.00  0.00    -0.386 OA
ATOM     28  H   LIG    1       27.218 -20.151   4.947  0.00  0.00    +0.210 HD
ENDBRANCH  16  27
ENDBRANCH  15  16
ENDBRANCH   1  15
TORSDOF 9
ENDMDL
