MODEL 1
REMARK VINA RESULT:      -8.5      0.000      0.000
REMARK  Name = *****
REMARK                            x       y       z     vdW  Elec       q    Type
REMARK                         _______ _______ _______ _____ _____    ______ ____
ROOT
ATOM      1  O   LIG    1       31.611 -19.586   7.699  0.00  0.00    -0.251 OA
ATOM      2  C   LIG    1       30.428 -19.770   7.450  0.00  0.00    +0.341 C 
ATOM      3  N   LIG    1       29.453 -20.146   8.369  0.00  0.00    -0.005 NA
ATOM      4  C   LIG    1       28.343 -20.238   7.696  0.00  0.00    +0.370 C 
ATOM      5  N   LIG    1       28.436 -19.977   6.369  0.00  0.00    -0.212 N 
ATOM      6  C   LIG    1       27.360 -19.900   5.422  0.00  0.00    +0.228 C 
ATOM      7  C   LIG    1       26.035 -20.310   6.027  0.00  0.00    +0.040 A 
ATOM      8  C   LIG    1       25.971 -20.624   7.401  0.00  0.00    +0.099 A 
ATOM      9  C   LIG    1       24.752 -20.995   7.975  0.00  0.00    +0.042 A 
ATOM     10  C   LIG    1       23.594 -21.053   7.200  0.00  0.00    +0.025 A 
ATOM     11  C   LIG    1       23.645 -20.742   5.840  0.00  0.00    +0.060 A 
ATOM     12 CL   LIG    1       22.165 -20.836   4.950  0.00  0.00    -0.082 Cl
ATOM     13  C   LIG    1       24.861 -20.368   5.249  0.00  0.00    +0.068 A 
ATOM     14 CL   LIG    1       24.933 -19.970   3.559  0.00  0.00    -0.082 Cl
ATOM     15  N   LIG    1       27.129 -20.570   8.186  0.00  0.00    -0.207 N 
ATOM     16  H   LIG    1       27.072 -20.778   9.173  0.00  0.00    +0.251 HD
ATOM     17  C   LIG    1       29.797 -19.607   6.057  0.00  0.00    +0.305 C 
ENDROOT
TORSDOF 0
ENDMDL
MODEL 2
REMARK VINA RESULT:      -8.2      1.398      2.404
REMARK  Name = *****
REMARK                            x       y       z     vdW  Elec       q    Type
REMARK                         _______ _______ _______ _____ _____    ______ ____
ROOT
ATOM      1  O   LIG    1       31.388 -19.927   7.669  0.00  0.00    -0.251 OA
ATOM      2  C   LIG    1       30.240 -20.014   7.258  0.00  0.00    +0.341 C 
ATOM      3  N   LIG    1       29.786 -19.584   6.014  0.00  0.00    -0.005 NA
ATOM      4  C   LIG    1       28.514 -19.855   5.984  0.00  0.00    +0.370 C 
ATOM      5  N   LIG    1       28.008 -20.429   7.102  0.00  0.00    -0.212 N 
ATOM      6  C   LIG    1       26.675 -20.926   7.295  0.00  0.00    +0.228 C 
ATOM      7  C   LIG    1       25.769 -20.603   6.127  0.00  0.00    +0.040 A 
ATOM      8  C   LIG    1       26.308 -19.961   4.993  0.00  0.00    +0.099 A 
ATOM      9  C   LIG    1       25.484 -19.665   3.903  0.00  0.00    +0.042 A 
ATOM     10  C   LIG    1       24.131 -20.003   3.927  0.00  0.00    +0.025 A 
ATOM     11  C   LIG    1       23.588 -20.641   5.043  0.00  0.00    +0.060 A 
ATOM     12 CL   LIG    1       21.903 -21.029   4.992  0.00  0.00    -0.082 Cl
ATOM     13  C   LIG    1       24.402 -20.945   6.145  0.00  0.00    +0.068 A 
ATOM     14 CL   LIG    1       23.737 -21.746   7.535  0.00  0.00    -0.082 Cl
ATOM     15  N   LIG    1       27.664 -19.617   4.962  0.00  0.00    -0.207 N 
ATOM     16  H   LIG    1       28.047 -19.174   4.138  0.00  0.00    +0.251 HD
ATOM     17  C   LIG    1       29.078 -20.633   8.051  0.00  0.00    +0.305 C 
ENDROOT
TORSDOF 0
ENDMDL
MODEL 3
REMARK VINA RESULT:      -7.3      1.577      2.510
REMARK  Name = *****
REMARK                            x       y       z     vdW  Elec       q    Type
REMARK                         _______ _______ _______ _____ _____    ______ ____
ROOT
ATOM      1  O   LIG    1       32.085 -20.435   8.956  0.00  0.00    -0.251 OA
ATOM      2  C   LIG    1       30.998 -20.482   8.400  0.00  0.00    +0.341 C 
ATOM      3  N   LIG    1       30.637 -19.771   7.259  0.00  0.00    -0.005 NA
ATOM      4  C   LIG    1       29.404 -20.101   7.006  0.00  0.00    +0.370 C 
ATOM      5  N   LIG    1       28.839 -20.976   7.874  0.00  0.00    -0.212 N 
ATOM      6  C   LIG    1       27.543 -21.586   7.772  0.00  0.00    +0.228 C 
ATOM      7  C   LIG    1       26.736 -21.025   6.621  0.00  0.00    +0.040 A 
ATOM      8  C   LIG    1       27.329 -20.079   5.759  0.00  0.00    +0.099 A 
ATOM      9  C   LIG    1       26.597 -19.560   4.687  0.00  0.00    +0.042 A 
ATOM     10  C   LIG    1       25.285 -19.974   4.460  0.00  0.00    +0.025 A 
ATOM     11  C   LIG    1       24.690 -20.911   5.305  0.00  0.00    +0.060 A 
ATOM     12 CL   LIG    1       23.061 -21.374   4.953  0.00  0.00    -0.082 Cl
ATOM     13  C   LIG    1       25.411 -21.442   6.386  0.00  0.00    +0.068 A 
ATOM     14 CL   LIG    1       24.681 -22.616   7.438  0.00  0.00    -0.082 Cl
ATOM     15  N   LIG    1       28.645 -19.658   5.981  0.00  0.00    -0.207 N 
ATOM     16  H   LIG    1       29.068 -18.994   5.348  0.00  0.00    +0.251 HD
ATOM     17  C   LIG    1       29.820 -21.355   8.864  0.00  0.00    +0.305 C 
ENDROOT
TORSDOF 0
ENDMDL
MODEL 4
REMARK VINA RESULT:      -7.2      4.164      5.925
REMARK  Name = *****
REMARK                            x       y       z     vdW  Elec       q    Type
REMARK                         _______ _______ _______ _____ _____    ______ ____
ROOT
ATOM      1  O   LIG    1       23.049 -23.476   6.457  0.00  0.00    -0.251 OA
ATOM      2  C   LIG    1       24.107 -22.865   6.500  0.00  0.00    +0.341 C 
ATOM      3  N   LIG    1       24.437 -21.753   5.730  0.00  0.00    -0.005 NA
ATOM      4  C   LIG    1       25.645 -21.421   6.079  0.00  0.00    +0.370 C 
ATOM      5  N   LIG    1       26.221 -22.204   7.023  0.00  0.00    -0.212 N 
ATOM      6  C   LIG    1       27.491 -22.001   7.662  0.00  0.00    +0.228 C 
ATOM      7  C   LIG    1       28.261 -20.849   7.054  0.00  0.00    +0.040 A 
ATOM      8  C   LIG    1       27.658 -20.077   6.039  0.00  0.00    +0.099 A 
ATOM      9  C   LIG    1       28.355 -19.004   5.474  0.00  0.00    +0.042 A 
ATOM     10  C   LIG    1       29.641 -18.688   5.911  0.00  0.00    +0.025 A 
ATOM     11  C   LIG    1       30.245 -19.443   6.917  0.00  0.00    +0.060 A 
ATOM     12 CL   LIG    1       31.840 -18.984   7.403  0.00  0.00    -0.082 Cl
ATOM     13  C   LIG    1       29.559 -20.523   7.493  0.00  0.00    +0.068 A 
ATOM     14 CL   LIG    1       30.300 -21.465   8.752  0.00  0.00    -0.082 Cl
ATOM     15  N   LIG    1       26.369 -20.389   5.594  0.00  0.00    -0.207 N 
ATOM     16  H   LIG    1       25.937 -19.819   4.879  0.00  0.00    +0.251 HD
ATOM     17  C   LIG    1       25.277 -23.216   7.435  0.00  0.00    +0.305 C 
ENDROOT
TORSDOF 0
ENDMDL
MODEL 5
REMARK VINA RESULT:      -6.8      3.855      5.598
REMARK  Name = *****
REMARK                            x       y       z     vdW  Elec       q    Type
REMARK                         _______ _______ _______ _____ _____    ______ ____
ROOT
ATOM      1  O   LIG    1       21.618 -21.191   4.712  0.00  0.00    -0.251 OA
ATOM      2  C   LIG    1       22.779 -21.062   5.073  0.00  0.00    +0.341 C 
ATOM      3  N   LIG    1       23.423 -21.832   6.036  0.00  0.00    -0.005 NA
ATOM      4  C   LIG    1       24.633 -21.364   6.120  0.00  0.00    +0.370 C 
ATOM      5  N   LIG    1       24.914 -20.313   5.312  0.00  0.00    -0.212 N 
ATOM      6  C   LIG    1       26.189 -19.678   5.125  0.00  0.00    +0.228 C 
ATOM      7  C   LIG    1       27.238 -20.210   6.076  0.00  0.00    +0.040 A 
ATOM      8  C   LIG    1       26.908 -21.274   6.942  0.00  0.00    +0.099 A 
ATOM      9  C   LIG    1       27.871 -21.781   7.820  0.00  0.00    +0.042 A 
ATOM     10  C   LIG    1       29.159 -21.246   7.844  0.00  0.00    +0.025 A 
ATOM     11  C   LIG    1       29.496 -20.196   6.989  0.00  0.00    +0.060 A 
ATOM     12 CL   LIG    1       31.114 -19.591   7.078  0.00  0.00    -0.082 Cl
ATOM     13  C   LIG    1       28.542 -19.675   6.102  0.00  0.00    +0.068 A 
ATOM     14 CL   LIG    1       28.955 -18.374   5.028  0.00  0.00    -0.082 Cl
ATOM     15  N   LIG    1       25.618 -21.815   6.927  0.00  0.00    -0.207 N 
ATOM     16  H   LIG    1       25.395 -22.589   7.537  0.00  0.00    +0.251 HD
ATOM     17  C   LIG    1       23.752 -20.013   4.509  0.00  0.00    +0.305 C 
ENDROOT
TORSDOF 0
ENDMDL
MODEL 6
REMARK VINA RESULT:      -6.7      5.927      6.737
REMARK  Name = *****
REMARK                            x       y       z     vdW  Elec       q    Type
REMARK                         _______ _______ _______ _____ _____    ______ ____
ROOT
ATOM      1  O   LIG    1       25.512 -29.785   4.982  0.00  0.00    -0.251 OA
ATOM      2  C   LIG    1       25.335 -28.623   5.319  0.00  0.00    +0.341 C 
ATOM      3  N   LIG    1       24.101 -27.993   5.447  0.00  0.00    -0.005 NA
ATOM      4  C   LIG    1       24.359 -26.771   5.815  0.00  0.00    +0.370 C 
ATOM      5  N   LIG    1       25.672 -26.462   5.948  0.00  0.00    -0.212 N 
ATOM      6  C   LIG    1       26.228 -25.233   6.440  0.00  0.00    +0.228 C 
ATOM      7  C   LIG    1       25.168 -24.179   6.676  0.00  0.00    +0.040 A 
ATOM      8  C   LIG    1       23.811 -24.510   6.484  0.00  0.00    +0.099 A 
ATOM      9  C   LIG    1       22.821 -23.548   6.707  0.00  0.00    +0.042 A 
ATOM     10  C   LIG    1       23.165 -22.262   7.121  0.00  0.00    +0.025 A 
ATOM     11  C   LIG    1       24.505 -21.924   7.316  0.00  0.00    +0.060 A 
ATOM     12 CL   LIG    1       24.848 -20.310   7.834  0.00  0.00    -0.082 Cl
ATOM     13  C   LIG    1       25.511 -22.878   7.097  0.00  0.00    +0.068 A 
ATOM     14 CL   LIG    1       27.181 -22.470   7.346  0.00  0.00    -0.082 Cl
ATOM     15  N   LIG    1       23.457 -25.798   6.067  0.00  0.00    -0.207 N 
ATOM     16  H   LIG    1       22.481 -26.033   5.950  0.00  0.00    +0.251 HD
ATOM     17  C   LIG    1       26.462 -27.639   5.675  0.00  0.00    +0.305 C 
ENDROOT
TORSDOF 0
ENDMDL
MODEL 7
REMARK VINA RESULT:      -6.1      5.639      6.658
REMARK  Name = *****
REMARK                            x       y       z     vdW  Elec       q    Type
REMARK                         _______ _______ _______ _____ _____    ______ ____
ROOT
ATOM      1  O   LIG    1       25.671 -29.824   5.157  0.00  0.00    -0.251 OA
ATOM      2  C   LIG    1       25.504 -28.653   5.464  0.00  0.00    +0.341 C 
ATOM      3  N   LIG    1       26.509 -27.746   5.788  0.00  0.00    -0.005 NA
ATOM      4  C   LIG    1       25.905 -26.625   6.057  0.00  0.00    +0.370 C 
ATOM      5  N   LIG    1       24.553 -26.648   5.970  0.00  0.00    -0.212 N 
ATOM      6  C   LIG    1       23.655 -25.536   6.106  0.00  0.00    +0.228 C 
ATOM      7  C   LIG    1       24.370 -24.272   6.534  0.00  0.00    +0.040 A 
ATOM      8  C   LIG    1       25.774 -24.284   6.664  0.00  0.00    +0.099 A 
ATOM      9  C   LIG    1       26.448 -23.121   7.049  0.00  0.00    +0.042 A 
ATOM     10  C   LIG    1       25.741 -21.946   7.302  0.00  0.00    +0.025 A 
ATOM     11  C   LIG    1       24.352 -21.922   7.173  0.00  0.00    +0.060 A 
ATOM     12 CL   LIG    1       23.551 -20.425   7.501  0.00  0.00    -0.082 Cl
ATOM     13  C   LIG    1       23.661 -23.081   6.787  0.00  0.00    +0.068 A 
ATOM     14 CL   LIG    1       21.932 -23.059   6.616  0.00  0.00    -0.082 Cl
ATOM     15  N   LIG    1       26.490 -25.461   6.414  0.00  0.00    -0.207 N 
ATOM     16  H   LIG    1       27.498 -25.456   6.492  0.00  0.00    +0.251 HD
ATOM     17  C   LIG    1       24.133 -27.961   5.540  0.00  0.00    +0.305 C 
ENDROOT
TORSDOF 0
ENDMDL
MODEL 8
REMARK VINA RESULT:      -5.8      6.425      7.155
REMARK  Name = *****
REMARK                            x       y       z     vdW  Elec       q    Type
REMARK                         _______ _______ _______ _____ _____    ______ ____
ROOT
ATOM      1  O   LIG    1       25.438 -20.834   5.946  0.00  0.00    -0.251 OA
ATOM      2  C   LIG    1       25.373 -22.053   6.013  0.00  0.00    +0.341 C 
ATOM      3  N   LIG    1       24.809 -22.890   5.055  0.00  0.00    -0.005 NA
ATOM      4  C   LIG    1       24.940 -24.100   5.515  0.00  0.00    +0.370 C 
ATOM      5  N   LIG    1       25.535 -24.207   6.728  0.00  0.00    -0.212 N 
ATOM      6  C   LIG    1       25.900 -25.415   7.412  0.00  0.00    +0.228 C 
ATOM      7  C   LIG    1       25.399 -26.651   6.697  0.00  0.00    +0.040 A 
ATOM      8  C   LIG    1       24.739 -26.512   5.458  0.00  0.00    +0.099 A 
ATOM      9  C   LIG    1       24.280 -27.647   4.783  0.00  0.00    +0.042 A 
ATOM     10  C   LIG    1       24.473 -28.918   5.323  0.00  0.00    +0.025 A 
ATOM     11  C   LIG    1       25.127 -29.067   6.546  0.00  0.00    +0.060 A 
ATOM     12 CL   LIG    1       25.328 -30.677   7.146  0.00  0.00    -0.082 Cl
ATOM     13  C   LIG    1       25.594 -27.939   7.237  0.00  0.00    +0.068 A 
ATOM     14 CL   LIG    1       26.417 -28.115   8.757  0.00  0.00    -0.082 Cl
ATOM     15  N   LIG    1       24.540 -25.240   4.910  0.00  0.00    -0.207 N 
ATOM     16  H   LIG    1       24.083 -25.150   4.014  0.00  0.00    +0.251 HD
ATOM     17  C   LIG    1       25.919 -22.890   7.180  0.00  0.00    +0.305 C 
ENDROOT
TORSDOF 0
ENDMDL
MODEL 9
REMARK VINA RESULT:      -5.7      8.628      9.407
REMARK  Name = *****
REMARK                            x       y       z     vdW  Elec       q    Type
REMARK                         _______ _______ _______ _____ _____    ______ ____
ROOT
ATOM      1  O   LIG    1       25.001 -23.733   5.170  0.00  0.00    -0.251 OA
ATOM      2  C   LIG    1       24.997 -24.882   5.588  0.00  0.00    +0.341 C 
ATOM      3  N   LIG    1       24.241 -25.932   5.076  0.00  0.00    -0.005 NA
ATOM      4  C   LIG    1       24.526 -26.969   5.807  0.00  0.00    +0.370 C 
ATOM      5  N   LIG    1       25.410 -26.755   6.812  0.00  0.00    -0.212 N 
ATOM      6  C   LIG    1       25.977 -27.738   7.692  0.00  0.00    +0.228 C 
ATOM      7  C   LIG    1       25.357 -29.104   7.501  0.00  0.00    +0.040 A 
ATOM      8  C   LIG    1       24.403 -29.292   6.479  0.00  0.00    +0.099 A 
ATOM      9  C   LIG    1       23.829 -30.552   6.285  0.00  0.00    +0.042 A 
ATOM     10  C   LIG    1       24.195 -31.628   7.092  0.00  0.00    +0.025 A 
ATOM     11  C   LIG    1       25.141 -31.454   8.104  0.00  0.00    +0.060 A 
ATOM     12 CL   LIG    1       25.543 -32.839   9.059  0.00  0.00    -0.082 Cl
ATOM     13  C   LIG    1       25.726 -30.196   8.312  0.00  0.00    +0.068 A 
ATOM     14 CL   LIG    1       26.910 -29.972   9.564  0.00  0.00    -0.082 Cl
ATOM     15  N   LIG    1       24.028 -28.216   5.666  0.00  0.00    -0.207 N 
ATOM     16  H   LIG    1       23.357 -28.363   4.924  0.00  0.00    +0.251 HD
ATOM     17  C   LIG    1       25.849 -25.380   6.767  0.00  0.00    +0.305 C 
ENDROOT
TORSDOF 0
ENDMDL
