MODEL 1
REMARK VINA RESULT:      -5.2      0.000      0.000
REMARK  Name = *****
REMARK                            x       y       z     vdW  Elec       q    Type
REMARK                         _______ _______ _______ _____ _____    ______ ____
ROOT
ATOM      1  C   LIG    1       27.191 -30.389   9.055  0.00  0.00    +0.014 C 
ATOM      2  C   LIG    1       27.257 -29.676  10.431  0.00  0.00    -0.005 C 
ATOM      3  C   LIG    1       27.286 -28.095  10.276  0.00  0.00    +0.127 C 
ATOM      4  C   LIG    1       27.367 -27.486  11.682  0.00  0.00    +0.033 C 
ATOM      5  C   LIG    1       26.161 -27.852  12.554  0.00  0.00    +0.010 C 
ATOM      6  C   LIG    1       25.949 -29.386  12.735  0.00  0.00    -0.018 C 
ATOM      7  C   LIG    1       27.038 -29.910  13.698  0.00  0.00    +0.012 C 
ATOM      8  C   LIG    1       24.510 -29.641  13.299  0.00  0.00    +0.073 C 
ATOM      9  C   LIG    1       24.106 -28.857  14.527  0.00  0.00    +0.160 C 
ATOM     10  C   LIG    1       22.650 -28.623  14.597  0.00  0.00    +0.046 C 
ATOM     11  C   LIG    1       21.828 -29.613  14.186  0.00  0.00    -0.056 C 
ATOM     12  C   LIG    1       22.414 -31.063  14.029  0.00  0.00    -0.004 C 
ATOM     13  C   LIG    1       22.354 -31.613  15.500  0.00  0.00    +0.016 C 
ATOM     14  C   LIG    1       21.475 -31.982  13.204  0.00  0.00    +0.012 C 
ATOM     15  C   LIG    1       19.995 -31.844  13.571  0.00  0.00    +0.008 C 
ATOM     16  C   LIG    1       19.494 -30.407  13.333  0.00  0.00    -0.025 C 
ATOM     17  C   LIG    1       19.592 -30.106  11.811  0.00  0.00    +0.012 C 
ATOM     18  C   LIG    1       18.027 -30.310  13.812  0.00  0.00    +0.008 C 
ATOM     19  C   LIG    1       17.423 -28.930  13.573  0.00  0.00    +0.018 C 
ATOM     20  C   LIG    1       18.282 -27.716  14.005  0.00  0.00    +0.065 C 
ATOM     21  C   LIG    1       18.019 -27.421  15.500  0.00  0.00    +0.023 C 
ATOM     22  C   LIG    1       19.821 -27.955  13.831  0.00  0.00    +0.026 C 
ATOM     23  C   LIG    1       20.302 -29.396  14.195  0.00  0.00    +0.022 C 
ATOM     24  O   LIG    1       24.860 -28.392  15.369  0.00  0.00    -0.292 OA
ATOM     25  C   LIG    1       23.984 -31.106  13.435  0.00  0.00    -0.013 C 
ATOM     26  C   LIG    1       24.856 -32.005  14.350  0.00  0.00    +0.013 C 
ATOM     27  C   LIG    1       24.134 -31.700  11.992  0.00  0.00    +0.008 C 
ATOM     28  C   LIG    1       25.552 -31.535  11.361  0.00  0.00    +0.005 C 
ATOM     29  C   LIG    1       25.986 -30.050  11.305  0.00  0.00    +0.004 C 
ATOM     30  C   LIG    1       28.619 -30.124  11.017  0.00  0.00    +0.014 C 
ENDROOT
BRANCH  20  31
ATOM     31  C   LIG    1       17.892 -26.427  13.251  0.00  0.00    +0.311 C 
ATOM     32  O   LIG    1       16.719 -26.031  13.191  0.00  0.00    -0.250 OA
BRANCH  31  33
ATOM     33  O   LIG    1       18.849 -25.722  12.630  0.00  0.00    -0.480 OA
ATOM     34  H   LIG    1       18.735 -24.760  12.502  0.00  0.00    +0.295 HD
ENDBRANCH  31  33
ENDBRANCH  20  31
BRANCH   3  35
ATOM     35  O   LIG    1       26.126 -27.627   9.580  0.00  0.00    -0.345 OA
BRANCH  35  36
ATOM     36  C   LIG    1       26.028 -27.873   8.165  0.00  0.00    +0.283 C 
ATOM     37  C   LIG    1       26.232 -26.624   7.209  0.00  0.00    +0.208 C 
ATOM     38  C   LIG    1       25.981 -27.193   5.798  0.00  0.00    +0.180 C 
ATOM     39  C   LIG    1       24.516 -27.641   5.709  0.00  0.00    +0.185 C 
ATOM     40  C   LIG    1       24.177 -28.732   6.723  0.00  0.00    +0.260 C 
ATOM     41  O   LIG    1       25.133 -28.935   7.767  0.00  0.00    -0.332 OA
BRANCH  38  42
ATOM     42  O   LIG    1       26.876 -28.267   5.511  0.00  0.00    -0.386 OA
ATOM     43  H   LIG    1       26.535 -28.726   4.719  0.00  0.00    +0.210 HD
ENDBRANCH  38  42
BRANCH  39  44
ATOM     44  O   LIG    1       23.640 -26.520   5.926  0.00  0.00    -0.386 OA
ATOM     45  H   LIG    1       23.588 -26.008   5.091  0.00  0.00    +0.210 HD
ENDBRANCH  39  44
BRANCH  40  46
ATOM     46  C   LIG    1       23.892 -30.027   5.928  0.00  0.00    +0.337 C 
ATOM     47  O   LIG    1       23.170 -30.904   6.307  0.00  0.00    -0.248 OA
BRANCH  46  48
ATOM     48  O   LIG    1       24.475 -30.047   4.704  0.00  0.00    -0.479 OA
ATOM     49  H   LIG    1       23.824 -30.255   4.004  0.00  0.00    +0.295 HD
ENDBRANCH  46  48
ENDBRANCH  40  46
BRANCH  37  50
ATOM     50  O   LIG    1       25.436 -25.410   7.459  0.00  0.00    -0.338 OA
BRANCH  50  51
ATOM     51  C   LIG    1       25.714 -24.322   6.512  0.00  0.00    +0.283 C 
ATOM     52  C   LIG    1       24.513 -23.876   5.628  0.00  0.00    +0.201 C 
ATOM     53  C   LIG    1       23.490 -23.054   6.411  0.00  0.00    +0.179 C 
ATOM     54  C   LIG    1       24.099 -22.434   7.683  0.00  0.00    +0.185 C 
ATOM     55  C   LIG    1       25.549 -22.049   7.379  0.00  0.00    +0.260 C 
ATOM     56  O   LIG    1       26.371 -23.227   7.167  0.00  0.00    -0.332 OA
BRANCH  52  57
ATOM     57  O   LIG    1       25.028 -23.045   4.560  0.00  0.00    -0.384 OA
ATOM     58  H   LIG    1       24.800 -22.120   4.771  0.00  0.00    +0.210 HD
ENDBRANCH  52  57
BRANCH  53  59
ATOM     59  O   LIG    1       22.378 -23.901   6.722  0.00  0.00    -0.386 OA
ATOM     60  H   LIG    1       22.485 -24.732   6.225  0.00  0.00    +0.210 HD
ENDBRANCH  53  59
BRANCH  54  61
ATOM     61  O   LIG    1       23.247 -21.354   8.068  0.00  0.00    -0.386 OA
ATOM     62  H   LIG    1       23.542 -21.027   8.942  0.00  0.00    +0.210 HD
ENDBRANCH  54  61
BRANCH  55  63
ATOM     63  C   LIG    1       26.204 -21.331   8.561  0.00  0.00    +0.337 C 
ATOM     64  O   LIG    1       25.632 -20.997   9.579  0.00  0.00    -0.248 OA
BRANCH  63  65
ATOM     65  O   LIG    1       27.528 -21.083   8.345  0.00  0.00    -0.479 OA
ATOM     66  H   LIG    1       27.995 -21.942   8.360  0.00  0.00    +0.295 HD
ENDBRANCH  63  65
ENDBRANCH  55  63
ENDBRANCH  50  51
ENDBRANCH  37  50
ENDBRANCH  35  36
ENDBRANCH   3  35
TORSDOF 15
ENDMDL
