MODEL 1
REMARK VINA RESULT:      -9.1      0.000      0.000
REMARK  Name = *****
REMARK                            x       y       z     vdW  Elec       q    Type
REMARK                         _______ _______ _______ _____ _____    ______ ____
ROOT
ATOM      1  C   LIG    1       29.585 -20.381   7.702  0.00  0.00    +0.019 A 
ATOM      2  C   LIG    1       28.271 -20.877   7.770  0.00  0.00    +0.035 A 
ATOM      3  C   LIG    1       27.294 -20.637   6.776  0.00  0.00    +0.049 A 
ATOM      4  N   LIG    1       25.967 -21.167   6.853  0.00  0.00    -0.298 N 
ATOM      5  C   LIG    1       24.880 -20.753   6.019  0.00  0.00    +0.048 A 
ATOM      6  C   LIG    1       25.075 -19.884   4.922  0.00  0.00    +0.034 A 
ATOM      7  S   LIG    1       26.667 -19.336   4.365  0.00  0.00    -0.086 S 
ATOM      8  C   LIG    1       23.993 -19.415   4.148  0.00  0.00    +0.017 A 
ATOM      9  C   LIG    1       22.693 -19.808   4.426  0.00  0.00    +0.001 A 
ATOM     10  C   LIG    1       22.470 -20.684   5.474  0.00  0.00    +0.002 A 
ATOM     11  C   LIG    1       23.542 -21.147   6.252  0.00  0.00    +0.024 A 
ATOM     12  C   LIG    1       27.711 -19.813   5.714  0.00  0.00    +0.034 A 
ATOM     13  C   LIG    1       29.028 -19.307   5.641  0.00  0.00    +0.017 A 
ATOM     14  C   LIG    1       29.968 -19.596   6.621  0.00  0.00    +0.012 A 
ENDROOT
BRANCH   1  16
ATOM     15  C   LIG    1       30.962 -22.108   9.041  0.00  0.00    +0.091 C 
ATOM     16  C   LIG    1       30.534 -20.669   8.811  0.00  0.00    +0.160 C 
ATOM     17  O   LIG    1       30.926 -19.760   9.520  0.00  0.00    -0.292 OA
ENDBRANCH   1  16
BRANCH   4  18
ATOM     18  C   LIG    1       25.707 -22.273   7.830  0.00  0.00    +0.112 C 
BRANCH  18  19
ATOM     19  C   LIG    1       26.184 -23.640   7.304  0.00  0.00    +0.035 C 
BRANCH  19  20
ATOM     20  C   LIG    1       25.333 -24.220   6.147  0.00  0.00    +0.086 C 
BRANCH  20  21
ATOM     21  N   LIG    1       25.874 -25.387   5.431  0.00  0.00    -0.300 NA
ATOM     22  C   LIG    1       26.651 -26.329   6.257  0.00  0.00    +0.100 C 
ATOM     23  C   LIG    1       25.850 -27.320   7.123  0.00  0.00    +0.100 C 
ATOM     24  N   LIG    1       24.843 -28.111   6.397  0.00  0.00    -0.298 NA
ATOM     25  C   LIG    1       24.030 -27.192   5.572  0.00  0.00    +0.100 C 
ATOM     26  C   LIG    1       24.818 -26.152   4.722  0.00  0.00    +0.100 C 
BRANCH  24  27
ATOM     27  C   LIG    1       25.406 -29.227   5.614  0.00  0.00    +0.112 C 
BRANCH  27  28
ATOM     28  C   LIG    1       24.764 -30.595   5.922  0.00  0.00    +0.171 C 
BRANCH  28  29
ATOM     29  O   LIG    1       23.372 -30.584   5.616  0.00  0.00    -0.394 OA
ATOM     30  H   LIG    1       23.269 -30.103   4.778  0.00  0.00    +0.209 HD
ENDBRANCH  28  29
ENDBRANCH  27  28
ENDBRANCH  24  27
ENDBRANCH  20  21
ENDBRANCH  19  20
ENDBRANCH  18  19
ENDBRANCH   4  18
TORSDOF 8
ENDMDL
MODEL 2
REMARK VINA RESULT:      -7.8      2.687      7.919
REMARK  Name = *****
REMARK                            x       y       z     vdW  Elec       q    Type
REMARK                         _______ _______ _______ _____ _____    ______ ____
ROOT
ATOM      1  C   LIG    1       25.260 -25.069   6.324  0.00  0.00    +0.019 A 
ATOM      2  C   LIG    1       25.678 -23.804   5.874  0.00  0.00    +0.035 A 
ATOM      3  C   LIG    1       24.811 -22.694   5.754  0.00  0.00    +0.049 A 
ATOM      4  N   LIG    1       25.258 -21.408   5.313  0.00  0.00    -0.298 N 
ATOM      5  C   LIG    1       24.390 -20.334   4.934  0.00  0.00    +0.048 A 
ATOM      6  C   LIG    1       22.992 -20.408   5.125  0.00  0.00    +0.034 A 
ATOM      7  S   LIG    1       22.178 -21.737   5.971  0.00  0.00    -0.086 S 
ATOM      8  C   LIG    1       22.130 -19.383   4.681  0.00  0.00    +0.017 A 
ATOM      9  C   LIG    1       22.630 -18.251   4.056  0.00  0.00    +0.001 A 
ATOM     10  C   LIG    1       23.997 -18.132   3.883  0.00  0.00    +0.002 A 
ATOM     11  C   LIG    1       24.858 -19.153   4.315  0.00  0.00    +0.024 A 
ATOM     12  C   LIG    1       23.464 -22.950   6.072  0.00  0.00    +0.034 A 
ATOM     13  C   LIG    1       23.036 -24.219   6.521  0.00  0.00    +0.017 A 
ATOM     14  C   LIG    1       23.928 -25.274   6.659  0.00  0.00    +0.012 A 
ENDROOT
BRANCH   1  16
ATOM     15  C   LIG    1       26.229 -27.087   7.613  0.00  0.00    +0.091 C 
ATOM     16  C   LIG    1       26.245 -26.183   6.394  0.00  0.00    +0.160 C 
ATOM     17  O   LIG    1       27.052 -26.330   5.494  0.00  0.00    -0.292 OA
ENDBRANCH   1  16
BRANCH   4  18
ATOM     18  C   LIG    1       26.733 -21.142   5.302  0.00  0.00    +0.112 C 
BRANCH  18  19
ATOM     19  C   LIG    1       27.243 -20.629   6.661  0.00  0.00    +0.035 C 
BRANCH  19  20
ATOM     20  C   LIG    1       28.742 -20.905   6.937  0.00  0.00    +0.086 C 
BRANCH  20  21
ATOM     21  N   LIG    1       29.270 -20.509   8.253  0.00  0.00    -0.300 NA
ATOM     22  C   LIG    1       30.704 -20.778   8.464  0.00  0.00    +0.100 C 
ATOM     23  C   LIG    1       31.697 -19.777   7.843  0.00  0.00    +0.100 C 
ATOM     24  N   LIG    1       31.465 -18.367   8.194  0.00  0.00    -0.298 NA
ATOM     25  C   LIG    1       30.036 -18.058   7.974  0.00  0.00    +0.100 C 
ATOM     26  C   LIG    1       29.014 -19.079   8.554  0.00  0.00    +0.100 C 
BRANCH  24  27
ATOM     27  C   LIG    1       31.920 -18.002   9.548  0.00  0.00    +0.112 C 
BRANCH  27  28
ATOM     28  C   LIG    1       32.056 -16.483   9.776  0.00  0.00    +0.171 C 
BRANCH  28  29
ATOM     29  O   LIG    1       32.791 -15.873   8.718  0.00  0.00    -0.394 OA
ATOM     30  H   LIG    1       32.401 -14.996   8.568  0.00  0.00    +0.209 HD
ENDBRANCH  28  29
ENDBRANCH  27  28
ENDBRANCH  24  27
ENDBRANCH  20  21
ENDBRANCH  19  20
ENDBRANCH  18  19
ENDBRANCH   4  18
TORSDOF 8
ENDMDL
MODEL 3
REMARK VINA RESULT:      -6.9      2.143      4.857
REMARK  Name = *****
REMARK                            x       y       z     vdW  Elec       q    Type
REMARK                         _______ _______ _______ _____ _____    ______ ____
ROOT
ATOM      1  C   LIG    1       24.826 -20.116   4.340  0.00  0.00    +0.019 A 
ATOM      2  C   LIG    1       25.486 -20.667   5.452  0.00  0.00    +0.035 A 
ATOM      3  C   LIG    1       26.751 -20.228   5.905  0.00  0.00    +0.049 A 
ATOM      4  N   LIG    1       27.400 -20.788   7.052  0.00  0.00    -0.298 N 
ATOM      5  C   LIG    1       28.770 -20.564   7.398  0.00  0.00    +0.048 A 
ATOM      6  C   LIG    1       29.564 -19.620   6.708  0.00  0.00    +0.034 A 
ATOM      7  S   LIG    1       28.940 -18.521   5.465  0.00  0.00    -0.086 S 
ATOM      8  C   LIG    1       30.935 -19.455   6.999  0.00  0.00    +0.017 A 
ATOM      9  C   LIG    1       31.550 -20.203   7.991  0.00  0.00    +0.001 A 
ATOM     10  C   LIG    1       30.793 -21.112   8.708  0.00  0.00    +0.002 A 
ATOM     11  C   LIG    1       29.431 -21.287   8.417  0.00  0.00    +0.024 A 
ATOM     12  C   LIG    1       27.346 -19.216   5.128  0.00  0.00    +0.034 A 
ATOM     13  C   LIG    1       26.691 -18.660   4.007  0.00  0.00    +0.017 A 
ATOM     14  C   LIG    1       25.432 -19.095   3.618  0.00  0.00    +0.012 A 
ENDROOT
BRANCH   1  16
ATOM     15  C   LIG    1       22.277 -20.271   4.731  0.00  0.00    +0.091 C 
ATOM     16  C   LIG    1       23.504 -20.663   3.928  0.00  0.00    +0.160 C 
ATOM     17  O   LIG    1       23.437 -21.424   2.981  0.00  0.00    -0.292 OA
ENDBRANCH   1  16
BRANCH   4  18
ATOM     18  C   LIG    1       26.576 -21.619   7.989  0.00  0.00    +0.112 C 
BRANCH  18  19
ATOM     19  C   LIG    1       26.673 -23.123   7.673  0.00  0.00    +0.035 C 
BRANCH  19  20
ATOM     20  C   LIG    1       25.614 -23.644   6.670  0.00  0.00    +0.086 C 
BRANCH  20  21
ATOM     21  N   LIG    1       26.018 -24.734   5.767  0.00  0.00    -0.300 NA
ATOM     22  C   LIG    1       26.666 -25.885   6.420  0.00  0.00    +0.100 C 
ATOM     23  C   LIG    1       25.741 -26.901   7.117  0.00  0.00    +0.100 C 
ATOM     24  N   LIG    1       24.654 -27.434   6.280  0.00  0.00    -0.298 NA
ATOM     25  C   LIG    1       23.968 -26.300   5.625  0.00  0.00    +0.100 C 
ATOM     26  C   LIG    1       24.885 -25.237   4.951  0.00  0.00    +0.100 C 
BRANCH  24  27
ATOM     27  C   LIG    1       25.087 -28.465   5.319  0.00  0.00    +0.112 C 
BRANCH  27  28
ATOM     28  C   LIG    1       24.559 -29.879   5.636  0.00  0.00    +0.171 C 
BRANCH  28  29
ATOM     29  O   LIG    1       23.138 -29.926   5.533  0.00  0.00    -0.394 OA
ATOM     30  H   LIG    1       22.858 -29.113   5.080  0.00  0.00    +0.209 HD
ENDBRANCH  28  29
ENDBRANCH  27  28
ENDBRANCH  24  27
ENDBRANCH  20  21
ENDBRANCH  19  20
ENDBRANCH  18  19
ENDBRANCH   4  18
TORSDOF 8
ENDMDL
MODEL 4
REMARK VINA RESULT:      -6.8      4.284     10.427
REMARK  Name = *****
REMARK                            x       y       z     vdW  Elec       q    Type
REMARK                         _______ _______ _______ _____ _____    ______ ____
ROOT
ATOM      1  C   LIG    1       26.725 -32.829   4.431  0.00  0.00    +0.019 A 
ATOM      2  C   LIG    1       25.822 -31.982   5.097  0.00  0.00    +0.035 A 
ATOM      3  C   LIG    1       25.850 -31.754   6.491  0.00  0.00    +0.049 A 
ATOM      4  N   LIG    1       24.935 -30.871   7.150  0.00  0.00    -0.298 N 
ATOM      5  C   LIG    1       24.756 -30.800   8.569  0.00  0.00    +0.048 A 
ATOM      6  C   LIG    1       25.604 -31.498   9.459  0.00  0.00    +0.034 A 
ATOM      7  S   LIG    1       27.045 -32.398   8.952  0.00  0.00    -0.086 S 
ATOM      8  C   LIG    1       25.380 -31.490  10.852  0.00  0.00    +0.017 A 
ATOM      9  C   LIG    1       24.325 -30.778  11.401  0.00  0.00    +0.001 A 
ATOM     10  C   LIG    1       23.495 -30.057  10.560  0.00  0.00    +0.002 A 
ATOM     11  C   LIG    1       23.709 -30.069   9.173  0.00  0.00    +0.024 A 
ATOM     12  C   LIG    1       26.827 -32.481   7.197  0.00  0.00    +0.034 A 
ATOM     13  C   LIG    1       27.735 -33.338   6.535  0.00  0.00    +0.017 A 
ATOM     14  C   LIG    1       27.696 -33.506   5.158  0.00  0.00    +0.012 A 
ENDROOT
BRANCH   1  16
ATOM     15  C   LIG    1       27.669 -33.823   2.242  0.00  0.00    +0.091 C 
ATOM     16  C   LIG    1       26.598 -33.022   2.960  0.00  0.00    +0.160 C 
ATOM     17  O   LIG    1       25.663 -32.518   2.366  0.00  0.00    -0.292 OA
ENDBRANCH   1  16
BRANCH   4  18
ATOM     18  C   LIG    1       24.153 -29.912   6.305  0.00  0.00    +0.112 C 
BRANCH  18  19
ATOM     19  C   LIG    1       25.044 -28.820   5.686  0.00  0.00    +0.035 C 
BRANCH  19  20
ATOM     20  C   LIG    1       24.974 -27.446   6.398  0.00  0.00    +0.086 C 
BRANCH  20  21
ATOM     21  N   LIG    1       25.116 -26.244   5.561  0.00  0.00    -0.300 NA
ATOM     22  C   LIG    1       23.889 -25.445   5.392  0.00  0.00    +0.100 C 
ATOM     23  C   LIG    1       23.505 -24.506   6.551  0.00  0.00    +0.100 C 
ATOM     24  N   LIG    1       24.567 -23.583   6.985  0.00  0.00    -0.298 NA
ATOM     25  C   LIG    1       25.810 -24.357   7.184  0.00  0.00    +0.100 C 
ATOM     26  C   LIG    1       26.194 -25.346   6.044  0.00  0.00    +0.100 C 
BRANCH  24  27
ATOM     27  C   LIG    1       24.758 -22.425   6.091  0.00  0.00    +0.112 C 
BRANCH  27  28
ATOM     28  C   LIG    1       24.321 -21.080   6.705  0.00  0.00    +0.171 C 
BRANCH  28  29
ATOM     29  O   LIG    1       23.508 -21.287   7.857  0.00  0.00    -0.394 OA
ATOM     30  H   LIG    1       22.583 -21.262   7.561  0.00  0.00    +0.209 HD
ENDBRANCH  28  29
ENDBRANCH  27  28
ENDBRANCH  24  27
ENDBRANCH  20  21
ENDBRANCH  19  20
ENDBRANCH  18  19
ENDBRANCH   4  18
TORSDOF 8
ENDMDL
MODEL 5
REMARK VINA RESULT:      -6.6      2.606      6.914
REMARK  Name = *****
REMARK                            x       y       z     vdW  Elec       q    Type
REMARK                         _______ _______ _______ _____ _____    ______ ____
ROOT
ATOM      1  C   LIG    1       25.135 -25.064   6.255  0.00  0.00    +0.019 A 
ATOM      2  C   LIG    1       25.490 -23.806   5.738  0.00  0.00    +0.035 A 
ATOM      3  C   LIG    1       24.593 -22.716   5.655  0.00  0.00    +0.049 A 
ATOM      4  N   LIG    1       24.977 -21.435   5.143  0.00  0.00    -0.298 N 
ATOM      5  C   LIG    1       24.060 -20.390   4.804  0.00  0.00    +0.048 A 
ATOM      6  C   LIG    1       22.683 -20.485   5.105  0.00  0.00    +0.034 A 
ATOM      7  S   LIG    1       21.965 -21.803   6.049  0.00  0.00    -0.086 S 
ATOM      8  C   LIG    1       21.767 -19.490   4.701  0.00  0.00    +0.017 A 
ATOM      9  C   LIG    1       22.193 -18.368   4.007  0.00  0.00    +0.001 A 
ATOM     10  C   LIG    1       23.540 -18.228   3.725  0.00  0.00    +0.002 A 
ATOM     11  C   LIG    1       24.453 -19.219   4.117  0.00  0.00    +0.024 A 
ATOM     12  C   LIG    1       23.280 -22.987   6.085  0.00  0.00    +0.034 A 
ATOM     13  C   LIG    1       22.916 -24.250   6.601  0.00  0.00    +0.017 A 
ATOM     14  C   LIG    1       23.837 -25.283   6.699  0.00  0.00    +0.012 A 
ENDROOT
BRANCH   1  16
ATOM     15  C   LIG    1       26.074 -27.184   7.394  0.00  0.00    +0.091 C 
ATOM     16  C   LIG    1       26.146 -26.156   6.279  0.00  0.00    +0.160 C 
ATOM     17  O   LIG    1       27.016 -26.190   5.428  0.00  0.00    -0.292 OA
ENDBRANCH   1  16
BRANCH   4  18
ATOM     18  C   LIG    1       26.441 -21.142   5.010  0.00  0.00    +0.112 C 
BRANCH  18  19
ATOM     19  C   LIG    1       26.913 -20.065   6.004  0.00  0.00    +0.035 C 
BRANCH  19  20
ATOM     20  C   LIG    1       28.174 -19.283   5.560  0.00  0.00    +0.086 C 
BRANCH  20  21
ATOM     21  N   LIG    1       29.482 -19.850   5.924  0.00  0.00    -0.300 NA
ATOM     22  C   LIG    1       30.408 -18.921   6.596  0.00  0.00    +0.100 C 
ATOM     23  C   LIG    1       30.178 -18.673   8.098  0.00  0.00    +0.100 C 
ATOM     24  N   LIG    1       30.106 -19.887   8.928  0.00  0.00    -0.298 NA
ATOM     25  C   LIG    1       29.167 -20.835   8.292  0.00  0.00    +0.100 C 
ATOM     26  C   LIG    1       29.354 -21.068   6.764  0.00  0.00    +0.100 C 
BRANCH  24  27
ATOM     27  C   LIG    1       31.418 -20.497   9.215  0.00  0.00    +0.112 C 
BRANCH  27  28
ATOM     28  C   LIG    1       31.362 -22.018   9.464  0.00  0.00    +0.171 C 
BRANCH  28  29
ATOM     29  O   LIG    1       32.191 -22.716   8.539  0.00  0.00    -0.394 OA
ATOM     30  H   LIG    1       33.068 -22.800   8.949  0.00  0.00    +0.209 HD
ENDBRANCH  28  29
ENDBRANCH  27  28
ENDBRANCH  24  27
ENDBRANCH  20  21
ENDBRANCH  19  20
ENDBRANCH  18  19
ENDBRANCH   4  18
TORSDOF 8
ENDMDL
MODEL 6
REMARK VINA RESULT:      -6.1      4.662      9.848
REMARK  Name = *****
REMARK                            x       y       z     vdW  Elec       q    Type
REMARK                         _______ _______ _______ _____ _____    ______ ____
ROOT
ATOM      1  C   LIG    1       25.203 -29.787  11.230  0.00  0.00    +0.019 A 
ATOM      2  C   LIG    1       25.115 -29.618   9.837  0.00  0.00    +0.035 A 
ATOM      3  C   LIG    1       25.203 -30.686   8.915  0.00  0.00    +0.049 A 
ATOM      4  N   LIG    1       25.091 -30.499   7.501  0.00  0.00    -0.298 N 
ATOM      5  C   LIG    1       25.423 -31.490   6.523  0.00  0.00    +0.048 A 
ATOM      6  C   LIG    1       25.741 -32.817   6.890  0.00  0.00    +0.034 A 
ATOM      7  S   LIG    1       25.623 -33.440   8.546  0.00  0.00    -0.086 S 
ATOM      8  C   LIG    1       26.142 -33.773   5.933  0.00  0.00    +0.017 A 
ATOM      9  C   LIG    1       26.222 -33.447   4.588  0.00  0.00    +0.001 A 
ATOM     10  C   LIG    1       25.885 -32.165   4.191  0.00  0.00    +0.002 A 
ATOM     11  C   LIG    1       25.493 -31.208   5.140  0.00  0.00    +0.024 A 
ATOM     12  C   LIG    1       25.440 -31.951   9.486  0.00  0.00    +0.034 A 
ATOM     13  C   LIG    1       25.534 -32.127  10.884  0.00  0.00    +0.017 A 
ATOM     14  C   LIG    1       25.405 -31.056  11.757  0.00  0.00    +0.012 A 
ENDROOT
BRANCH   1  16
ATOM     15  C   LIG    1       23.936 -28.474  13.059  0.00  0.00    +0.091 C 
ATOM     16  C   LIG    1       25.121 -28.595  12.118  0.00  0.00    +0.160 C 
ATOM     17  O   LIG    1       25.983 -27.737  12.055  0.00  0.00    -0.292 OA
ENDBRANCH   1  16
BRANCH   4  18
ATOM     18  C   LIG    1       24.532 -29.198   7.007  0.00  0.00    +0.112 C 
BRANCH  18  19
ATOM     19  C   LIG    1       25.616 -28.298   6.383  0.00  0.00    +0.035 C 
BRANCH  19  20
ATOM     20  C   LIG    1       25.638 -26.846   6.921  0.00  0.00    +0.086 C 
BRANCH  20  21
ATOM     21  N   LIG    1       25.542 -25.759   5.932  0.00  0.00    -0.300 NA
ATOM     22  C   LIG    1       24.171 -25.361   5.564  0.00  0.00    +0.100 C 
ATOM     23  C   LIG    1       23.427 -24.437   6.547  0.00  0.00    +0.100 C 
ATOM     24  N   LIG    1       24.150 -23.209   6.919  0.00  0.00    -0.298 NA
ATOM     25  C   LIG    1       25.526 -23.576   7.313  0.00  0.00    +0.100 C 
ATOM     26  C   LIG    1       26.281 -24.545   6.357  0.00  0.00    +0.100 C 
BRANCH  24  27
ATOM     27  C   LIG    1       24.119 -22.158   5.884  0.00  0.00    +0.112 C 
BRANCH  27  28
ATOM     28  C   LIG    1       22.926 -21.189   6.010  0.00  0.00    +0.171 C 
BRANCH  28  29
ATOM     29  O   LIG    1       21.912 -21.505   5.059  0.00  0.00    -0.394 OA
ATOM     30  H   LIG    1       22.270 -21.293   4.181  0.00  0.00    +0.209 HD
ENDBRANCH  28  29
ENDBRANCH  27  28
ENDBRANCH  24  27
ENDBRANCH  20  21
ENDBRANCH  19  20
ENDBRANCH  18  19
ENDBRANCH   4  18
TORSDOF 8
ENDMDL
MODEL 7
REMARK VINA RESULT:      -6.1      7.771      9.766
REMARK  Name = *****
REMARK                            x       y       z     vdW  Elec       q    Type
REMARK                         _______ _______ _______ _____ _____    ______ ____
ROOT
ATOM      1  C   LIG    1       22.324 -29.734  11.829  0.00  0.00    +0.019 A 
ATOM      2  C   LIG    1       23.650 -29.397  12.150  0.00  0.00    +0.035 A 
ATOM      3  C   LIG    1       24.004 -28.261  12.913  0.00  0.00    +0.049 A 
ATOM      4  N   LIG    1       25.359 -27.944  13.248  0.00  0.00    -0.298 N 
ATOM      5  C   LIG    1       25.789 -26.691  13.790  0.00  0.00    +0.048 A 
ATOM      6  C   LIG    1       24.865 -25.703  14.196  0.00  0.00    +0.034 A 
ATOM      7  S   LIG    1       23.108 -25.944  14.228  0.00  0.00    -0.086 S 
ATOM      8  C   LIG    1       25.289 -24.439  14.658  0.00  0.00    +0.017 A 
ATOM      9  C   LIG    1       26.637 -24.127  14.747  0.00  0.00    +0.001 A 
ATOM     10  C   LIG    1       27.569 -25.084  14.387  0.00  0.00    +0.002 A 
ATOM     11  C   LIG    1       27.152 -26.340  13.919  0.00  0.00    +0.024 A 
ATOM     12  C   LIG    1       22.927 -27.440  13.299  0.00  0.00    +0.034 A 
ATOM     13  C   LIG    1       21.592 -27.770  12.976  0.00  0.00    +0.017 A 
ATOM     14  C   LIG    1       21.285 -28.915  12.255  0.00  0.00    +0.012 A 
ENDROOT
BRANCH   1  16
ATOM     15  C   LIG    1       22.218 -32.308  11.640  0.00  0.00    +0.091 C 
ATOM     16  C   LIG    1       22.055 -30.940  11.000  0.00  0.00    +0.160 C 
ATOM     17  O   LIG    1       21.739 -30.810   9.832  0.00  0.00    -0.292 OA
ENDBRANCH   1  16
BRANCH   4  18
ATOM     18  C   LIG    1       26.394 -29.016  13.077  0.00  0.00    +0.112 C 
BRANCH  18  19
ATOM     19  C   LIG    1       27.041 -28.983  11.680  0.00  0.00    +0.035 C 
BRANCH  19  20
ATOM     20  C   LIG    1       26.939 -30.310  10.888  0.00  0.00    +0.086 C 
BRANCH  20  21
ATOM     21  N   LIG    1       27.095 -30.237   9.426  0.00  0.00    -0.300 NA
ATOM     22  C   LIG    1       26.882 -31.504   8.705  0.00  0.00    +0.100 C 
ATOM     23  C   LIG    1       25.421 -31.926   8.456  0.00  0.00    +0.100 C 
ATOM     24  N   LIG    1       24.580 -30.910   7.803  0.00  0.00    -0.298 NA
ATOM     25  C   LIG    1       24.755 -29.627   8.516  0.00  0.00    +0.100 C 
ATOM     26  C   LIG    1       26.222 -29.202   8.818  0.00  0.00    +0.100 C 
BRANCH  24  27
ATOM     27  C   LIG    1       24.807 -30.785   6.351  0.00  0.00    +0.112 C 
BRANCH  27  28
ATOM     28  C   LIG    1       24.450 -29.399   5.777  0.00  0.00    +0.171 C 
BRANCH  28  29
ATOM     29  O   LIG    1       23.105 -29.376   5.305  0.00  0.00    -0.394 OA
ATOM     30  H   LIG    1       23.032 -28.628   4.689  0.00  0.00    +0.209 HD
ENDBRANCH  28  29
ENDBRANCH  27  28
ENDBRANCH  24  27
ENDBRANCH  20  21
ENDBRANCH  19  20
ENDBRANCH  18  19
ENDBRANCH   4  18
TORSDOF 8
ENDMDL
