MODEL 1
REMARK VINA RESULT:      -2.7      0.000      0.000
REMARK  Name = *****
REMARK                            x       y       z     vdW  Elec       q    Type
REMARK                         _______ _______ _______ _____ _____    ______ ____
ROOT
ATOM      1  C   LIG    1       25.076 -14.796   3.739  0.00  0.00    +0.094 C 
ATOM      2  C   LIG    1       25.404 -14.225   5.146  0.00  0.00    +0.038 C 
ATOM      3  C   LIG    1       26.297 -12.972   5.188  0.00  0.00    +0.085 C 
ATOM      4  N   LIG    1       27.696 -13.361   5.009  0.00  0.00    -0.305 NA
ATOM      5  C   LIG    1       28.596 -12.589   5.866  0.00  0.00    +0.105 C 
ATOM      6  C   LIG    1       28.173 -13.338   3.625  0.00  0.00    +0.084 C 
ATOM      7  C   LIG    1       27.171 -13.750   2.548  0.00  0.00    +0.017 C 
ATOM      8  C   LIG    1       26.372 -15.010   2.889  0.00  0.00    +0.024 C 
ENDROOT
BRANCH   1   9
ATOM      9  C   LIG    1       24.318 -16.147   3.936  0.00  0.00    -0.031 A 
ATOM     10  C   LIG    1       24.930 -17.382   3.640  0.00  0.00    +0.005 A 
ATOM     11  C   LIG    1       24.248 -18.595   3.779  0.00  0.00    +0.000 A 
ATOM     12  C   LIG    1       22.939 -18.609   4.242  0.00  0.00    +0.000 A 
ATOM     13  C   LIG    1       22.320 -17.410   4.580  0.00  0.00    +0.000 A 
ATOM     14  C   LIG    1       23.003 -16.194   4.439  0.00  0.00    +0.005 A 
ENDBRANCH   1   9
BRANCH   1  15
ATOM     15  C   LIG    1       24.158 -13.779   2.996  0.00  0.00    +0.318 C 
ATOM     16  O   LIG    1       23.809 -13.868   1.830  0.00  0.00    -0.250 OA
BRANCH  15  17
ATOM     17  O   LIG    1       23.818 -12.742   3.824  0.00  0.00    -0.464 OA
BRANCH  17  19
ATOM     18  C   LIG    1       24.381 -11.447   1.873  0.00  0.00    +0.048 C 
ATOM     19  C   LIG    1       23.690 -11.449   3.220  0.00  0.00    +0.229 C 
ENDBRANCH  17  19
ENDBRANCH  15  17
ENDBRANCH   1  15
TORSDOF 4
ENDMDL
MODEL 2
REMARK VINA RESULT:      -2.5      2.087      3.737
REMARK  Name = *****
REMARK                            x       y       z     vdW  Elec       q    Type
REMARK                         _______ _______ _______ _____ _____    ______ ____
ROOT
ATOM      1  C   LIG    1       25.694 -15.295   3.638  0.00  0.00    +0.094 C 
ATOM      2  C   LIG    1       25.363 -14.718   2.233  0.00  0.00    +0.038 C 
ATOM      3  C   LIG    1       25.449 -13.189   2.080  0.00  0.00    +0.085 C 
ATOM      4  N   LIG    1       24.241 -12.574   2.627  0.00  0.00    -0.305 NA
ATOM      5  C   LIG    1       23.780 -11.447   1.815  0.00  0.00    +0.105 C 
ATOM      6  C   LIG    1       24.329 -12.177   4.034  0.00  0.00    +0.084 C 
ATOM      7  C   LIG    1       25.150 -13.085   4.950  0.00  0.00    +0.017 C 
ATOM      8  C   LIG    1       24.873 -14.578   4.761  0.00  0.00    +0.024 C 
ENDROOT
BRANCH   1   9
ATOM      9  C   LIG    1       25.375 -16.823   3.615  0.00  0.00    -0.031 A 
ATOM     10  C   LIG    1       24.056 -17.301   3.749  0.00  0.00    +0.005 A 
ATOM     11  C   LIG    1       23.765 -18.668   3.766  0.00  0.00    +0.000 A 
ATOM     12  C   LIG    1       24.785 -19.600   3.624  0.00  0.00    +0.000 A 
ATOM     13  C   LIG    1       26.093 -19.160   3.450  0.00  0.00    +0.000 A 
ATOM     14  C   LIG    1       26.386 -17.789   3.436  0.00  0.00    +0.005 A 
ENDBRANCH   1   9
BRANCH   1  15
ATOM     15  C   LIG    1       27.212 -15.075   3.916  0.00  0.00    +0.318 C 
ATOM     16  O   LIG    1       27.876 -15.705   4.722  0.00  0.00    -0.250 OA
BRANCH  15  17
ATOM     17  O   LIG    1       27.698 -14.047   3.152  0.00  0.00    -0.464 OA
BRANCH  17  19
ATOM     18  C   LIG    1       28.409 -12.359   4.716  0.00  0.00    +0.048 C 
ATOM     19  C   LIG    1       28.844 -13.352   3.660  0.00  0.00    +0.229 C 
ENDBRANCH  17  19
ENDBRANCH  15  17
ENDBRANCH   1  15
TORSDOF 4
ENDMDL
MODEL 3
REMARK VINA RESULT:      -1.7      1.254      1.914
REMARK  Name = *****
REMARK                            x       y       z     vdW  Elec       q    Type
REMARK                         _______ _______ _______ _____ _____    ______ ____
ROOT
ATOM      1  C   LIG    1       25.368 -14.951   3.770  0.00  0.00    +0.094 C 
ATOM      2  C   LIG    1       26.411 -14.726   4.900  0.00  0.00    +0.038 C 
ATOM      3  C   LIG    1       26.984 -13.304   5.033  0.00  0.00    +0.085 C 
ATOM      4  N   LIG    1       28.021 -13.097   4.022  0.00  0.00    -0.305 NA
ATOM      5  C   LIG    1       29.154 -12.332   4.544  0.00  0.00    +0.105 C 
ATOM      6  C   LIG    1       27.552 -12.511   2.765  0.00  0.00    +0.084 C 
ATOM      7  C   LIG    1       26.162 -12.930   2.291  0.00  0.00    +0.017 C 
ATOM      8  C   LIG    1       25.895 -14.434   2.391  0.00  0.00    +0.024 C 
ENDROOT
BRANCH   1   9
ATOM      9  C   LIG    1       25.058 -16.480   3.702  0.00  0.00    -0.031 A 
ATOM     10  C   LIG    1       23.768 -16.980   3.970  0.00  0.00    +0.005 A 
ATOM     11  C   LIG    1       23.489 -18.350   3.947  0.00  0.00    +0.000 A 
ATOM     12  C   LIG    1       24.490 -19.260   3.631  0.00  0.00    +0.000 A 
ATOM     13  C   LIG    1       25.764 -18.795   3.324  0.00  0.00    +0.000 A 
ATOM     14  C   LIG    1       26.044 -17.421   3.349  0.00  0.00    +0.005 A 
ENDBRANCH   1   9
BRANCH   1  15
ATOM     15  C   LIG    1       24.072 -14.164   4.132  0.00  0.00    +0.318 C 
ATOM     16  O   LIG    1       23.123 -14.620   4.748  0.00  0.00    -0.250 OA
BRANCH  15  17
ATOM     17  O   LIG    1       24.125 -12.890   3.632  0.00  0.00    -0.464 OA
BRANCH  17  19
ATOM     18  C   LIG    1       24.119 -11.461   5.571  0.00  0.00    +0.048 C 
ATOM     19  C   LIG    1       23.369 -11.891   4.328  0.00  0.00    +0.229 C 
ENDBRANCH  17  19
ENDBRANCH  15  17
ENDBRANCH   1  15
TORSDOF 4
ENDMDL
MODEL 4
REMARK VINA RESULT:      -1.0      2.460      4.221
REMARK  Name = *****
REMARK                            x       y       z     vdW  Elec       q    Type
REMARK                         _______ _______ _______ _____ _____    ______ ____
ROOT
ATOM      1  C   LIG    1       25.549 -15.613   3.670  0.00  0.00    +0.094 C 
ATOM      2  C   LIG    1       25.237 -14.965   2.292  0.00  0.00    +0.038 C 
ATOM      3  C   LIG    1       25.599 -13.478   2.135  0.00  0.00    +0.085 C 
ATOM      4  N   LIG    1       24.570 -12.653   2.767  0.00  0.00    -0.305 NA
ATOM      5  C   LIG    1       24.276 -11.448   1.990  0.00  0.00    +0.105 C 
ATOM      6  C   LIG    1       24.830 -12.301   4.164  0.00  0.00    +0.084 C 
ATOM      7  C   LIG    1       25.526 -13.359   5.019  0.00  0.00    +0.017 C 
ATOM      8  C   LIG    1       24.959 -14.770   4.848  0.00  0.00    +0.024 C 
ENDROOT
BRANCH   1   9
ATOM      9  C   LIG    1       24.947 -17.054   3.668  0.00  0.00    -0.031 A 
ATOM     10  C   LIG    1       23.601 -17.288   4.015  0.00  0.00    +0.005 A 
ATOM     11  C   LIG    1       23.062 -18.577   4.052  0.00  0.00    +0.000 A 
ATOM     12  C   LIG    1       23.850 -19.671   3.718  0.00  0.00    +0.000 A 
ATOM     13  C   LIG    1       25.171 -19.470   3.333  0.00  0.00    +0.000 A 
ATOM     14  C   LIG    1       25.712 -18.177   3.299  0.00  0.00    +0.005 A 
ENDBRANCH   1   9
BRANCH   1  15
ATOM     15  C   LIG    1       27.097 -15.688   3.839  0.00  0.00    +0.318 C 
ATOM     16  O   LIG    1       27.862 -14.744   3.728  0.00  0.00    -0.250 OA
BRANCH  15  17
ATOM     17  O   LIG    1       27.493 -16.974   4.096  0.00  0.00    -0.464 OA
BRANCH  17  19
ATOM     18  C   LIG    1       28.802 -18.577   5.327  0.00  0.00    +0.048 C 
ATOM     19  C   LIG    1       28.687 -17.139   4.871  0.00  0.00    +0.229 C 
ENDBRANCH  17  19
ENDBRANCH  15  17
ENDBRANCH   1  15
TORSDOF 4
ENDMDL
MODEL 5
REMARK VINA RESULT:      -0.1      3.295      6.163
REMARK  Name = *****
REMARK                            x       y       z     vdW  Elec       q    Type
REMARK                         _______ _______ _______ _____ _____    ______ ____
ROOT
ATOM      1  C   LIG    1       24.048 -18.561   4.417  0.00  0.00    +0.094 C 
ATOM      2  C   LIG    1       25.506 -19.095   4.487  0.00  0.00    +0.038 C 
ATOM      3  C   LIG    1       25.681 -20.554   4.943  0.00  0.00    +0.085 C 
ATOM      4  N   LIG    1       25.573 -20.628   6.400  0.00  0.00    -0.305 NA
ATOM      5  C   LIG    1       26.533 -21.572   6.975  0.00  0.00    +0.105 C 
ATOM      6  C   LIG    1       24.228 -20.904   6.909  0.00  0.00    +0.084 C 
ATOM      7  C   LIG    1       23.064 -20.288   6.134  0.00  0.00    +0.017 C 
ATOM      8  C   LIG    1       23.275 -18.821   5.752  0.00  0.00    +0.024 C 
ENDROOT
BRANCH   1   9
ATOM      9  C   LIG    1       24.113 -17.031   4.109  0.00  0.00    -0.031 A 
ATOM     10  C   LIG    1       25.230 -16.458   3.468  0.00  0.00    +0.005 A 
ATOM     11  C   LIG    1       25.313 -15.084   3.221  0.00  0.00    +0.000 A 
ATOM     12  C   LIG    1       24.268 -14.245   3.586  0.00  0.00    +0.000 A 
ATOM     13  C   LIG    1       23.135 -14.786   4.185  0.00  0.00    +0.000 A 
ATOM     14  C   LIG    1       23.052 -16.163   4.435  0.00  0.00    +0.005 A 
ENDBRANCH   1   9
BRANCH   1  15
ATOM     15  C   LIG    1       23.307 -19.301   3.262  0.00  0.00    +0.318 C 
ATOM     16  O   LIG    1       23.694 -20.324   2.721  0.00  0.00    -0.250 OA
BRANCH  15  17
ATOM     17  O   LIG    1       22.170 -18.624   2.906  0.00  0.00    -0.464 OA
BRANCH  17  19
ATOM     18  C   LIG    1       19.784 -18.299   2.935  0.00  0.00    +0.048 C 
ATOM     19  C   LIG    1       20.963 -18.987   3.588  0.00  0.00    +0.229 C 
ENDBRANCH  17  19
ENDBRANCH  15  17
ENDBRANCH   1  15
TORSDOF 4
ENDMDL
MODEL 6
REMARK VINA RESULT:       0.3      3.888      7.075
REMARK  Name = *****
REMARK                            x       y       z     vdW  Elec       q    Type
REMARK                         _______ _______ _______ _____ _____    ______ ____
ROOT
ATOM      1  C   LIG    1       24.922 -18.790   4.136  0.00  0.00    +0.094 C 
ATOM      2  C   LIG    1       23.728 -18.915   5.124  0.00  0.00    +0.038 C 
ATOM      3  C   LIG    1       23.231 -20.340   5.424  0.00  0.00    +0.085 C 
ATOM      4  N   LIG    1       22.384 -20.805   4.327  0.00  0.00    -0.305 NA
ATOM      5  C   LIG    1       21.233 -21.571   4.807  0.00  0.00    +0.105 C 
ATOM      6  C   LIG    1       23.083 -21.549   3.277  0.00  0.00    +0.084 C 
ATOM      7  C   LIG    1       24.502 -21.092   2.943  0.00  0.00    +0.017 C 
ATOM      8  C   LIG    1       24.654 -19.575   2.810  0.00  0.00    +0.024 C 
ENDROOT
BRANCH   1   9
ATOM      9  C   LIG    1       25.141 -17.272   3.841  0.00  0.00    -0.031 A 
ATOM     10  C   LIG    1       26.356 -16.795   3.309  0.00  0.00    +0.005 A 
ATOM     11  C   LIG    1       26.575 -15.434   3.075  0.00  0.00    +0.000 A 
ATOM     12  C   LIG    1       25.574 -14.511   3.345  0.00  0.00    +0.000 A 
ATOM     13  C   LIG    1       24.350 -14.954   3.834  0.00  0.00    +0.000 A 
ATOM     14  C   LIG    1       24.130 -16.318   4.071  0.00  0.00    +0.005 A 
ENDBRANCH   1   9
BRANCH   1  15
ATOM     15  C   LIG    1       26.190 -19.384   4.819  0.00  0.00    +0.318 C 
ATOM     16  O   LIG    1       27.339 -19.052   4.577  0.00  0.00    -0.250 OA
BRANCH  15  17
ATOM     17  O   LIG    1       25.843 -20.365   5.710  0.00  0.00    -0.464 OA
BRANCH  17  19
ATOM     18  C   LIG    1       27.476 -21.523   7.051  0.00  0.00    +0.048 C 
ATOM     19  C   LIG    1       26.516 -20.355   6.975  0.00  0.00    +0.229 C 
ENDBRANCH  17  19
ENDBRANCH  15  17
ENDBRANCH   1  15
TORSDOF 4
ENDMDL
