MODEL 1
REMARK VINA RESULT:      -4.1      0.000      0.000
REMARK  Name = *****
REMARK                            x       y       z     vdW  Elec       q    Type
REMARK                         _______ _______ _______ _____ _____    ______ ____
ROOT
ATOM      1  O   LIG    1       23.447 -29.638  10.609  0.00  0.00    -0.340 OA
ENDROOT
BRANCH   1   6
ATOM      2  C   LIG    1       22.078 -31.888  13.311  0.00  0.00    +0.178 C 
ATOM      3  C   LIG    1       21.475 -30.670  14.228  0.00  0.00    +0.181 C 
ATOM      4  C   LIG    1       21.703 -29.350  13.446  0.00  0.00    +0.183 C 
ATOM      5  C   LIG    1       21.354 -29.639  11.910  0.00  0.00    +0.205 C 
ATOM      6  C   LIG    1       22.455 -30.473  11.266  0.00  0.00    +0.282 C 
ATOM      7  O   LIG    1       23.047 -31.364  12.296  0.00  0.00    -0.341 OA
BRANCH   2   8
ATOM      8  C   LIG    1       22.526 -33.489  13.767  0.00  0.00    +0.194 C 
BRANCH   8   9
ATOM      9  O   LIG    1       23.351 -33.822  14.997  0.00  0.00    -0.375 OA
BRANCH   9  10
ATOM     10  C   LIG    1       24.837 -33.729  15.086  0.00  0.00    +0.190 C 
BRANCH  10  12
ATOM     11  C   LIG    1       26.898 -32.603  15.118  0.00  0.00    +0.040 C 
ATOM     12  C   LIG    1       25.434 -32.288  15.192  0.00  0.00    +0.137 C 
BRANCH  12  13
ATOM     13  O   LIG    1       25.005 -31.279  14.352  0.00  0.00    -0.390 OA
ATOM     14  H   LIG    1       24.035 -31.301  14.141  0.00  0.00    +0.210 HD
ENDBRANCH  12  13
ENDBRANCH  10  12
ENDBRANCH   9  10
ENDBRANCH   8   9
ENDBRANCH   2   8
BRANCH   3  15
ATOM     15  O   LIG    1       20.037 -30.460  14.563  0.00  0.00    -0.369 OA
BRANCH  15  16
ATOM     16  C   LIG    1       19.346 -29.406  15.287  0.00  0.00    +0.191 C 
BRANCH  16  17
ATOM     17  C   LIG    1       17.848 -29.179  14.904  0.00  0.00    +0.137 C 
ATOM     18  C   LIG    1       17.192 -27.834  15.065  0.00  0.00    +0.040 C 
BRANCH  17  19
ATOM     19  O   LIG    1       17.522 -29.617  13.608  0.00  0.00    -0.390 OA
ATOM     20  H   LIG    1       18.035 -29.140  12.919  0.00  0.00    +0.210 HD
ENDBRANCH  17  19
ENDBRANCH  16  17
ENDBRANCH  15  16
ENDBRANCH   3  15
BRANCH   4  21
ATOM     21  O   LIG    1       23.042 -28.751  13.713  0.00  0.00    -0.369 OA
BRANCH  21  22
ATOM     22  C   LIG    1       23.140 -28.014  14.965  0.00  0.00    +0.191 C 
BRANCH  22  23
ATOM     23  C   LIG    1       22.922 -26.477  14.903  0.00  0.00    +0.137 C 
ATOM     24  C   LIG    1       22.819 -26.018  13.437  0.00  0.00    +0.040 C 
BRANCH  23  25
ATOM     25  O   LIG    1       24.022 -25.775  15.479  0.00  0.00    -0.390 OA
ATOM     26  H   LIG    1       24.139 -26.123  16.382  0.00  0.00    +0.210 HD
ENDBRANCH  23  25
ENDBRANCH  22  23
ENDBRANCH  21  22
ENDBRANCH   4  21
BRANCH   5  27
ATOM     27  O   LIG    1       20.034 -30.020  11.439  0.00  0.00    -0.366 OA
BRANCH  27  28
ATOM     28  C   LIG    1       19.672 -31.265  10.857  0.00  0.00    +0.191 C 
BRANCH  28  29
ATOM     29  C   LIG    1       18.178 -31.748  10.639  0.00  0.00    +0.137 C 
ATOM     30  C   LIG    1       17.770 -32.002   9.219  0.00  0.00    +0.040 C 
BRANCH  29  31
ATOM     31  O   LIG    1       17.198 -30.826  11.149  0.00  0.00    -0.390 OA
ATOM     32  H   LIG    1       17.318 -30.749  12.104  0.00  0.00    +0.210 HD
ENDBRANCH  29  31
ENDBRANCH  28  29
ENDBRANCH  27  28
ENDBRANCH   5  27
ENDBRANCH   1   6
BRANCH   1  33
ATOM     33  C   LIG    1       24.589 -30.170   9.853  0.00  0.00    +0.184 C 
ATOM     34  C   LIG    1       26.039 -29.637  10.287  0.00  0.00    +0.178 C 
ATOM     35  O   LIG    1       26.984 -29.875   9.232  0.00  0.00    -0.341 OA
ATOM     36  C   LIG    1       27.016 -31.228   8.783  0.00  0.00    +0.282 C 
ATOM     37  C   LIG    1       25.766 -31.583   7.902  0.00  0.00    +0.205 C 
ATOM     38  C   LIG    1       24.485 -30.687   8.305  0.00  0.00    +0.183 C 
BRANCH  38  39
ATOM     39  O   LIG    1       24.139 -29.592   7.435  0.00  0.00    -0.369 OA
BRANCH  39  40
ATOM     40  C   LIG    1       25.010 -28.488   7.121  0.00  0.00    +0.191 C 
BRANCH  40  41
ATOM     41  C   LIG    1       24.732 -27.442   5.978  0.00  0.00    +0.137 C 
ATOM     42  C   LIG    1       25.931 -27.334   5.015  0.00  0.00    +0.040 C 
BRANCH  41  43
ATOM     43  O   LIG    1       24.444 -26.123   6.423  0.00  0.00    -0.390 OA
ATOM     44  H   LIG    1       23.483 -26.001   6.363  0.00  0.00    +0.210 HD
ENDBRANCH  41  43
ENDBRANCH  40  41
ENDBRANCH  39  40
ENDBRANCH  38  39
BRANCH  37  45
ATOM     45  O   LIG    1       25.905 -31.596   6.467  0.00  0.00    -0.366 OA
BRANCH  45  46
ATOM     46  C   LIG    1       25.619 -32.693   5.601  0.00  0.00    +0.191 C 
BRANCH  46  47
ATOM     47  C   LIG    1       26.397 -32.694   4.270  0.00  0.00    +0.137 C 
ATOM     48  C   LIG    1       25.647 -33.411   3.140  0.00  0.00    +0.040 C 
BRANCH  47  49
ATOM     49  O   LIG    1       27.665 -33.340   4.420  0.00  0.00    -0.390 OA
ATOM     50  H   LIG    1       27.578 -34.025   5.105  0.00  0.00    +0.210 HD
ENDBRANCH  47  49
ENDBRANCH  46  47
ENDBRANCH  45  46
ENDBRANCH  37  45
BRANCH  36  51
ATOM     51  O   LIG    1       27.071 -32.142   9.864  0.00  0.00    -0.346 OA
BRANCH  51  52
ATOM     52  C   LIG    1       26.441 -33.439   9.559  0.00  0.00    +0.194 C 
BRANCH  52  53
ATOM     53  C   LIG    1       25.438 -33.809  10.656  0.00  0.00    +0.137 C 
ATOM     54  C   LIG    1       23.970 -33.765  10.221  0.00  0.00    +0.040 C 
BRANCH  53  55
ATOM     55  O   LIG    1       25.646 -32.844  11.719  0.00  0.00    -0.390 OA
ATOM     56  H   LIG    1       25.735 -33.329  12.555  0.00  0.00    +0.210 HD
ENDBRANCH  53  55
ENDBRANCH  52  53
ENDBRANCH  51  52
ENDBRANCH  36  51
BRANCH  34  57
ATOM     57  C   LIG    1       26.257 -28.186  10.806  0.00  0.00    +0.194 C 
BRANCH  57  58
ATOM     58  O   LIG    1       25.929 -27.833  12.175  0.00  0.00    -0.375 OA
BRANCH  58  59
ATOM     59  C   LIG    1       27.042 -27.421  12.959  0.00  0.00    +0.190 C 
BRANCH  59  60
ATOM     60  C   LIG    1       26.802 -27.406  14.489  0.00  0.00    +0.137 C 
ATOM     61  C   LIG    1       27.943 -26.830  15.330  0.00  0.00    +0.040 C 
BRANCH  60  62
ATOM     62  O   LIG    1       26.612 -28.773  14.892  0.00  0.00    -0.390 OA
ATOM     63  H   LIG    1       27.318 -29.304  14.485  0.00  0.00    +0.210 HD
ENDBRANCH  60  62
ENDBRANCH  59  60
ENDBRANCH  58  59
ENDBRANCH  57  58
ENDBRANCH  34  57
ENDBRANCH   1  33
TORSDOF 36
ENDMDL
MODEL 2
REMARK VINA RESULT:      -2.6      1.904      5.603
REMARK  Name = *****
REMARK                            x       y       z     vdW  Elec       q    Type
REMARK                         _______ _______ _______ _____ _____    ______ ____
ROOT
ATOM      1  O   LIG    1       23.532 -31.541  11.230  0.00  0.00    -0.340 OA
ENDROOT
BRANCH   1   6
ATOM      2  C   LIG    1       20.266 -32.535  12.838  0.00  0.00    +0.178 C 
ATOM      3  C   LIG    1       20.763 -32.248  14.374  0.00  0.00    +0.181 C 
ATOM      4  C   LIG    1       22.193 -31.655  14.291  0.00  0.00    +0.183 C 
ATOM      5  C   LIG    1       22.205 -30.603  13.083  0.00  0.00    +0.205 C 
ATOM      6  C   LIG    1       22.189 -31.335  11.746  0.00  0.00    +0.282 C 
ATOM      7  O   LIG    1       21.434 -32.604  11.902  0.00  0.00    -0.341 OA
BRANCH   2   8
ATOM      8  C   LIG    1       19.001 -33.556  12.264  0.00  0.00    +0.194 C 
BRANCH   8   9
ATOM      9  O   LIG    1       18.488 -33.550  10.835  0.00  0.00    -0.375 OA
BRANCH   9  10
ATOM     10  C   LIG    1       17.412 -32.659  10.312  0.00  0.00    +0.190 C 
BRANCH  10  12
ATOM     11  C   LIG    1       19.250 -31.256   9.904  0.00  0.00    +0.040 C 
ATOM     12  C   LIG    1       17.778 -31.147  10.165  0.00  0.00    +0.137 C 
BRANCH  12  13
ATOM     13  O   LIG    1       17.083 -30.331   9.294  0.00  0.00    -0.390 OA
ATOM     14  H   LIG    1       16.206 -30.014   9.634  0.00  0.00    +0.210 HD
ENDBRANCH  12  13
ENDBRANCH  10  12
ENDBRANCH   9  10
ENDBRANCH   8   9
ENDBRANCH   2   8
BRANCH   3  15
ATOM     15  O   LIG    1       20.180 -31.241  15.306  0.00  0.00    -0.369 OA
BRANCH  15  16
ATOM     16  C   LIG    1       18.822 -30.760  15.499  0.00  0.00    +0.191 C 
BRANCH  16  17
ATOM     17  C   LIG    1       18.077 -30.271  14.215  0.00  0.00    +0.137 C 
ATOM     18  C   LIG    1       16.586 -30.413  14.072  0.00  0.00    +0.040 C 
BRANCH  17  19
ATOM     19  O   LIG    1       18.376 -28.943  13.859  0.00  0.00    -0.390 OA
ATOM     20  H   LIG    1       17.597 -28.480  13.481  0.00  0.00    +0.210 HD
ENDBRANCH  17  19
ENDBRANCH  16  17
ENDBRANCH  15  16
ENDBRANCH   3  15
BRANCH   4  21
ATOM     21  O   LIG    1       23.248 -32.708  14.255  0.00  0.00    -0.369 OA
BRANCH  21  22
ATOM     22  C   LIG    1       24.306 -32.543  15.242  0.00  0.00    +0.191 C 
BRANCH  22  23
ATOM     23  C   LIG    1       25.602 -31.820  14.781  0.00  0.00    +0.137 C 
ATOM     24  C   LIG    1       25.389 -30.295  14.801  0.00  0.00    +0.040 C 
BRANCH  23  25
ATOM     25  O   LIG    1       25.941 -32.172  13.440  0.00  0.00    -0.390 OA
ATOM     26  H   LIG    1       25.876 -33.143  13.377  0.00  0.00    +0.210 HD
ENDBRANCH  23  25
ENDBRANCH  22  23
ENDBRANCH  21  22
ENDBRANCH   4  21
BRANCH   5  27
ATOM     27  O   LIG    1       21.398 -29.397  13.054  0.00  0.00    -0.366 OA
BRANCH  27  28
ATOM     28  C   LIG    1       21.853 -28.083  12.759  0.00  0.00    +0.191 C 
BRANCH  28  29
ATOM     29  C   LIG    1       21.163 -26.759  13.290  0.00  0.00    +0.137 C 
ATOM     30  C   LIG    1       20.893 -26.703  14.764  0.00  0.00    +0.040 C 
BRANCH  29  31
ATOM     31  O   LIG    1       19.893 -26.485  12.669  0.00  0.00    -0.390 OA
ATOM     32  H   LIG    1       20.004 -26.539  11.711  0.00  0.00    +0.210 HD
ENDBRANCH  29  31
ENDBRANCH  28  29
ENDBRANCH  27  28
ENDBRANCH   5  27
ENDBRANCH   1   6
BRANCH   1  33
ATOM     33  C   LIG    1       23.896 -31.384   9.816  0.00  0.00    +0.184 C 
ATOM     34  C   LIG    1       24.782 -32.559   9.175  0.00  0.00    +0.178 C 
ATOM     35  O   LIG    1       25.417 -32.092   7.974  0.00  0.00    -0.341 OA
ATOM     36  C   LIG    1       24.514 -31.519   7.031  0.00  0.00    +0.282 C 
ATOM     37  C   LIG    1       24.035 -30.090   7.472  0.00  0.00    +0.205 C 
ATOM     38  C   LIG    1       24.047 -29.932   9.078  0.00  0.00    +0.183 C 
BRANCH  38  39
ATOM     39  O   LIG    1       25.128 -29.184   9.666  0.00  0.00    -0.369 OA
BRANCH  39  40
ATOM     40  C   LIG    1       25.648 -29.400  10.993  0.00  0.00    +0.191 C 
BRANCH  40  41
ATOM     41  C   LIG    1       27.066 -30.013  11.296  0.00  0.00    +0.137 C 
ATOM     42  C   LIG    1       27.878 -29.103  12.241  0.00  0.00    +0.040 C 
BRANCH  41  43
ATOM     43  O   LIG    1       27.880 -30.249  10.154  0.00  0.00    -0.390 OA
ATOM     44  H   LIG    1       28.506 -30.953  10.387  0.00  0.00    +0.210 HD
ENDBRANCH  41  43
ENDBRANCH  40  41
ENDBRANCH  39  40
ENDBRANCH  38  39
BRANCH  37  45
ATOM     45  O   LIG    1       24.655 -28.932   6.876  0.00  0.00    -0.366 OA
BRANCH  45  46
ATOM     46  C   LIG    1       25.284 -28.877   5.597  0.00  0.00    +0.191 C 
BRANCH  46  47
ATOM     47  C   LIG    1       26.203 -27.659   5.374  0.00  0.00    +0.137 C 
ATOM     48  C   LIG    1       26.199 -26.681   6.556  0.00  0.00    +0.040 C 
BRANCH  47  49
ATOM     49  O   LIG    1       25.806 -26.926   4.210  0.00  0.00    -0.390 OA
ATOM     50  H   LIG    1       24.866 -26.694   4.304  0.00  0.00    +0.210 HD
ENDBRANCH  47  49
ENDBRANCH  46  47
ENDBRANCH  45  46
ENDBRANCH  37  45
BRANCH  36  51
ATOM     51  O   LIG    1       23.369 -32.330   6.836  0.00  0.00    -0.346 OA
BRANCH  51  52
ATOM     52  C   LIG    1       23.690 -33.671   6.315  0.00  0.00    +0.194 C 
BRANCH  52  53
ATOM     53  C   LIG    1       23.902 -33.610   4.799  0.00  0.00    +0.137 C 
ATOM     54  C   LIG    1       24.665 -32.376   4.310  0.00  0.00    +0.040 C 
BRANCH  53  55
ATOM     55  O   LIG    1       22.574 -33.607   4.216  0.00  0.00    -0.390 OA
ATOM     56  H   LIG    1       22.142 -32.770   4.450  0.00  0.00    +0.210 HD
ENDBRANCH  53  55
ENDBRANCH  52  53
ENDBRANCH  51  52
ENDBRANCH  36  51
BRANCH  34  57
ATOM     57  C   LIG    1       25.844 -33.331  10.009  0.00  0.00    +0.194 C 
BRANCH  57  58
ATOM     58  O   LIG    1       27.061 -33.820   9.387  0.00  0.00    -0.375 OA
BRANCH  58  59
ATOM     59  C   LIG    1       27.556 -32.998   8.337  0.00  0.00    +0.190 C 
BRANCH  59  60
ATOM     60  C   LIG    1       28.079 -33.759   7.094  0.00  0.00    +0.137 C 
ATOM     61  C   LIG    1       29.563 -33.562   6.776  0.00  0.00    +0.040 C 
BRANCH  60  62
ATOM     62  O   LIG    1       27.325 -33.280   5.967  0.00  0.00    -0.390 OA
ATOM     63  H   LIG    1       27.579 -33.809   5.193  0.00  0.00    +0.210 HD
ENDBRANCH  60  62
ENDBRANCH  59  60
ENDBRANCH  58  59
ENDBRANCH  57  58
ENDBRANCH  34  57
ENDBRANCH   1  33
TORSDOF 36
ENDMDL
MODEL 3
REMARK VINA RESULT:      -2.5      1.736      3.056
REMARK  Name = *****
REMARK                            x       y       z     vdW  Elec       q    Type
REMARK                         _______ _______ _______ _____ _____    ______ ____
ROOT
ATOM      1  O   LIG    1       23.706 -30.159   9.701  0.00  0.00    -0.340 OA
ENDROOT
BRANCH   1   6
ATOM      2  C   LIG    1       22.456 -32.130  12.665  0.00  0.00    +0.178 C 
ATOM      3  C   LIG    1       21.391 -30.988  13.165  0.00  0.00    +0.181 C 
ATOM      4  C   LIG    1       21.423 -29.842  12.121  0.00  0.00    +0.183 C 
ATOM      5  C   LIG    1       21.469 -30.519  10.670  0.00  0.00    +0.205 C 
ATOM      6  C   LIG    1       22.853 -31.102  10.404  0.00  0.00    +0.282 C 
ATOM      7  O   LIG    1       23.438 -31.556  11.691  0.00  0.00    -0.341 OA
BRANCH   2   8
ATOM      8  C   LIG    1       23.201 -33.404  13.556  0.00  0.00    +0.194 C 
BRANCH   8   9
ATOM      9  O   LIG    1       23.619 -33.291  15.011  0.00  0.00    -0.375 OA
BRANCH   9  10
ATOM     10  C   LIG    1       25.027 -33.237  15.499  0.00  0.00    +0.190 C 
BRANCH  10  12
ATOM     11  C   LIG    1       27.131 -32.253  15.150  0.00  0.00    +0.040 C 
ATOM     12  C   LIG    1       25.722 -31.837  15.449  0.00  0.00    +0.137 C 
BRANCH  12  13
ATOM     13  O   LIG    1       25.224 -30.826  14.652  0.00  0.00    -0.390 OA
ATOM     14  H   LIG    1       24.314 -30.515  14.898  0.00  0.00    +0.210 HD
ENDBRANCH  12  13
ENDBRANCH  10  12
ENDBRANCH   9  10
ENDBRANCH   8   9
ENDBRANCH   2   8
BRANCH   3  15
ATOM     15  O   LIG    1       19.911 -31.150  13.243  0.00  0.00    -0.369 OA
BRANCH  15  16
ATOM     16  C   LIG    1       18.828 -30.189  13.375  0.00  0.00    +0.191 C 
BRANCH  16  17
ATOM     17  C   LIG    1       17.422 -30.782  13.710  0.00  0.00    +0.137 C 
ATOM     18  C   LIG    1       17.262 -31.921  14.679  0.00  0.00    +0.040 C 
BRANCH  17  19
ATOM     19  O   LIG    1       16.475 -29.813  14.090  0.00  0.00    -0.390 OA
ATOM     20  H   LIG    1       15.961 -30.092  14.879  0.00  0.00    +0.210 HD
ENDBRANCH  17  19
ENDBRANCH  16  17
ENDBRANCH  15  16
ENDBRANCH   3  15
BRANCH   4  21
ATOM     21  O   LIG    1       22.483 -28.834  12.410  0.00  0.00    -0.369 OA
BRANCH  21  22
ATOM     22  C   LIG    1       22.687 -28.555  13.824  0.00  0.00    +0.191 C 
BRANCH  22  23
ATOM     23  C   LIG    1       22.430 -27.099  14.305  0.00  0.00    +0.137 C 
ATOM     24  C   LIG    1       21.703 -26.303  13.207  0.00  0.00    +0.040 C 
BRANCH  23  25
ATOM     25  O   LIG    1       23.655 -26.417  14.567  0.00  0.00    -0.390 OA
ATOM     26  H   LIG    1       24.279 -27.079  14.920  0.00  0.00    +0.210 HD
ENDBRANCH  23  25
ENDBRANCH  22  23
ENDBRANCH  21  22
ENDBRANCH   4  21
BRANCH   5  27
ATOM     27  O   LIG    1       20.412 -31.358  10.135  0.00  0.00    -0.366 OA
BRANCH  27  28
ATOM     28  C   LIG    1       20.456 -32.769   9.968  0.00  0.00    +0.191 C 
BRANCH  28  29
ATOM     29  C   LIG    1       19.360 -33.769  10.525  0.00  0.00    +0.137 C 
ATOM     30  C   LIG    1       18.071 -33.825   9.761  0.00  0.00    +0.040 C 
BRANCH  29  31
ATOM     31  O   LIG    1       18.974 -33.496  11.885  0.00  0.00    -0.390 OA
ATOM     32  H   LIG    1       19.470 -34.085  12.467  0.00  0.00    +0.210 HD
ENDBRANCH  29  31
ENDBRANCH  28  29
ENDBRANCH  27  28
ENDBRANCH   5  27
ENDBRANCH   1   6
BRANCH   1  33
ATOM     33  C   LIG    1       24.379 -30.458   8.430  0.00  0.00    +0.184 C 
ATOM     34  C   LIG    1       25.792 -31.213   8.534  0.00  0.00    +0.178 C 
ATOM     35  O   LIG    1       26.522 -31.054   7.307  0.00  0.00    -0.341 OA
ATOM     36  C   LIG    1       25.788 -31.437   6.147  0.00  0.00    +0.282 C 
ATOM     37  C   LIG    1       24.694 -30.376   5.769  0.00  0.00    +0.205 C 
ATOM     38  C   LIG    1       24.174 -29.574   7.070  0.00  0.00    +0.183 C 
BRANCH  38  39
ATOM     39  O   LIG    1       24.665 -28.234   7.266  0.00  0.00    -0.369 OA
BRANCH  39  40
ATOM     40  C   LIG    1       23.953 -27.037   6.896  0.00  0.00    +0.191 C 
BRANCH  40  41
ATOM     41  C   LIG    1       24.635 -25.758   6.282  0.00  0.00    +0.137 C 
ATOM     42  C   LIG    1       25.719 -25.196   7.224  0.00  0.00    +0.040 C 
BRANCH  41  43
ATOM     43  O   LIG    1       23.751 -24.684   5.987  0.00  0.00    -0.390 OA
ATOM     44  H   LIG    1       24.296 -23.916   5.757  0.00  0.00    +0.210 HD
ENDBRANCH  41  43
ENDBRANCH  40  41
ENDBRANCH  39  40
ENDBRANCH  38  39
BRANCH  37  45
ATOM     45  O   LIG    1       24.970 -29.437   4.710  0.00  0.00    -0.366 OA
BRANCH  45  46
ATOM     46  C   LIG    1       26.260 -29.007   4.280  0.00  0.00    +0.191 C 
BRANCH  46  47
ATOM     47  C   LIG    1       26.614 -27.548   4.633  0.00  0.00    +0.137 C 
ATOM     48  C   LIG    1       25.937 -26.527   3.708  0.00  0.00    +0.040 C 
BRANCH  47  49
ATOM     49  O   LIG    1       28.026 -27.330   4.550  0.00  0.00    -0.390 OA
ATOM     50  H   LIG    1       28.261 -27.218   3.613  0.00  0.00    +0.210 HD
ENDBRANCH  47  49
ENDBRANCH  46  47
ENDBRANCH  45  46
ENDBRANCH  37  45
BRANCH  36  51
ATOM     51  O   LIG    1       25.149 -32.691   6.315  0.00  0.00    -0.346 OA
BRANCH  51  52
ATOM     52  C   LIG    1       25.704 -33.745   5.447  0.00  0.00    +0.194 C 
BRANCH  52  53
ATOM     53  C   LIG    1       24.959 -33.771   4.108  0.00  0.00    +0.137 C 
ATOM     54  C   LIG    1       25.552 -32.859   3.030  0.00  0.00    +0.040 C 
BRANCH  53  55
ATOM     55  O   LIG    1       23.607 -33.338   4.403  0.00  0.00    -0.390 OA
ATOM     56  H   LIG    1       23.029 -33.637   3.683  0.00  0.00    +0.210 HD
ENDBRANCH  53  55
ENDBRANCH  52  53
ENDBRANCH  51  52
ENDBRANCH  36  51
BRANCH  34  57
ATOM     57  C   LIG    1       26.774 -30.953   9.713  0.00  0.00    +0.194 C 
BRANCH  57  58
ATOM     58  O   LIG    1       27.537 -29.722   9.782  0.00  0.00    -0.375 OA
BRANCH  58  59
ATOM     59  C   LIG    1       26.793 -28.592  10.222  0.00  0.00    +0.190 C 
BRANCH  59  60
ATOM     60  C   LIG    1       26.578 -28.498  11.753  0.00  0.00    +0.137 C 
ATOM     61  C   LIG    1       27.727 -29.029  12.614  0.00  0.00    +0.040 C 
BRANCH  60  62
ATOM     62  O   LIG    1       25.410 -29.280  12.056  0.00  0.00    -0.390 OA
ATOM     63  H   LIG    1       25.514 -29.633  12.955  0.00  0.00    +0.210 HD
ENDBRANCH  60  62
ENDBRANCH  59  60
ENDBRANCH  58  59
ENDBRANCH  57  58
ENDBRANCH  34  57
ENDBRANCH   1  33
TORSDOF 36
ENDMDL
MODEL 4
REMARK VINA RESULT:      -2.4      1.937      4.342
REMARK  Name = *****
REMARK                            x       y       z     vdW  Elec       q    Type
REMARK                         _______ _______ _______ _____ _____    ______ ____
ROOT
ATOM      1  O   LIG    1       23.175 -29.747  10.586  0.00  0.00    -0.340 OA
ENDROOT
BRANCH   1   6
ATOM      2  C   LIG    1       23.234 -29.858  14.357  0.00  0.00    +0.178 C 
ATOM      3  C   LIG    1       21.610 -29.709  14.536  0.00  0.00    +0.181 C 
ATOM      4  C   LIG    1       20.989 -29.716  13.115  0.00  0.00    +0.183 C 
ATOM      5  C   LIG    1       21.746 -30.845  12.268  0.00  0.00    +0.205 C 
ATOM      6  C   LIG    1       23.148 -30.375  11.896  0.00  0.00    +0.282 C 
ATOM      7  O   LIG    1       23.656 -29.483  12.969  0.00  0.00    -0.341 OA
BRANCH   2   8
ATOM      8  C   LIG    1       24.500 -29.492  15.467  0.00  0.00    +0.194 C 
BRANCH   8   9
ATOM      9  O   LIG    1       25.712 -28.645  15.123  0.00  0.00    -0.375 OA
BRANCH   9  10
ATOM     10  C   LIG    1       25.891 -27.211  15.494  0.00  0.00    +0.190 C 
BRANCH  10  12
ATOM     11  C   LIG    1       25.047 -25.024  15.380  0.00  0.00    +0.040 C 
ATOM     12  C   LIG    1       25.375 -26.160  14.459  0.00  0.00    +0.137 C 
BRANCH  12  13
ATOM     13  O   LIG    1       26.130 -25.824  13.353  0.00  0.00    -0.390 OA
ATOM     14  H   LIG    1       25.935 -24.927  12.975  0.00  0.00    +0.210 HD
ENDBRANCH  12  13
ENDBRANCH  10  12
ENDBRANCH   9  10
ENDBRANCH   8   9
ENDBRANCH   2   8
BRANCH   3  15
ATOM     15  O   LIG    1       20.705 -30.718  15.156  0.00  0.00    -0.369 OA
BRANCH  15  16
ATOM     16  C   LIG    1       19.293 -30.684  15.500  0.00  0.00    +0.191 C 
BRANCH  16  17
ATOM     17  C   LIG    1       18.337 -31.480  14.554  0.00  0.00    +0.137 C 
ATOM     18  C   LIG    1       17.507 -30.783  13.511  0.00  0.00    +0.040 C 
BRANCH  17  19
ATOM     19  O   LIG    1       18.959 -32.558  13.898  0.00  0.00    -0.390 OA
ATOM     20  H   LIG    1       18.323 -33.077  13.359  0.00  0.00    +0.210 HD
ENDBRANCH  17  19
ENDBRANCH  16  17
ENDBRANCH  15  16
ENDBRANCH   3  15
BRANCH   4  21
ATOM     21  O   LIG    1       20.944 -28.356  12.504  0.00  0.00    -0.369 OA
BRANCH  21  22
ATOM     22  C   LIG    1       19.892 -27.493  13.020  0.00  0.00    +0.191 C 
BRANCH  22  23
ATOM     23  C   LIG    1       20.269 -26.531  14.182  0.00  0.00    +0.137 C 
ATOM     24  C   LIG    1       21.800 -26.412  14.290  0.00  0.00    +0.040 C 
BRANCH  23  25
ATOM     25  O   LIG    1       19.803 -27.027  15.436  0.00  0.00    -0.390 OA
ATOM     26  H   LIG    1       20.144 -27.937  15.524  0.00  0.00    +0.210 HD
ENDBRANCH  23  25
ENDBRANCH  22  23
ENDBRANCH  21  22
ENDBRANCH   4  21
BRANCH   5  27
ATOM     27  O   LIG    1       21.714 -32.259  12.595  0.00  0.00    -0.366 OA
BRANCH  27  28
ATOM     28  C   LIG    1       21.508 -33.332  11.686  0.00  0.00    +0.191 C 
BRANCH  28  29
ATOM     29  C   LIG    1       20.239 -33.476  10.747  0.00  0.00    +0.137 C 
ATOM     30  C   LIG    1       20.515 -33.544   9.275  0.00  0.00    +0.040 C 
BRANCH  29  31
ATOM     31  O   LIG    1       19.290 -32.405  10.899  0.00  0.00    -0.390 OA
ATOM     32  H   LIG    1       18.479 -32.648  10.434  0.00  0.00    +0.210 HD
ENDBRANCH  29  31
ENDBRANCH  28  29
ENDBRANCH  27  28
ENDBRANCH   5  27
ENDBRANCH   1   6
BRANCH   1  33
ATOM     33  C   LIG    1       23.822 -30.342   9.409  0.00  0.00    +0.184 C 
ATOM     34  C   LIG    1       24.524 -31.769   9.628  0.00  0.00    +0.178 C 
ATOM     35  O   LIG    1       25.460 -32.021   8.568  0.00  0.00    -0.341 OA
ATOM     36  C   LIG    1       24.901 -31.888   7.264  0.00  0.00    +0.282 C 
ATOM     37  C   LIG    1       24.682 -30.384   6.870  0.00  0.00    +0.205 C 
ATOM     38  C   LIG    1       24.430 -29.463   8.172  0.00  0.00    +0.183 C 
BRANCH  38  39
ATOM     39  O   LIG    1       25.524 -28.646   8.631  0.00  0.00    -0.369 OA
BRANCH  39  40
ATOM     40  C   LIG    1       26.629 -29.124   9.422  0.00  0.00    +0.191 C 
BRANCH  40  41
ATOM     41  C   LIG    1       26.981 -28.591  10.860  0.00  0.00    +0.137 C 
ATOM     42  C   LIG    1       27.797 -29.629  11.658  0.00  0.00    +0.040 C 
BRANCH  41  43
ATOM     43  O   LIG    1       25.863 -28.241  11.666  0.00  0.00    -0.390 OA
ATOM     44  H   LIG    1       26.196 -28.068  12.561  0.00  0.00    +0.210 HD
ENDBRANCH  41  43
ENDBRANCH  40  41
ENDBRANCH  39  40
ENDBRANCH  38  39
BRANCH  37  45
ATOM     45  O   LIG    1       25.647 -29.741   6.012  0.00  0.00    -0.366 OA
BRANCH  45  46
ATOM     46  C   LIG    1       25.408 -28.614   5.170  0.00  0.00    +0.191 C 
BRANCH  46  47
ATOM     47  C   LIG    1       25.906 -27.266   5.727  0.00  0.00    +0.137 C 
ATOM     48  C   LIG    1       24.915 -26.118   5.492  0.00  0.00    +0.040 C 
BRANCH  47  49
ATOM     49  O   LIG    1       27.148 -26.890   5.122  0.00  0.00    -0.390 OA
ATOM     50  H   LIG    1       27.069 -25.971   4.814  0.00  0.00    +0.210 HD
ENDBRANCH  47  49
ENDBRANCH  46  47
ENDBRANCH  45  46
ENDBRANCH  37  45
BRANCH  36  51
ATOM     51  O   LIG    1       23.659 -32.561   7.150  0.00  0.00    -0.346 OA
BRANCH  51  52
ATOM     52  C   LIG    1       23.183 -32.665   5.758  0.00  0.00    +0.194 C 
BRANCH  52  53
ATOM     53  C   LIG    1       24.072 -33.630   4.968  0.00  0.00    +0.137 C 
ATOM     54  C   LIG    1       25.495 -33.123   4.714  0.00  0.00    +0.040 C 
BRANCH  53  55
ATOM     55  O   LIG    1       23.405 -33.825   3.695  0.00  0.00    -0.390 OA
ATOM     56  H   LIG    1       22.768 -34.550   3.794  0.00  0.00    +0.210 HD
ENDBRANCH  53  55
ENDBRANCH  52  53
ENDBRANCH  51  52
ENDBRANCH  36  51
BRANCH  34  57
ATOM     57  C   LIG    1       25.211 -32.145  10.973  0.00  0.00    +0.194 C 
BRANCH  57  58
ATOM     58  O   LIG    1       24.808 -33.331  11.704  0.00  0.00    -0.375 OA
BRANCH  58  59
ATOM     59  C   LIG    1       25.692 -33.706  12.753  0.00  0.00    +0.190 C 
BRANCH  59  60
ATOM     60  C   LIG    1       25.555 -32.883  14.058  0.00  0.00    +0.137 C 
ATOM     61  C   LIG    1       26.654 -31.848  14.304  0.00  0.00    +0.040 C 
BRANCH  60  62
ATOM     62  O   LIG    1       25.591 -33.823  15.146  0.00  0.00    -0.390 OA
ATOM     63  H   LIG    1       25.978 -33.373  15.915  0.00  0.00    +0.210 HD
ENDBRANCH  60  62
ENDBRANCH  59  60
ENDBRANCH  58  59
ENDBRANCH  57  58
ENDBRANCH  34  57
ENDBRANCH   1  33
TORSDOF 36
ENDMDL
MODEL 5
REMARK VINA RESULT:      -2.4      2.329      5.392
REMARK  Name = *****
REMARK                            x       y       z     vdW  Elec       q    Type
REMARK                         _______ _______ _______ _____ _____    ______ ____
ROOT
ATOM      1  O   LIG    1       24.711 -31.118  12.905  0.00  0.00    -0.340 OA
ENDROOT
BRANCH   1   6
ATOM      2  C   LIG    1       21.372 -32.844  12.576  0.00  0.00    +0.178 C 
ATOM      3  C   LIG    1       21.399 -33.507  14.075  0.00  0.00    +0.181 C 
ATOM      4  C   LIG    1       22.674 -32.984  14.786  0.00  0.00    +0.183 C 
ATOM      5  C   LIG    1       22.808 -31.426  14.440  0.00  0.00    +0.205 C 
ATOM      6  C   LIG    1       23.267 -31.243  12.998  0.00  0.00    +0.282 C 
ATOM      7  O   LIG    1       22.735 -32.362  12.180  0.00  0.00    -0.341 OA
BRANCH   2   8
ATOM      8  C   LIG    1       20.500 -33.334  11.172  0.00  0.00    +0.194 C 
BRANCH   8   9
ATOM      9  O   LIG    1       19.193 -32.706  10.723  0.00  0.00    -0.375 OA
BRANCH   9  10
ATOM     10  C   LIG    1       18.004 -33.458  10.227  0.00  0.00    +0.190 C 
BRANCH  10  12
ATOM     11  C   LIG    1       17.565 -31.401   9.184  0.00  0.00    +0.040 C 
ATOM     12  C   LIG    1       17.278 -32.858   8.980  0.00  0.00    +0.137 C 
BRANCH  12  13
ATOM     13  O   LIG    1       17.534 -33.338   7.711  0.00  0.00    -0.390 OA
ATOM     14  H   LIG    1       16.756 -33.318   7.095  0.00  0.00    +0.210 HD
ENDBRANCH  12  13
ENDBRANCH  10  12
ENDBRANCH   9  10
ENDBRANCH   8   9
ENDBRANCH   2   8
BRANCH   3  15
ATOM     15  O   LIG    1       20.427 -33.226  15.170  0.00  0.00    -0.369 OA
BRANCH  15  16
ATOM     16  C   LIG    1       19.123 -33.786  15.486  0.00  0.00    +0.191 C 
BRANCH  16  17
ATOM     17  C   LIG    1       17.886 -32.952  15.019  0.00  0.00    +0.137 C 
ATOM     18  C   LIG    1       18.036 -31.790  14.075  0.00  0.00    +0.040 C 
BRANCH  17  19
ATOM     19  O   LIG    1       16.836 -33.735  14.507  0.00  0.00    -0.390 OA
ATOM     20  H   LIG    1       16.833 -34.640  14.888  0.00  0.00    +0.210 HD
ENDBRANCH  17  19
ENDBRANCH  16  17
ENDBRANCH  15  16
ENDBRANCH   3  15
BRANCH   4  21
ATOM     21  O   LIG    1       23.872 -33.825  14.505  0.00  0.00    -0.369 OA
BRANCH  21  22
ATOM     22  C   LIG    1       24.931 -33.728  15.500  0.00  0.00    +0.191 C 
BRANCH  22  23
ATOM     23  C   LIG    1       26.343 -33.319  14.997  0.00  0.00    +0.137 C 
ATOM     24  C   LIG    1       26.679 -31.893  15.470  0.00  0.00    +0.040 C 
BRANCH  23  25
ATOM     25  O   LIG    1       26.401 -33.305  13.571  0.00  0.00    -0.390 OA
ATOM     26  H   LIG    1       25.995 -34.137  13.263  0.00  0.00    +0.210 HD
ENDBRANCH  23  25
ENDBRANCH  22  23
ENDBRANCH  21  22
ENDBRANCH   4  21
BRANCH   5  27
ATOM     27  O   LIG    1       21.835 -30.423  14.834  0.00  0.00    -0.366 OA
BRANCH  27  28
ATOM     28  C   LIG    1       21.077 -29.594  13.964  0.00  0.00    +0.191 C 
BRANCH  28  29
ATOM     29  C   LIG    1       20.506 -28.169  14.360  0.00  0.00    +0.137 C 
ATOM     30  C   LIG    1       20.484 -27.142  13.268  0.00  0.00    +0.040 C 
BRANCH  29  31
ATOM     31  O   LIG    1       21.222 -27.546  15.442  0.00  0.00    -0.390 OA
ATOM     32  H   LIG    1       22.130 -27.876  15.438  0.00  0.00    +0.210 HD
ENDBRANCH  29  31
ENDBRANCH  28  29
ENDBRANCH  27  28
ENDBRANCH   5  27
ENDBRANCH   1   6
BRANCH   1  33
ATOM     33  C   LIG    1       25.392 -30.065  12.140  0.00  0.00    +0.184 C 
ATOM     34  C   LIG    1       25.360 -28.591  12.774  0.00  0.00    +0.178 C 
ATOM     35  O   LIG    1       25.656 -27.616  11.762  0.00  0.00    -0.341 OA
ATOM     36  C   LIG    1       26.866 -27.874  11.053  0.00  0.00    +0.282 C 
ATOM     37  C   LIG    1       26.707 -29.056  10.033  0.00  0.00    +0.205 C 
ATOM     38  C   LIG    1       25.581 -30.107  10.516  0.00  0.00    +0.183 C 
BRANCH  38  39
ATOM     39  O   LIG    1       24.299 -30.056   9.863  0.00  0.00    -0.369 OA
BRANCH  39  40
ATOM     40  C   LIG    1       23.633 -31.191   9.274  0.00  0.00    +0.191 C 
BRANCH  40  41
ATOM     41  C   LIG    1       24.380 -32.443   8.681  0.00  0.00    +0.137 C 
ATOM     42  C   LIG    1       23.467 -33.240   7.728  0.00  0.00    +0.040 C 
BRANCH  41  43
ATOM     43  O   LIG    1       24.871 -33.366   9.645  0.00  0.00    -0.390 OA
ATOM     44  H   LIG    1       25.381 -34.038   9.167  0.00  0.00    +0.210 HD
ENDBRANCH  41  43
ENDBRANCH  40  41
ENDBRANCH  39  40
ENDBRANCH  38  39
BRANCH  37  45
ATOM     45  O   LIG    1       26.505 -28.751   8.638  0.00  0.00    -0.366 OA
BRANCH  45  46
ATOM     46  C   LIG    1       26.144 -27.482   8.095  0.00  0.00    +0.191 C 
BRANCH  46  47
ATOM     47  C   LIG    1       25.382 -27.538   6.756  0.00  0.00    +0.137 C 
ATOM     48  C   LIG    1       24.549 -28.816   6.593  0.00  0.00    +0.040 C 
BRANCH  47  49
ATOM     49  O   LIG    1       26.288 -27.474   5.650  0.00  0.00    -0.390 OA
ATOM     50  H   LIG    1       26.937 -26.771   5.829  0.00  0.00    +0.210 HD
ENDBRANCH  47  49
ENDBRANCH  46  47
ENDBRANCH  45  46
ENDBRANCH  37  45
BRANCH  36  51
ATOM     51  O   LIG    1       27.936 -28.184  11.929  0.00  0.00    -0.346 OA
BRANCH  51  52
ATOM     52  C   LIG    1       28.303 -29.612  11.912  0.00  0.00    +0.194 C 
BRANCH  52  53
ATOM     53  C   LIG    1       28.945 -30.006  13.246  0.00  0.00    +0.137 C 
ATOM     54  C   LIG    1       28.682 -29.029  14.395  0.00  0.00    +0.040 C 
BRANCH  53  55
ATOM     55  O   LIG    1       30.372 -30.065  12.992  0.00  0.00    -0.390 OA
ATOM     56  H   LIG    1       30.782 -29.277  13.383  0.00  0.00    +0.210 HD
ENDBRANCH  53  55
ENDBRANCH  52  53
ENDBRANCH  51  52
ENDBRANCH  36  51
BRANCH  34  57
ATOM     57  C   LIG    1       24.137 -28.077  13.589  0.00  0.00    +0.194 C 
BRANCH  57  58
ATOM     58  O   LIG    1       24.279 -26.973  14.520  0.00  0.00    -0.375 OA
BRANCH  58  59
ATOM     59  C   LIG    1       24.453 -25.703  13.904  0.00  0.00    +0.190 C 
BRANCH  59  60
ATOM     60  C   LIG    1       25.739 -24.942  14.311  0.00  0.00    +0.137 C 
ATOM     61  C   LIG    1       25.549 -23.463  14.655  0.00  0.00    +0.040 C 
BRANCH  60  62
ATOM     62  O   LIG    1       26.637 -25.016  13.190  0.00  0.00    -0.390 OA
ATOM     63  H   LIG    1       26.530 -25.891  12.781  0.00  0.00    +0.210 HD
ENDBRANCH  60  62
ENDBRANCH  59  60
ENDBRANCH  58  59
ENDBRANCH  57  58
ENDBRANCH  34  57
ENDBRANCH   1  33
TORSDOF 36
ENDMDL
MODEL 6
REMARK VINA RESULT:      -2.3      3.051      8.556
REMARK  Name = *****
REMARK                            x       y       z     vdW  Elec       q    Type
REMARK                         _______ _______ _______ _____ _____    ______ ____
ROOT
ATOM      1  O   LIG    1       25.706 -28.114   7.895  0.00  0.00    -0.340 OA
ENDROOT
BRANCH   1   6
ATOM      2  C   LIG    1       24.433 -30.012  10.897  0.00  0.00    +0.178 C 
ATOM      3  C   LIG    1       25.740 -30.994  11.018  0.00  0.00    +0.181 C 
ATOM      4  C   LIG    1       26.761 -30.534   9.945  0.00  0.00    +0.183 C 
ATOM      5  C   LIG    1       26.778 -28.932   9.958  0.00  0.00    +0.205 C 
ATOM      6  C   LIG    1       25.512 -28.386   9.309  0.00  0.00    +0.282 C 
ATOM      7  O   LIG    1       24.396 -29.332   9.562  0.00  0.00    -0.341 OA
BRANCH   2   8
ATOM      8  C   LIG    1       22.825 -30.245  11.474  0.00  0.00    +0.194 C 
BRANCH   8   9
ATOM      9  O   LIG    1       22.107 -29.281  12.400  0.00  0.00    -0.375 OA
BRANCH   9  10
ATOM     10  C   LIG    1       22.775 -28.314  13.320  0.00  0.00    +0.190 C 
BRANCH  10  12
ATOM     11  C   LIG    1       20.757 -27.205  12.859  0.00  0.00    +0.040 C 
ATOM     12  C   LIG    1       22.101 -26.911  13.456  0.00  0.00    +0.137 C 
BRANCH  12  13
ATOM     13  O   LIG    1       22.076 -26.251  14.668  0.00  0.00    -0.390 OA
ATOM     14  H   LIG    1       22.958 -25.916  14.976  0.00  0.00    +0.210 HD
ENDBRANCH  12  13
ENDBRANCH  10  12
ENDBRANCH   9  10
ENDBRANCH   8   9
ENDBRANCH   2   8
BRANCH   3  15
ATOM     15  O   LIG    1       26.678 -31.058  12.175  0.00  0.00    -0.369 OA
BRANCH  15  16
ATOM     16  C   LIG    1       26.543 -30.658  13.567  0.00  0.00    +0.191 C 
BRANCH  16  17
ATOM     17  C   LIG    1       27.830 -30.090  14.246  0.00  0.00    +0.137 C 
ATOM     18  C   LIG    1       27.750 -29.078  15.357  0.00  0.00    +0.040 C 
BRANCH  17  19
ATOM     19  O   LIG    1       28.721 -31.084  14.691  0.00  0.00    -0.390 OA
ATOM     20  H   LIG    1       29.656 -30.851  14.502  0.00  0.00    +0.210 HD
ENDBRANCH  17  19
ENDBRANCH  16  17
ENDBRANCH  15  16
ENDBRANCH   3  15
BRANCH   4  21
ATOM     21  O   LIG    1       26.528 -31.178   8.621  0.00  0.00    -0.369 OA
BRANCH  21  22
ATOM     22  C   LIG    1       27.221 -32.444   8.430  0.00  0.00    +0.191 C 
BRANCH  22  23
ATOM     23  C   LIG    1       27.257 -33.024   6.988  0.00  0.00    +0.137 C 
ATOM     24  C   LIG    1       28.620 -33.689   6.722  0.00  0.00    +0.040 C 
BRANCH  23  25
ATOM     25  O   LIG    1       27.102 -31.994   6.013  0.00  0.00    -0.390 OA
ATOM     26  H   LIG    1       26.700 -31.231   6.468  0.00  0.00    +0.210 HD
ENDBRANCH  23  25
ENDBRANCH  22  23
ENDBRANCH  21  22
ENDBRANCH   4  21
BRANCH   5  27
ATOM     27  O   LIG    1       27.193 -28.137  11.099  0.00  0.00    -0.366 OA
BRANCH  27  28
ATOM     28  C   LIG    1       26.452 -27.094  11.717  0.00  0.00    +0.191 C 
BRANCH  28  29
ATOM     29  C   LIG    1       26.827 -26.434  13.108  0.00  0.00    +0.137 C 
ATOM     30  C   LIG    1       25.674 -26.022  13.973  0.00  0.00    +0.040 C 
BRANCH  29  31
ATOM     31  O   LIG    1       27.638 -25.251  12.981  0.00  0.00    -0.390 OA
ATOM     32  H   LIG    1       27.651 -24.988  12.051  0.00  0.00    +0.210 HD
ENDBRANCH  29  31
ENDBRANCH  28  29
ENDBRANCH  27  28
ENDBRANCH   5  27
ENDBRANCH   1   6
BRANCH   1  33
ATOM     33  C   LIG    1       25.290 -26.867   7.238  0.00  0.00    +0.184 C 
ATOM     34  C   LIG    1       24.237 -27.014   6.036  0.00  0.00    +0.178 C 
ATOM     35  O   LIG    1       24.254 -25.829   5.225  0.00  0.00    -0.341 OA
ATOM     36  C   LIG    1       24.066 -24.625   5.964  0.00  0.00    +0.282 C 
ATOM     37  C   LIG    1       25.351 -24.228   6.774  0.00  0.00    +0.205 C 
ATOM     38  C   LIG    1       26.224 -25.527   7.172  0.00  0.00    +0.183 C 
BRANCH  38  39
ATOM     39  O   LIG    1       27.416 -25.787   6.407  0.00  0.00    -0.369 OA
BRANCH  39  40
ATOM     40  C   LIG    1       27.811 -27.085   5.920  0.00  0.00    +0.191 C 
BRANCH  40  41
ATOM     41  C   LIG    1       27.675 -27.543   4.420  0.00  0.00    +0.137 C 
ATOM     42  C   LIG    1       29.020 -27.425   3.675  0.00  0.00    +0.040 C 
BRANCH  41  43
ATOM     43  O   LIG    1       26.716 -26.826   3.653  0.00  0.00    -0.390 OA
ATOM     44  H   LIG    1       27.181 -26.087   3.229  0.00  0.00    +0.210 HD
ENDBRANCH  41  43
ENDBRANCH  40  41
ENDBRANCH  39  40
ENDBRANCH  38  39
BRANCH  37  45
ATOM     45  O   LIG    1       26.226 -23.212   6.241  0.00  0.00    -0.366 OA
BRANCH  45  46
ATOM     46  C   LIG    1       26.853 -22.167   6.981  0.00  0.00    +0.191 C 
BRANCH  46  47
ATOM     47  C   LIG    1       26.869 -20.792   6.283  0.00  0.00    +0.137 C 
ATOM     48  C   LIG    1       25.798 -20.662   5.191  0.00  0.00    +0.040 C 
BRANCH  47  49
ATOM     49  O   LIG    1       28.138 -20.546   5.668  0.00  0.00    -0.390 OA
ATOM     50  H   LIG    1       28.480 -19.700   6.007  0.00  0.00    +0.210 HD
ENDBRANCH  47  49
ENDBRANCH  46  47
ENDBRANCH  45  46
ENDBRANCH  37  45
BRANCH  36  51
ATOM     51  O   LIG    1       22.983 -24.724   6.871  0.00  0.00    -0.346 OA
BRANCH  51  52
ATOM     52  C   LIG    1       22.131 -23.521   6.891  0.00  0.00    +0.194 C 
BRANCH  52  53
ATOM     53  C   LIG    1       22.909 -22.316   6.355  0.00  0.00    +0.137 C 
ATOM     54  C   LIG    1       23.247 -21.255   7.406  0.00  0.00    +0.040 C 
BRANCH  53  55
ATOM     55  O   LIG    1       22.062 -21.722   5.338  0.00  0.00    -0.390 OA
ATOM     56  H   LIG    1       21.341 -21.248   5.783  0.00  0.00    +0.210 HD
ENDBRANCH  53  55
ENDBRANCH  52  53
ENDBRANCH  51  52
ENDBRANCH  36  51
BRANCH  34  57
ATOM     57  C   LIG    1       24.249 -28.246   5.084  0.00  0.00    +0.194 C 
BRANCH  57  58
ATOM     58  O   LIG    1       23.447 -29.418   5.380  0.00  0.00    -0.375 OA
BRANCH  58  59
ATOM     59  C   LIG    1       24.121 -30.417   6.135  0.00  0.00    +0.190 C 
BRANCH  59  60
ATOM     60  C   LIG    1       23.589 -31.859   5.945  0.00  0.00    +0.137 C 
ATOM     61  C   LIG    1       23.657 -32.756   7.184  0.00  0.00    +0.040 C 
BRANCH  60  62
ATOM     62  O   LIG    1       24.396 -32.467   4.923  0.00  0.00    -0.390 OA
ATOM     63  H   LIG    1       25.128 -32.934   5.360  0.00  0.00    +0.210 HD
ENDBRANCH  60  62
ENDBRANCH  59  60
ENDBRANCH  58  59
ENDBRANCH  57  58
ENDBRANCH  34  57
ENDBRANCH   1  33
TORSDOF 36
ENDMDL
MODEL 7
REMARK VINA RESULT:      -2.3      1.988      3.971
REMARK  Name = *****
REMARK                            x       y       z     vdW  Elec       q    Type
REMARK                         _______ _______ _______ _____ _____    ______ ____
ROOT
ATOM      1  O   LIG    1       23.619 -29.413   9.824  0.00  0.00    -0.340 OA
ENDROOT
BRANCH   1   6
ATOM      2  C   LIG    1       23.324 -30.554  13.408  0.00  0.00    +0.178 C 
ATOM      3  C   LIG    1       21.762 -30.086  13.585  0.00  0.00    +0.181 C 
ATOM      4  C   LIG    1       21.280 -29.562  12.207  0.00  0.00    +0.183 C 
ATOM      5  C   LIG    1       21.846 -30.563  11.092  0.00  0.00    +0.205 C 
ATOM      6  C   LIG    1       23.343 -30.349  10.901  0.00  0.00    +0.282 C 
ATOM      7  O   LIG    1       23.936 -29.924  12.194  0.00  0.00    -0.341 OA
BRANCH   2   8
ATOM      8  C   LIG    1       24.538 -30.807  14.605  0.00  0.00    +0.194 C 
BRANCH   8   9
ATOM      9  O   LIG    1       25.728 -29.888  14.815  0.00  0.00    -0.375 OA
BRANCH   9  10
ATOM     10  C   LIG    1       25.659 -28.507  15.374  0.00  0.00    +0.190 C 
BRANCH  10  12
ATOM     11  C   LIG    1       24.497 -26.470  15.499  0.00  0.00    +0.040 C 
ATOM     12  C   LIG    1       25.005 -27.422  14.459  0.00  0.00    +0.137 C 
BRANCH  12  13
ATOM     13  O   LIG    1       25.716 -26.843  13.426  0.00  0.00    -0.390 OA
ATOM     14  H   LIG    1       25.895 -27.445  12.658  0.00  0.00    +0.210 HD
ENDBRANCH  12  13
ENDBRANCH  10  12
ENDBRANCH   9  10
ENDBRANCH   8   9
ENDBRANCH   2   8
BRANCH   3  15
ATOM     15  O   LIG    1       20.609 -30.987  13.873  0.00  0.00    -0.369 OA
BRANCH  15  16
ATOM     16  C   LIG    1       19.182 -30.739  13.997  0.00  0.00    +0.191 C 
BRANCH  16  17
ATOM     17  C   LIG    1       18.296 -31.218  12.802  0.00  0.00    +0.137 C 
ATOM     18  C   LIG    1       17.917 -32.665  12.638  0.00  0.00    +0.040 C 
BRANCH  17  19
ATOM     19  O   LIG    1       17.104 -30.485  12.652  0.00  0.00    -0.390 OA
ATOM     20  H   LIG    1       16.824 -30.063  13.493  0.00  0.00    +0.210 HD
ENDBRANCH  17  19
ENDBRANCH  16  17
ENDBRANCH  15  16
ENDBRANCH   3  15
BRANCH   4  21
ATOM     21  O   LIG    1       21.584 -28.117  12.007  0.00  0.00    -0.369 OA
BRANCH  21  22
ATOM     22  C   LIG    1       21.727 -27.349  13.236  0.00  0.00    +0.191 C 
BRANCH  22  23
ATOM     23  C   LIG    1       20.441 -26.703  13.824  0.00  0.00    +0.137 C 
ATOM     24  C   LIG    1       20.368 -26.962  15.339  0.00  0.00    +0.040 C 
BRANCH  23  25
ATOM     25  O   LIG    1       19.267 -27.274  13.250  0.00  0.00    -0.390 OA
ATOM     26  H   LIG    1       19.558 -28.018  12.689  0.00  0.00    +0.210 HD
ENDBRANCH  23  25
ENDBRANCH  22  23
ENDBRANCH  21  22
ENDBRANCH   4  21
BRANCH   5  27
ATOM     27  O   LIG    1       21.480 -31.965  11.003  0.00  0.00    -0.366 OA
BRANCH  27  28
ATOM     28  C   LIG    1       22.364 -33.076  11.084  0.00  0.00    +0.191 C 
BRANCH  28  29
ATOM     29  C   LIG    1       23.134 -33.697   9.846  0.00  0.00    +0.137 C 
ATOM     30  C   LIG    1       24.627 -33.754   9.961  0.00  0.00    +0.040 C 
BRANCH  29  31
ATOM     31  O   LIG    1       22.882 -33.005   8.609  0.00  0.00    -0.390 OA
ATOM     32  H   LIG    1       23.161 -32.086   8.711  0.00  0.00    +0.210 HD
ENDBRANCH  29  31
ENDBRANCH  28  29
ENDBRANCH  27  28
ENDBRANCH   5  27
ENDBRANCH   1   6
BRANCH   1  33
ATOM     33  C   LIG    1       24.271 -29.790   8.562  0.00  0.00    +0.184 C 
ATOM     34  C   LIG    1       25.655 -30.593   8.689  0.00  0.00    +0.178 C 
ATOM     35  O   LIG    1       26.381 -30.513   7.453  0.00  0.00    -0.341 OA
ATOM     36  C   LIG    1       25.624 -30.916   6.314  0.00  0.00    +0.282 C 
ATOM     37  C   LIG    1       24.568 -29.831   5.898  0.00  0.00    +0.205 C 
ATOM     38  C   LIG    1       24.088 -28.956   7.167  0.00  0.00    +0.183 C 
BRANCH  38  39
ATOM     39  O   LIG    1       24.631 -27.629   7.305  0.00  0.00    -0.369 OA
BRANCH  39  40
ATOM     40  C   LIG    1       24.208 -26.486   6.535  0.00  0.00    +0.191 C 
BRANCH  40  41
ATOM     41  C   LIG    1       24.625 -25.003   6.854  0.00  0.00    +0.137 C 
ATOM     42  C   LIG    1       23.415 -24.050   6.769  0.00  0.00    +0.040 C 
BRANCH  41  43
ATOM     43  O   LIG    1       25.633 -24.463   6.009  0.00  0.00    -0.390 OA
ATOM     44  H   LIG    1       26.373 -24.196   6.576  0.00  0.00    +0.210 HD
ENDBRANCH  41  43
ENDBRANCH  40  41
ENDBRANCH  39  40
ENDBRANCH  38  39
BRANCH  37  45
ATOM     45  O   LIG    1       24.872 -28.947   4.799  0.00  0.00    -0.366 OA
BRANCH  45  46
ATOM     46  C   LIG    1       26.131 -28.820   4.142  0.00  0.00    +0.191 C 
BRANCH  46  47
ATOM     47  C   LIG    1       26.788 -27.429   4.253  0.00  0.00    +0.137 C 
ATOM     48  C   LIG    1       27.374 -27.153   5.644  0.00  0.00    +0.040 C 
BRANCH  47  49
ATOM     49  O   LIG    1       25.841 -26.393   3.974  0.00  0.00    -0.390 OA
ATOM     50  H   LIG    1       25.086 -26.790   3.506  0.00  0.00    +0.210 HD
ENDBRANCH  47  49
ENDBRANCH  46  47
ENDBRANCH  45  46
ENDBRANCH  37  45
BRANCH  36  51
ATOM     51  O   LIG    1       24.941 -32.136   6.538  0.00  0.00    -0.346 OA
BRANCH  51  52
ATOM     52  C   LIG    1       25.639 -33.304   5.971  0.00  0.00    +0.194 C 
BRANCH  52  53
ATOM     53  C   LIG    1       25.057 -33.650   4.597  0.00  0.00    +0.137 C 
ATOM     54  C   LIG    1       25.831 -33.069   3.410  0.00  0.00    +0.040 C 
BRANCH  53  55
ATOM     55  O   LIG    1       23.711 -33.110   4.594  0.00  0.00    -0.390 OA
ATOM     56  H   LIG    1       23.119 -33.768   4.993  0.00  0.00    +0.210 HD
ENDBRANCH  53  55
ENDBRANCH  52  53
ENDBRANCH  51  52
ENDBRANCH  36  51
BRANCH  34  57
ATOM     57  C   LIG    1       26.655 -30.322   9.850  0.00  0.00    +0.194 C 
BRANCH  57  58
ATOM     58  O   LIG    1       27.193 -28.992  10.068  0.00  0.00    -0.375 OA
BRANCH  58  59
ATOM     59  C   LIG    1       27.485 -28.691  11.428  0.00  0.00    +0.190 C 
BRANCH  59  60
ATOM     60  C   LIG    1       28.572 -29.580  12.082  0.00  0.00    +0.137 C 
ATOM     61  C   LIG    1       28.769 -29.381  13.586  0.00  0.00    +0.040 C 
BRANCH  60  62
ATOM     62  O   LIG    1       29.814 -29.258  11.434  0.00  0.00    -0.390 OA
ATOM     63  H   LIG    1       30.529 -29.689  11.931  0.00  0.00    +0.210 HD
ENDBRANCH  60  62
ENDBRANCH  59  60
ENDBRANCH  58  59
ENDBRANCH  57  58
ENDBRANCH  34  57
ENDBRANCH   1  33
TORSDOF 36
ENDMDL
MODEL 8
REMARK VINA RESULT:      -2.2      2.868      8.228
REMARK  Name = *****
REMARK                            x       y       z     vdW  Elec       q    Type
REMARK                         _______ _______ _______ _____ _____    ______ ____
ROOT
ATOM      1  O   LIG    1       25.312 -28.473   7.951  0.00  0.00    -0.340 OA
ENDROOT
BRANCH   1   6
ATOM      2  C   LIG    1       24.121 -29.893  11.237  0.00  0.00    +0.178 C 
ATOM      3  C   LIG    1       25.153 -31.168  11.231  0.00  0.00    +0.181 C 
ATOM      4  C   LIG    1       26.066 -31.014   9.987  0.00  0.00    +0.183 C 
ATOM      5  C   LIG    1       26.474 -29.468   9.883  0.00  0.00    +0.205 C 
ATOM      6  C   LIG    1       25.290 -28.642   9.394  0.00  0.00    +0.282 C 
ATOM      7  O   LIG    1       24.034 -29.269   9.878  0.00  0.00    -0.341 OA
BRANCH   2   8
ATOM      8  C   LIG    1       22.621 -29.696  12.063  0.00  0.00    +0.194 C 
BRANCH   8   9
ATOM      9  O   LIG    1       21.706 -30.845  12.445  0.00  0.00    -0.375 OA
BRANCH   9  10
ATOM     10  C   LIG    1       20.246 -30.919  12.145  0.00  0.00    +0.190 C 
BRANCH  10  12
ATOM     11  C   LIG    1       19.990 -32.554  10.479  0.00  0.00    +0.040 C 
ATOM     12  C   LIG    1       19.858 -31.069  10.638  0.00  0.00    +0.137 C 
BRANCH  12  13
ATOM     13  O   LIG    1       18.685 -30.526  10.151  0.00  0.00    -0.390 OA
ATOM     14  H   LIG    1       18.081 -30.155  10.846  0.00  0.00    +0.210 HD
ENDBRANCH  12  13
ENDBRANCH  10  12
ENDBRANCH   9  10
ENDBRANCH   8   9
ENDBRANCH   2   8
BRANCH   3  15
ATOM     15  O   LIG    1       26.222 -31.429  12.236  0.00  0.00    -0.369 OA
BRANCH  15  16
ATOM     16  C   LIG    1       26.387 -31.010  13.619  0.00  0.00    +0.191 C 
BRANCH  16  17
ATOM     17  C   LIG    1       26.383 -32.150  14.687  0.00  0.00    +0.137 C 
ATOM     18  C   LIG    1       25.464 -33.335  14.564  0.00  0.00    +0.040 C 
BRANCH  17  19
ATOM     19  O   LIG    1       27.659 -32.676  14.959  0.00  0.00    -0.390 OA
ATOM     20  H   LIG    1       27.785 -32.858  15.916  0.00  0.00    +0.210 HD
ENDBRANCH  17  19
ENDBRANCH  16  17
ENDBRANCH  15  16
ENDBRANCH   3  15
BRANCH   4  21
ATOM     21  O   LIG    1       25.471 -31.620   8.762  0.00  0.00    -0.369 OA
BRANCH  21  22
ATOM     22  C   LIG    1       24.820 -32.905   8.974  0.00  0.00    +0.191 C 
BRANCH  22  23
ATOM     23  C   LIG    1       23.276 -32.956   8.806  0.00  0.00    +0.137 C 
ATOM     24  C   LIG    1       22.911 -33.731   7.527  0.00  0.00    +0.040 C 
BRANCH  23  25
ATOM     25  O   LIG    1       22.728 -31.647   8.666  0.00  0.00    -0.390 OA
ATOM     26  H   LIG    1       22.565 -31.309   9.566  0.00  0.00    +0.210 HD
ENDBRANCH  23  25
ENDBRANCH  22  23
ENDBRANCH  21  22
ENDBRANCH   4  21
BRANCH   5  27
ATOM     27  O   LIG    1       27.250 -28.767  10.890  0.00  0.00    -0.366 OA
BRANCH  27  28
ATOM     28  C   LIG    1       26.903 -27.542  11.522  0.00  0.00    +0.191 C 
BRANCH  28  29
ATOM     29  C   LIG    1       26.611 -27.389  13.073  0.00  0.00    +0.137 C 
ATOM     30  C   LIG    1       25.469 -26.492  13.441  0.00  0.00    +0.040 C 
BRANCH  29  31
ATOM     31  O   LIG    1       27.734 -26.888  13.820  0.00  0.00    -0.390 OA
ATOM     32  H   LIG    1       27.700 -25.922  13.813  0.00  0.00    +0.210 HD
ENDBRANCH  29  31
ENDBRANCH  28  29
ENDBRANCH  27  28
ENDBRANCH   5  27
ENDBRANCH   1   6
BRANCH   1  33
ATOM     33  C   LIG    1       25.044 -27.196   7.275  0.00  0.00    +0.184 C 
ATOM     34  C   LIG    1       24.106 -27.264   5.974  0.00  0.00    +0.178 C 
ATOM     35  O   LIG    1       24.278 -26.077   5.185  0.00  0.00    -0.341 OA
ATOM     36  C   LIG    1       24.099 -24.868   5.918  0.00  0.00    +0.282 C 
ATOM     37  C   LIG    1       25.322 -24.563   6.854  0.00  0.00    +0.205 C 
ATOM     38  C   LIG    1       26.065 -25.920   7.316  0.00  0.00    +0.183 C 
BRANCH  38  39
ATOM     39  O   LIG    1       27.307 -26.253   6.667  0.00  0.00    -0.369 OA
BRANCH  39  40
ATOM     40  C   LIG    1       27.555 -27.480   5.953  0.00  0.00    +0.191 C 
BRANCH  40  41
ATOM     41  C   LIG    1       27.554 -27.604   4.384  0.00  0.00    +0.137 C 
ATOM     42  C   LIG    1       28.951 -27.314   3.799  0.00  0.00    +0.040 C 
BRANCH  41  43
ATOM     43  O   LIG    1       26.641 -26.747   3.710  0.00  0.00    -0.390 OA
ATOM     44  H   LIG    1       25.762 -26.906   4.090  0.00  0.00    +0.210 HD
ENDBRANCH  41  43
ENDBRANCH  40  41
ENDBRANCH  39  40
ENDBRANCH  38  39
BRANCH  37  45
ATOM     45  O   LIG    1       26.309 -23.604   6.422  0.00  0.00    -0.366 OA
BRANCH  45  46
ATOM     46  C   LIG    1       27.086 -22.755   7.265  0.00  0.00    +0.191 C 
BRANCH  46  47
ATOM     47  C   LIG    1       27.152 -21.280   6.823  0.00  0.00    +0.137 C 
ATOM     48  C   LIG    1       26.538 -20.319   7.850  0.00  0.00    +0.040 C 
BRANCH  47  49
ATOM     49  O   LIG    1       26.457 -21.085   5.587  0.00  0.00    -0.390 OA
ATOM     50  H   LIG    1       26.753 -20.242   5.202  0.00  0.00    +0.210 HD
ENDBRANCH  47  49
ENDBRANCH  46  47
ENDBRANCH  45  46
ENDBRANCH  37  45
BRANCH  36  51
ATOM     51  O   LIG    1       22.929 -24.902   6.716  0.00  0.00    -0.346 OA
BRANCH  51  52
ATOM     52  C   LIG    1       22.522 -23.572   7.205  0.00  0.00    +0.194 C 
BRANCH  52  53
ATOM     53  C   LIG    1       22.876 -22.499   6.171  0.00  0.00    +0.137 C 
ATOM     54  C   LIG    1       23.332 -21.164   6.766  0.00  0.00    +0.040 C 
BRANCH  53  55
ATOM     55  O   LIG    1       21.667 -22.285   5.398  0.00  0.00    -0.390 OA
ATOM     56  H   LIG    1       20.915 -22.261   6.011  0.00  0.00    +0.210 HD
ENDBRANCH  53  55
ENDBRANCH  52  53
ENDBRANCH  51  52
ENDBRANCH  36  51
BRANCH  34  57
ATOM     57  C   LIG    1       24.129 -28.486   5.011  0.00  0.00    +0.194 C 
BRANCH  57  58
ATOM     58  O   LIG    1       23.319 -29.659   5.283  0.00  0.00    -0.375 OA
BRANCH  58  59
ATOM     59  C   LIG    1       24.058 -30.802   5.696  0.00  0.00    +0.190 C 
BRANCH  59  60
ATOM     60  C   LIG    1       25.518 -30.865   5.184  0.00  0.00    +0.137 C 
ATOM     61  C   LIG    1       25.872 -32.096   4.347  0.00  0.00    +0.040 C 
BRANCH  60  62
ATOM     62  O   LIG    1       26.365 -30.870   6.346  0.00  0.00    -0.390 OA
ATOM     63  H   LIG    1       26.775 -29.993   6.419  0.00  0.00    +0.210 HD
ENDBRANCH  60  62
ENDBRANCH  59  60
ENDBRANCH  58  59
ENDBRANCH  57  58
ENDBRANCH  34  57
ENDBRANCH   1  33
TORSDOF 36
ENDMDL
MODEL 9
REMARK VINA RESULT:      -2.2      1.760      3.947
REMARK  Name = *****
REMARK                            x       y       z     vdW  Elec       q    Type
REMARK                         _______ _______ _______ _____ _____    ______ ____
ROOT
ATOM      1  O   LIG    1       23.236 -29.594   9.498  0.00  0.00    -0.340 OA
ENDROOT
BRANCH   1   6
ATOM      2  C   LIG    1       23.088 -31.147  12.933  0.00  0.00    +0.178 C 
ATOM      3  C   LIG    1       21.651 -30.469  13.341  0.00  0.00    +0.181 C 
ATOM      4  C   LIG    1       21.139 -29.696  12.098  0.00  0.00    +0.183 C 
ATOM      5  C   LIG    1       21.420 -30.614  10.816  0.00  0.00    +0.205 C 
ATOM      6  C   LIG    1       22.908 -30.612  10.482  0.00  0.00    +0.282 C 
ATOM      7  O   LIG    1       23.682 -30.463  11.740  0.00  0.00    -0.341 OA
BRANCH   2   8
ATOM      8  C   LIG    1       24.348 -31.745  13.946  0.00  0.00    +0.194 C 
BRANCH   8   9
ATOM      9  O   LIG    1       25.467 -30.886  14.505  0.00  0.00    -0.375 OA
BRANCH   9  10
ATOM     10  C   LIG    1       26.777 -30.637  13.835  0.00  0.00    +0.190 C 
BRANCH  10  12
ATOM     11  C   LIG    1       28.818 -29.518  14.142  0.00  0.00    +0.040 C 
ATOM     12  C   LIG    1       27.363 -29.195  13.979  0.00  0.00    +0.137 C 
BRANCH  12  13
ATOM     13  O   LIG    1       27.076 -28.217  13.048  0.00  0.00    -0.390 OA
ATOM     14  H   LIG    1       27.386 -28.418  12.127  0.00  0.00    +0.210 HD
ENDBRANCH  12  13
ENDBRANCH  10  12
ENDBRANCH   9  10
ENDBRANCH   8   9
ENDBRANCH   2   8
BRANCH   3  15
ATOM     15  O   LIG    1       20.395 -31.210  13.651  0.00  0.00    -0.369 OA
BRANCH  15  16
ATOM     16  C   LIG    1       19.649 -31.396  14.885  0.00  0.00    +0.191 C 
BRANCH  16  17
ATOM     17  C   LIG    1       18.369 -30.516  15.053  0.00  0.00    +0.137 C 
ATOM     18  C   LIG    1       18.058 -29.395  14.099  0.00  0.00    +0.040 C 
BRANCH  17  19
ATOM     19  O   LIG    1       17.182 -31.262  15.175  0.00  0.00    -0.390 OA
ATOM     20  H   LIG    1       17.336 -32.222  15.042  0.00  0.00    +0.210 HD
ENDBRANCH  17  19
ENDBRANCH  16  17
ENDBRANCH  15  16
ENDBRANCH   3  15
BRANCH   4  21
ATOM     21  O   LIG    1       21.662 -28.302  12.036  0.00  0.00    -0.369 OA
BRANCH  21  22
ATOM     22  C   LIG    1       21.902 -27.683  13.332  0.00  0.00    +0.191 C 
BRANCH  22  23
ATOM     23  C   LIG    1       23.381 -27.538  13.788  0.00  0.00    +0.137 C 
ATOM     24  C   LIG    1       23.680 -26.070  14.144  0.00  0.00    +0.040 C 
BRANCH  23  25
ATOM     25  O   LIG    1       24.281 -27.901  12.743  0.00  0.00    -0.390 OA
ATOM     26  H   LIG    1       23.780 -27.856  11.907  0.00  0.00    +0.210 HD
ENDBRANCH  23  25
ENDBRANCH  22  23
ENDBRANCH  21  22
ENDBRANCH   4  21
BRANCH   5  27
ATOM     27  O   LIG    1       20.815 -31.916  10.605  0.00  0.00    -0.366 OA
BRANCH  27  28
ATOM     28  C   LIG    1       19.466 -32.172  10.238  0.00  0.00    +0.191 C 
BRANCH  28  29
ATOM     29  C   LIG    1       18.207 -31.566  10.986  0.00  0.00    +0.137 C 
ATOM     30  C   LIG    1       17.305 -32.554  11.663  0.00  0.00    +0.040 C 
BRANCH  29  31
ATOM     31  O   LIG    1       17.343 -30.802  10.126  0.00  0.00    -0.390 OA
ATOM     32  H   LIG    1       16.434 -30.905  10.437  0.00  0.00    +0.210 HD
ENDBRANCH  29  31
ENDBRANCH  28  29
ENDBRANCH  27  28
ENDBRANCH   5  27
ENDBRANCH   1   6
BRANCH   1  33
ATOM     33  C   LIG    1       24.010 -29.858   8.277  0.00  0.00    +0.184 C 
ATOM     34  C   LIG    1       25.404 -30.628   8.472  0.00  0.00    +0.178 C 
ATOM     35  O   LIG    1       26.234 -30.437   7.316  0.00  0.00    -0.341 OA
ATOM     36  C   LIG    1       25.596 -30.777   6.088  0.00  0.00    +0.282 C 
ATOM     37  C   LIG    1       24.544 -29.695   5.655  0.00  0.00    +0.205 C 
ATOM     38  C   LIG    1       23.922 -28.930   6.934  0.00  0.00    +0.183 C 
BRANCH  38  39
ATOM     39  O   LIG    1       24.404 -27.601   7.213  0.00  0.00    -0.369 OA
BRANCH  39  40
ATOM     40  C   LIG    1       23.917 -26.403   6.578  0.00  0.00    +0.191 C 
BRANCH  40  41
ATOM     41  C   LIG    1       24.676 -25.024   6.593  0.00  0.00    +0.137 C 
ATOM     42  C   LIG    1       24.984 -24.539   5.162  0.00  0.00    +0.040 C 
BRANCH  41  43
ATOM     43  O   LIG    1       25.909 -25.021   7.302  0.00  0.00    -0.390 OA
ATOM     44  H   LIG    1       25.713 -24.784   8.222  0.00  0.00    +0.210 HD
ENDBRANCH  41  43
ENDBRANCH  40  41
ENDBRANCH  39  40
ENDBRANCH  38  39
BRANCH  37  45
ATOM     45  O   LIG    1       24.912 -28.725   4.653  0.00  0.00    -0.366 OA
BRANCH  45  46
ATOM     46  C   LIG    1       26.230 -28.466   4.174  0.00  0.00    +0.191 C 
BRANCH  46  47
ATOM     47  C   LIG    1       26.977 -27.329   4.900  0.00  0.00    +0.137 C 
ATOM     48  C   LIG    1       28.446 -27.209   4.472  0.00  0.00    +0.040 C 
BRANCH  47  49
ATOM     49  O   LIG    1       26.960 -27.529   6.317  0.00  0.00    -0.390 OA
ATOM     50  H   LIG    1       26.192 -28.086   6.536  0.00  0.00    +0.210 HD
ENDBRANCH  47  49
ENDBRANCH  46  47
ENDBRANCH  45  46
ENDBRANCH  37  45
BRANCH  36  51
ATOM     51  O   LIG    1       24.939 -32.030   6.162  0.00  0.00    -0.346 OA
BRANCH  51  52
ATOM     52  C   LIG    1       24.087 -32.308   4.992  0.00  0.00    +0.194 C 
BRANCH  52  53
ATOM     53  C   LIG    1       24.646 -33.497   4.204  0.00  0.00    +0.137 C 
ATOM     54  C   LIG    1       26.050 -33.281   3.633  0.00  0.00    +0.040 C 
BRANCH  53  55
ATOM     55  O   LIG    1       23.718 -33.713   3.110  0.00  0.00    -0.390 OA
ATOM     56  H   LIG    1       23.086 -34.399   3.380  0.00  0.00    +0.210 HD
ENDBRANCH  53  55
ENDBRANCH  52  53
ENDBRANCH  51  52
ENDBRANCH  36  51
BRANCH  34  57
ATOM     57  C   LIG    1       26.288 -30.414   9.736  0.00  0.00    +0.194 C 
BRANCH  57  58
ATOM     58  O   LIG    1       26.874 -31.546  10.429  0.00  0.00    -0.375 OA
BRANCH  58  59
ATOM     59  C   LIG    1       26.016 -32.675  10.545  0.00  0.00    +0.190 C 
BRANCH  59  60
ATOM     60  C   LIG    1       26.280 -33.813   9.529  0.00  0.00    +0.137 C 
ATOM     61  C   LIG    1       27.575 -33.690   8.723  0.00  0.00    +0.040 C 
BRANCH  60  62
ATOM     62  O   LIG    1       25.185 -33.798   8.597  0.00  0.00    -0.390 OA
ATOM     63  H   LIG    1       24.942 -34.719   8.409  0.00  0.00    +0.210 HD
ENDBRANCH  60  62
ENDBRANCH  59  60
ENDBRANCH  58  59
ENDBRANCH  57  58
ENDBRANCH  34  57
ENDBRANCH   1  33
TORSDOF 36
ENDMDL
