MODEL 1
REMARK VINA RESULT:      -5.4      0.000      0.000
REMARK  Name = *****
REMARK                            x       y       z     vdW  Elec       q    Type
REMARK                         _______ _______ _______ _____ _____    ______ ____
ROOT
ATOM      1  C   LIG    1       23.567 -21.156   6.234  0.00  0.00    +0.406 C 
ATOM      2  F   LIG    1       23.081 -21.066   7.504  0.00  0.00    -0.205 F 
ENDROOT
BRANCH   1   3
ATOM      3  C   LIG    1       22.685 -20.394   5.230  0.00  0.00    +0.446 C 
ATOM      4  F   LIG    1       23.346 -20.208   4.058  0.00  0.00    -0.165 F 
ATOM      5  F   LIG    1       22.316 -19.175   5.679  0.00  0.00    -0.165 F 
ATOM      6  F   LIG    1       21.560 -21.088   4.929  0.00  0.00    -0.165 F 
ENDBRANCH   1   3
BRANCH   1   7
ATOM      7  O   LIG    1       23.880 -22.520   5.968  0.00  0.00    -0.280 OA
BRANCH   7   9
ATOM      8  F   LIG    1       21.998 -23.599   6.576  0.00  0.00    -0.178 F 
ATOM      9  C   LIG    1       23.301 -23.414   6.896  0.00  0.00    +0.485 C 
ATOM     10  F   LIG    1       23.919 -24.602   6.821  0.00  0.00    -0.178 F 
ENDBRANCH   7   9
ENDBRANCH   1   7
TORSDOF 3
ENDMDL
MODEL 2
REMARK VINA RESULT:      -5.4      0.062      1.193
REMARK  Name = *****
REMARK                            x       y       z     vdW  Elec       q    Type
REMARK                         _______ _______ _______ _____ _____    ______ ____
ROOT
ATOM      1  C   LIG    1       23.569 -21.103   6.216  0.00  0.00    +0.406 C 
ATOM      2  F   LIG    1       23.072 -21.003   7.482  0.00  0.00    -0.205 F 
ENDROOT
BRANCH   1   3
ATOM      3  C   LIG    1       22.703 -20.338   5.201  0.00  0.00    +0.446 C 
ATOM      4  F   LIG    1       21.567 -21.031   4.923  0.00  0.00    -0.165 F 
ATOM      5  F   LIG    1       23.338 -20.125   4.028  0.00  0.00    -0.165 F 
ATOM      6  F   LIG    1       22.308 -19.137   5.689  0.00  0.00    -0.165 F 
ENDBRANCH   1   3
BRANCH   1   7
ATOM      7  O   LIG    1       23.872 -22.472   5.960  0.00  0.00    -0.280 OA
BRANCH   7   9
ATOM      8  F   LIG    1       21.995 -23.565   6.555  0.00  0.00    -0.178 F 
ATOM      9  C   LIG    1       23.288 -23.355   6.895  0.00  0.00    +0.485 C 
ATOM     10  F   LIG    1       23.925 -24.534   6.857  0.00  0.00    -0.178 F 
ENDBRANCH   7   9
ENDBRANCH   1   7
TORSDOF 3
ENDMDL
MODEL 3
REMARK VINA RESULT:      -5.3      2.032      3.091
REMARK  Name = *****
REMARK                            x       y       z     vdW  Elec       q    Type
REMARK                         _______ _______ _______ _____ _____    ______ ____
ROOT
ATOM      1  C   LIG    1       23.295 -21.415   7.073  0.00  0.00    +0.406 C 
ATOM      2  F   LIG    1       24.008 -22.560   6.875  0.00  0.00    -0.205 F 
ENDROOT
BRANCH   1   3
ATOM      3  C   LIG    1       22.860 -20.777   5.743  0.00  0.00    +0.446 C 
ATOM      4  F   LIG    1       22.549 -19.466   5.921  0.00  0.00    -0.165 F 
ATOM      5  F   LIG    1       21.775 -21.375   5.206  0.00  0.00    -0.165 F 
ATOM      6  F   LIG    1       23.856 -20.812   4.824  0.00  0.00    -0.165 F 
ENDBRANCH   1   3
BRANCH   1   7
ATOM      7  O   LIG    1       23.992 -20.611   8.020  0.00  0.00    -0.280 OA
BRANCH   7   9
ATOM      8  F   LIG    1       25.912 -20.156   6.934  0.00  0.00    -0.178 F 
ATOM      9  C   LIG    1       25.390 -20.810   7.998  0.00  0.00    +0.485 C 
ATOM     10  F   LIG    1       25.935 -20.296   9.110  0.00  0.00    -0.178 F 
ENDBRANCH   7   9
ENDBRANCH   1   7
TORSDOF 3
ENDMDL
MODEL 4
REMARK VINA RESULT:      -5.2      1.107      3.777
REMARK  Name = *****
REMARK                            x       y       z     vdW  Elec       q    Type
REMARK                         _______ _______ _______ _____ _____    ______ ____
ROOT
ATOM      1  C   LIG    1       23.228 -22.243   6.496  0.00  0.00    +0.406 C 
ATOM      2  F   LIG    1       22.996 -21.715   7.731  0.00  0.00    -0.205 F 
ENDROOT
BRANCH   1   3
ATOM      3  C   LIG    1       24.031 -23.553   6.577  0.00  0.00    +0.446 C 
ATOM      4  F   LIG    1       23.216 -24.593   6.894  0.00  0.00    -0.165 F 
ATOM      5  F   LIG    1       25.007 -23.511   7.510  0.00  0.00    -0.165 F 
ATOM      6  F   LIG    1       24.600 -23.862   5.387  0.00  0.00    -0.165 F 
ENDBRANCH   1   3
BRANCH   1   7
ATOM      7  O   LIG    1       23.702 -21.203   5.645  0.00  0.00    -0.280 OA
BRANCH   7   9
ATOM      8  F   LIG    1       21.548 -21.216   4.989  0.00  0.00    -0.178 F 
ATOM      9  C   LIG    1       22.663 -20.451   5.054  0.00  0.00    +0.485 C 
ATOM     10  F   LIG    1       22.390 -19.384   5.818  0.00  0.00    -0.178 F 
ENDBRANCH   7   9
ENDBRANCH   1   7
TORSDOF 3
ENDMDL
MODEL 5
REMARK VINA RESULT:      -5.2      1.497      4.041
REMARK  Name = *****
REMARK                            x       y       z     vdW  Elec       q    Type
REMARK                         _______ _______ _______ _____ _____    ______ ____
ROOT
ATOM      1  C   LIG    1       23.288 -22.960   6.755  0.00  0.00    +0.406 C 
ATOM      2  F   LIG    1       22.132 -23.663   6.924  0.00  0.00    -0.205 F 
ENDROOT
BRANCH   1   3
ATOM      3  C   LIG    1       24.506 -23.890   6.623  0.00  0.00    +0.446 C 
ATOM      4  F   LIG    1       25.124 -23.701   5.427  0.00  0.00    -0.165 F 
ATOM      5  F   LIG    1       24.177 -25.197   6.701  0.00  0.00    -0.165 F 
ATOM      6  F   LIG    1       25.434 -23.633   7.577  0.00  0.00    -0.165 F 
ENDBRANCH   1   3
BRANCH   1   7
ATOM      7  O   LIG    1       23.326 -21.918   7.725  0.00  0.00    -0.280 OA
BRANCH   7   9
ATOM      8  F   LIG    1       24.789 -20.540   6.709  0.00  0.00    -0.178 F 
ATOM      9  C   LIG    1       23.516 -20.638   7.159  0.00  0.00    +0.485 C 
ATOM     10  F   LIG    1       22.692 -20.483   6.113  0.00  0.00    -0.178 F 
ENDBRANCH   7   9
ENDBRANCH   1   7
TORSDOF 3
ENDMDL
MODEL 6
REMARK VINA RESULT:      -5.1      1.959      4.073
REMARK  Name = *****
REMARK                            x       y       z     vdW  Elec       q    Type
REMARK                         _______ _______ _______ _____ _____    ______ ____
ROOT
ATOM      1  C   LIG    1       24.089 -21.099   4.781  0.00  0.00    +0.406 C 
ATOM      2  F   LIG    1       23.834 -21.519   3.510  0.00  0.00    -0.205 F 
ENDROOT
BRANCH   1   3
ATOM      3  C   LIG    1       22.807 -21.024   5.626  0.00  0.00    +0.446 C 
ATOM      4  F   LIG    1       22.700 -19.809   6.226  0.00  0.00    -0.165 F 
ATOM      5  F   LIG    1       22.768 -21.957   6.603  0.00  0.00    -0.165 F 
ATOM      6  F   LIG    1       21.697 -21.171   4.862  0.00  0.00    -0.165 F 
ENDBRANCH   1   3
BRANCH   1   7
ATOM      7  O   LIG    1       24.931 -19.952   4.714  0.00  0.00    -0.280 OA
BRANCH   7   9
ATOM      8  F   LIG    1       23.572 -18.424   3.771  0.00  0.00    -0.178 F 
ATOM      9  C   LIG    1       24.694 -19.154   3.573  0.00  0.00    +0.485 C 
ATOM     10  F   LIG    1       25.717 -18.305   3.399  0.00  0.00    -0.178 F 
ENDBRANCH   7   9
ENDBRANCH   1   7
TORSDOF 3
ENDMDL
MODEL 7
REMARK VINA RESULT:      -5.1      1.298      2.117
REMARK  Name = *****
REMARK                            x       y       z     vdW  Elec       q    Type
REMARK                         _______ _______ _______ _____ _____    ______ ____
ROOT
ATOM      1  C   LIG    1       23.193 -20.272   5.550  0.00  0.00    +0.406 C 
ATOM      2  F   LIG    1       22.321 -19.233   5.686  0.00  0.00    -0.205 F 
ENDROOT
BRANCH   1   3
ATOM      3  C   LIG    1       24.111 -20.092   4.329  0.00  0.00    +0.446 C 
ATOM      4  F   LIG    1       25.416 -20.123   4.704  0.00  0.00    -0.165 F 
ATOM      5  F   LIG    1       23.906 -18.919   3.690  0.00  0.00    -0.165 F 
ATOM      6  F   LIG    1       23.947 -21.093   3.431  0.00  0.00    -0.165 F 
ENDBRANCH   1   3
BRANCH   1   7
ATOM      7  O   LIG    1       22.465 -21.489   5.683  0.00  0.00    -0.280 OA
BRANCH   7   9
ATOM      8  F   LIG    1       23.103 -21.828   7.816  0.00  0.00    -0.178 F 
ATOM      9  C   LIG    1       23.058 -22.397   6.588  0.00  0.00    +0.485 C 
ATOM     10  F   LIG    1       22.307 -23.505   6.670  0.00  0.00    -0.178 F 
ENDBRANCH   7   9
ENDBRANCH   1   7
TORSDOF 3
ENDMDL
MODEL 8
REMARK VINA RESULT:      -5.0      2.229      4.325
REMARK  Name = *****
REMARK                            x       y       z     vdW  Elec       q    Type
REMARK                         _______ _______ _______ _____ _____    ______ ____
ROOT
ATOM      1  C   LIG    1       25.182 -23.685   5.945  0.00  0.00    +0.406 C 
ATOM      2  F   LIG    1       24.761 -22.898   4.914  0.00  0.00    -0.205 F 
ENDROOT
BRANCH   1   3
ATOM      3  C   LIG    1       25.232 -25.169   5.546  0.00  0.00    +0.446 C 
ATOM      4  F   LIG    1       26.413 -25.726   5.924  0.00  0.00    -0.165 F 
ATOM      5  F   LIG    1       25.109 -25.357   4.214  0.00  0.00    -0.165 F 
ATOM      6  F   LIG    1       24.259 -25.883   6.162  0.00  0.00    -0.165 F 
ENDBRANCH   1   3
BRANCH   1   7
ATOM      7  O   LIG    1       24.457 -23.316   7.116  0.00  0.00    -0.280 OA
BRANCH   7   9
ATOM      8  F   LIG    1       22.261 -23.744   6.859  0.00  0.00    -0.178 F 
ATOM      9  C   LIG    1       23.190 -22.760   6.833  0.00  0.00    +0.485 C 
ATOM     10  F   LIG    1       22.873 -21.863   7.778  0.00  0.00    -0.178 F 
ENDBRANCH   7   9
ENDBRANCH   1   7
TORSDOF 3
ENDMDL
MODEL 9
REMARK VINA RESULT:      -5.0      8.600      9.252
REMARK  Name = *****
REMARK                            x       y       z     vdW  Elec       q    Type
REMARK                         _______ _______ _______ _____ _____    ______ ____
ROOT
ATOM      1  C   LIG    1       31.260 -19.418   8.461  0.00  0.00    +0.406 C 
ATOM      2  F   LIG    1       31.686 -19.353   7.168  0.00  0.00    -0.205 F 
ENDROOT
BRANCH   1   3
ATOM      3  C   LIG    1       31.241 -18.032   9.126  0.00  0.00    +0.446 C 
ATOM      4  F   LIG    1       30.084 -17.379   8.838  0.00  0.00    -0.165 F 
ATOM      5  F   LIG    1       32.257 -17.242   8.718  0.00  0.00    -0.165 F 
ATOM      6  F   LIG    1       31.300 -18.126  10.477  0.00  0.00    -0.165 F 
ENDBRANCH   1   3
BRANCH   1   7
ATOM      7  O   LIG    1       31.957 -20.477   9.111  0.00  0.00    -0.280 OA
BRANCH   7   9
ATOM      8  F   LIG    1       30.122 -21.560   8.381  0.00  0.00    -0.178 F 
ATOM      9  C   LIG    1       31.213 -21.677   9.174  0.00  0.00    +0.485 C 
ATOM     10  F   LIG    1       31.957 -22.691   8.710  0.00  0.00    -0.178 F 
ENDBRANCH   7   9
ENDBRANCH   1   7
TORSDOF 3
ENDMDL
