MODEL 1
REMARK VINA RESULT:      -8.8      0.000      0.000
REMARK  Name = *****
REMARK                            x       y       z     vdW  Elec       q    Type
REMARK                         _______ _______ _______ _____ _____    ______ ____
ROOT
ATOM      1  C   LIG    1       26.155 -21.076   6.402  0.00  0.00    +0.170 C 
ENDROOT
BRANCH   1   2
ATOM      2  C   LIG    1       24.913 -20.455   5.735  0.00  0.00    +0.001 A 
ATOM      3  C   LIG    1       23.614 -20.536   6.284  0.00  0.00    +0.048 A 
ATOM      4 CL   LIG    1       23.298 -21.396   7.749  0.00  0.00    -0.083 Cl
ATOM      5  C   LIG    1       22.514 -19.925   5.657  0.00  0.00    +0.040 A 
ATOM      6  C   LIG    1       22.688 -19.246   4.456  0.00  0.00    +0.042 A 
ATOM      7 CL   LIG    1       21.336 -18.545   3.654  0.00  0.00    -0.084 Cl
ATOM      8  C   LIG    1       23.955 -19.142   3.895  0.00  0.00    +0.020 A 
ATOM      9  C   LIG    1       25.055 -19.724   4.538  0.00  0.00    +0.009 A 
ENDBRANCH   1   2
BRANCH   1  10
ATOM     10  O   LIG    1       26.184 -22.485   6.080  0.00  0.00    -0.366 OA
BRANCH  10  11
ATOM     11  C   LIG    1       25.971 -23.359   7.196  0.00  0.00    +0.196 C 
BRANCH  11  16
ATOM     12 CL   LIG    1       24.000 -28.854   5.603  0.00  0.00    -0.084 Cl
ATOM     13  C   LIG    1       24.603 -27.284   5.970  0.00  0.00    +0.041 A 
ATOM     14  C   LIG    1       25.801 -27.146   6.665  0.00  0.00    +0.020 A 
ATOM     15  C   LIG    1       26.248 -25.872   7.035  0.00  0.00    +0.007 A 
ATOM     16  C   LIG    1       25.497 -24.724   6.726  0.00  0.00    -0.022 A 
ATOM     17  C   LIG    1       24.337 -24.882   5.950  0.00  0.00    +0.007 A 
ATOM     18  C   LIG    1       23.885 -26.155   5.585  0.00  0.00    +0.020 A 
ENDBRANCH  11  16
ENDBRANCH  10  11
ENDBRANCH   1  10
BRANCH   1  19
ATOM     19  C   LIG    1       27.430 -20.403   5.838  0.00  0.00    +0.159 C 
BRANCH  19  20
ATOM     20  N   LIG    1       28.601 -20.459   6.701  0.00  0.00    -0.334 N 
ATOM     21  C   LIG    1       28.733 -21.232   7.819  0.00  0.00    +0.199 A 
ATOM     22  N   LIG    1       29.854 -21.003   8.445  0.00  0.00    -0.244 NA
ATOM     23  C   LIG    1       30.466 -20.001   7.733  0.00  0.00    +0.130 A 
ATOM     24  C   LIG    1       29.695 -19.637   6.656  0.00  0.00    +0.107 A 
ENDBRANCH  19  20
ENDBRANCH   1  19
TORSDOF 6
ENDMDL
MODEL 2
REMARK VINA RESULT:      -8.7      3.022      6.300
REMARK  Name = *****
REMARK                            x       y       z     vdW  Elec       q    Type
REMARK                         _______ _______ _______ _____ _____    ______ ____
ROOT
ATOM      1  C   LIG    1       25.719 -21.938   6.226  0.00  0.00    +0.170 C 
ENDROOT
BRANCH   1   2
ATOM      2  C   LIG    1       24.656 -21.000   5.621  0.00  0.00    +0.001 A 
ATOM      3  C   LIG    1       24.966 -19.938   4.744  0.00  0.00    +0.048 A 
ATOM      4 CL   LIG    1       26.596 -19.564   4.308  0.00  0.00    -0.083 Cl
ATOM      5  C   LIG    1       23.959 -19.128   4.189  0.00  0.00    +0.040 A 
ATOM      6  C   LIG    1       22.628 -19.348   4.524  0.00  0.00    +0.042 A 
ATOM      7 CL   LIG    1       21.396 -18.324   3.894  0.00  0.00    -0.084 Cl
ATOM      8  C   LIG    1       22.290 -20.391   5.378  0.00  0.00    +0.020 A 
ATOM      9  C   LIG    1       23.292 -21.217   5.904  0.00  0.00    +0.009 A 
ENDBRANCH   1   2
BRANCH   1  10
ATOM     10  O   LIG    1       26.650 -21.136   6.986  0.00  0.00    -0.366 OA
BRANCH  10  11
ATOM     11  C   LIG    1       27.837 -21.825   7.397  0.00  0.00    +0.196 C 
BRANCH  11  16
ATOM     12 CL   LIG    1       32.165 -17.766   8.589  0.00  0.00    -0.084 Cl
ATOM     13  C   LIG    1       30.988 -18.954   8.179  0.00  0.00    +0.041 A 
ATOM     14  C   LIG    1       29.929 -18.619   7.339  0.00  0.00    +0.020 A 
ATOM     15  C   LIG    1       28.928 -19.561   7.073  0.00  0.00    +0.007 A 
ATOM     16  C   LIG    1       28.969 -20.843   7.650  0.00  0.00    -0.022 A 
ATOM     17  C   LIG    1       30.090 -21.185   8.423  0.00  0.00    +0.007 A 
ATOM     18  C   LIG    1       31.088 -20.242   8.697  0.00  0.00    +0.020 A 
ENDBRANCH  11  16
ENDBRANCH  10  11
ENDBRANCH   1  10
BRANCH   1  19
ATOM     19  C   LIG    1       25.030 -22.947   7.177  0.00  0.00    +0.159 C 
BRANCH  19  20
ATOM     20  N   LIG    1       24.933 -24.311   6.677  0.00  0.00    -0.334 N 
ATOM     21  C   LIG    1       23.776 -24.978   6.394  0.00  0.00    +0.199 A 
ATOM     22  N   LIG    1       23.994 -26.218   6.054  0.00  0.00    -0.244 NA
ATOM     23  C   LIG    1       25.351 -26.388   6.164  0.00  0.00    +0.130 A 
ATOM     24  C   LIG    1       25.952 -25.220   6.567  0.00  0.00    +0.107 A 
ENDBRANCH  19  20
ENDBRANCH   1  19
TORSDOF 6
ENDMDL
MODEL 3
REMARK VINA RESULT:      -8.6      2.776      7.006
REMARK  Name = *****
REMARK                            x       y       z     vdW  Elec       q    Type
REMARK                         _______ _______ _______ _____ _____    ______ ____
ROOT
ATOM      1  C   LIG    1       25.009 -21.959   6.362  0.00  0.00    +0.170 C 
ENDROOT
BRANCH   1   2
ATOM      2  C   LIG    1       24.977 -23.500   6.398  0.00  0.00    +0.001 A 
ATOM      3  C   LIG    1       23.784 -24.249   6.501  0.00  0.00    +0.048 A 
ATOM      4 CL   LIG    1       22.240 -23.486   6.646  0.00  0.00    -0.083 Cl
ATOM      5  C   LIG    1       23.800 -25.655   6.497  0.00  0.00    +0.040 A 
ATOM      6  C   LIG    1       25.010 -26.336   6.419  0.00  0.00    +0.042 A 
ATOM      7 CL   LIG    1       25.040 -28.056   6.472  0.00  0.00    -0.084 Cl
ATOM      8  C   LIG    1       26.200 -25.626   6.309  0.00  0.00    +0.020 A 
ATOM      9  C   LIG    1       26.179 -24.226   6.281  0.00  0.00    +0.009 A 
ENDBRANCH   1   2
BRANCH   1  10
ATOM     10  O   LIG    1       26.321 -21.524   6.786  0.00  0.00    -0.366 OA
BRANCH  10  11
ATOM     11  C   LIG    1       26.980 -20.634   5.877  0.00  0.00    +0.196 C 
BRANCH  11  16
ATOM     12 CL   LIG    1       32.043 -18.418   8.341  0.00  0.00    -0.084 Cl
ATOM     13  C   LIG    1       30.657 -19.110   7.590  0.00  0.00    +0.041 A 
ATOM     14  C   LIG    1       30.117 -18.517   6.452  0.00  0.00    +0.020 A 
ATOM     15  C   LIG    1       28.942 -19.032   5.890  0.00  0.00    +0.007 A 
ATOM     16  C   LIG    1       28.288 -20.135   6.466  0.00  0.00    -0.022 A 
ATOM     17  C   LIG    1       28.898 -20.768   7.561  0.00  0.00    +0.007 A 
ATOM     18  C   LIG    1       30.069 -20.251   8.128  0.00  0.00    +0.020 A 
ENDBRANCH  11  16
ENDBRANCH  10  11
ENDBRANCH   1  10
BRANCH   1  19
ATOM     19  C   LIG    1       24.762 -21.476   4.912  0.00  0.00    +0.159 C 
BRANCH  19  20
ATOM     20  N   LIG    1       23.911 -20.302   4.781  0.00  0.00    -0.334 N 
ATOM     21  C   LIG    1       22.822 -20.015   5.552  0.00  0.00    +0.199 A 
ATOM     22  N   LIG    1       22.198 -18.945   5.141  0.00  0.00    -0.244 NA
ATOM     23  C   LIG    1       22.880 -18.537   4.022  0.00  0.00    +0.130 A 
ATOM     24  C   LIG    1       23.938 -19.377   3.771  0.00  0.00    +0.107 A 
ENDBRANCH  19  20
ENDBRANCH   1  19
TORSDOF 6
ENDMDL
MODEL 4
REMARK VINA RESULT:      -8.2      2.746      5.181
REMARK  Name = *****
REMARK                            x       y       z     vdW  Elec       q    Type
REMARK                         _______ _______ _______ _____ _____    ______ ____
ROOT
ATOM      1  C   LIG    1       26.793 -21.436   6.487  0.00  0.00    +0.170 C 
ENDROOT
BRANCH   1   2
ATOM      2  C   LIG    1       28.103 -20.700   6.831  0.00  0.00    +0.001 A 
ATOM      3  C   LIG    1       28.541 -19.539   6.156  0.00  0.00    +0.048 A 
ATOM      4 CL   LIG    1       27.655 -18.866   4.834  0.00  0.00    -0.083 Cl
ATOM      5  C   LIG    1       29.727 -18.881   6.526  0.00  0.00    +0.040 A 
ATOM      6  C   LIG    1       30.509 -19.387   7.558  0.00  0.00    +0.042 A 
ATOM      7 CL   LIG    1       31.992 -18.619   7.978  0.00  0.00    -0.084 Cl
ATOM      8  C   LIG    1       30.101 -20.523   8.246  0.00  0.00    +0.020 A 
ATOM      9  C   LIG    1       28.902 -21.159   7.897  0.00  0.00    +0.009 A 
ENDBRANCH   1   2
BRANCH   1  10
ATOM     10  O   LIG    1       26.797 -22.710   7.171  0.00  0.00    -0.366 OA
BRANCH  10  11
ATOM     11  C   LIG    1       25.497 -23.251   7.436  0.00  0.00    +0.196 C 
BRANCH  11  16
ATOM     12 CL   LIG    1       24.831 -28.713   4.919  0.00  0.00    -0.084 Cl
ATOM     13  C   LIG    1       25.024 -27.122   5.547  0.00  0.00    +0.041 A 
ATOM     14  C   LIG    1       26.292 -26.662   5.891  0.00  0.00    +0.020 A 
ATOM     15  C   LIG    1       26.438 -25.399   6.479  0.00  0.00    +0.007 A 
ATOM     16  C   LIG    1       25.319 -24.589   6.739  0.00  0.00    -0.022 A 
ATOM     17  C   LIG    1       24.061 -25.038   6.304  0.00  0.00    +0.007 A 
ATOM     18  C   LIG    1       23.913 -26.303   5.723  0.00  0.00    +0.020 A 
ENDBRANCH  11  16
ENDBRANCH  10  11
ENDBRANCH   1  10
BRANCH   1  19
ATOM     19  C   LIG    1       25.589 -20.600   6.986  0.00  0.00    +0.159 C 
BRANCH  19  20
ATOM     20  N   LIG    1       24.478 -20.486   6.053  0.00  0.00    -0.334 N 
ATOM     21  C   LIG    1       24.582 -20.308   4.703  0.00  0.00    +0.199 A 
ATOM     22  N   LIG    1       23.419 -20.144   4.138  0.00  0.00    -0.244 NA
ATOM     23  C   LIG    1       22.511 -20.168   5.167  0.00  0.00    +0.130 A 
ATOM     24  C   LIG    1       23.150 -20.362   6.367  0.00  0.00    +0.107 A 
ENDBRANCH  19  20
ENDBRANCH   1  19
TORSDOF 6
ENDMDL
MODEL 5
REMARK VINA RESULT:      -8.0      2.892      6.800
REMARK  Name = *****
REMARK                            x       y       z     vdW  Elec       q    Type
REMARK                         _______ _______ _______ _____ _____    ______ ____
ROOT
ATOM      1  C   LIG    1       24.883 -21.123   6.317  0.00  0.00    +0.170 C 
ENDROOT
BRANCH   1   2
ATOM      2  C   LIG    1       26.302 -20.574   6.562  0.00  0.00    +0.001 A 
ATOM      3  C   LIG    1       26.832 -20.339   7.850  0.00  0.00    +0.048 A 
ATOM      4 CL   LIG    1       25.899 -20.604   9.280  0.00  0.00    -0.083 Cl
ATOM      5  C   LIG    1       28.145 -19.868   8.027  0.00  0.00    +0.040 A 
ATOM      6  C   LIG    1       28.941 -19.598   6.919  0.00  0.00    +0.042 A 
ATOM      7 CL   LIG    1       30.529 -18.967   7.127  0.00  0.00    -0.084 Cl
ATOM      8  C   LIG    1       28.451 -19.827   5.639  0.00  0.00    +0.020 A 
ATOM      9  C   LIG    1       27.153 -20.326   5.467  0.00  0.00    +0.009 A 
ENDBRANCH   1   2
BRANCH   1  10
ATOM     10  O   LIG    1       24.846 -21.706   4.995  0.00  0.00    -0.366 OA
BRANCH  10  11
ATOM     11  C   LIG    1       23.701 -21.344   4.213  0.00  0.00    +0.196 C 
BRANCH  11  16
ATOM     12 CL   LIG    1       23.089 -15.325   4.333  0.00  0.00    -0.084 Cl
ATOM     13  C   LIG    1       23.230 -17.036   4.209  0.00  0.00    +0.041 A 
ATOM     14  C   LIG    1       22.203 -17.852   4.677  0.00  0.00    +0.020 A 
ATOM     15  C   LIG    1       22.354 -19.244   4.651  0.00  0.00    +0.007 A 
ATOM     16  C   LIG    1       23.535 -19.835   4.170  0.00  0.00    -0.022 A 
ATOM     17  C   LIG    1       24.520 -18.995   3.625  0.00  0.00    +0.007 A 
ATOM     18  C   LIG    1       24.374 -17.603   3.656  0.00  0.00    +0.020 A 
ENDBRANCH  11  16
ENDBRANCH  10  11
ENDBRANCH   1  10
BRANCH   1  19
ATOM     19  C   LIG    1       24.572 -22.222   7.362  0.00  0.00    +0.159 C 
BRANCH  19  20
ATOM     20  N   LIG    1       24.626 -23.590   6.865  0.00  0.00    -0.334 N 
ATOM     21  C   LIG    1       23.549 -24.380   6.584  0.00  0.00    +0.199 A 
ATOM     22  N   LIG    1       23.902 -25.590   6.247  0.00  0.00    -0.244 NA
ATOM     23  C   LIG    1       25.269 -25.610   6.357  0.00  0.00    +0.130 A 
ATOM     24  C   LIG    1       25.738 -24.382   6.757  0.00  0.00    +0.107 A 
ENDBRANCH  19  20
ENDBRANCH   1  19
TORSDOF 6
ENDMDL
MODEL 6
REMARK VINA RESULT:      -8.0      2.665      4.758
REMARK  Name = *****
REMARK                            x       y       z     vdW  Elec       q    Type
REMARK                         _______ _______ _______ _____ _____    ______ ____
ROOT
ATOM      1  C   LIG    1       25.506 -21.724   5.665  0.00  0.00    +0.170 C 
ENDROOT
BRANCH   1   2
ATOM      2  C   LIG    1       26.646 -20.939   6.343  0.00  0.00    +0.001 A 
ATOM      3  C   LIG    1       26.864 -20.936   7.739  0.00  0.00    +0.048 A 
ATOM      4 CL   LIG    1       25.823 -21.786   8.824  0.00  0.00    -0.083 Cl
ATOM      5  C   LIG    1       27.939 -20.231   8.311  0.00  0.00    +0.040 A 
ATOM      6  C   LIG    1       28.796 -19.495   7.500  0.00  0.00    +0.042 A 
ATOM      7 CL   LIG    1       30.078 -18.584   8.200  0.00  0.00    -0.084 Cl
ATOM      8  C   LIG    1       28.612 -19.485   6.123  0.00  0.00    +0.020 A 
ATOM      9  C   LIG    1       27.560 -20.214   5.553  0.00  0.00    +0.009 A 
ENDBRANCH   1   2
BRANCH   1  10
ATOM     10  O   LIG    1       25.582 -23.099   6.102  0.00  0.00    -0.366 OA
BRANCH  10  11
ATOM     11  C   LIG    1       24.881 -24.032   5.270  0.00  0.00    +0.196 C 
BRANCH  11  16
ATOM     12 CL   LIG    1       25.305 -29.566   7.679  0.00  0.00    -0.084 Cl
ATOM     13  C   LIG    1       25.240 -28.022   6.921  0.00  0.00    +0.041 A 
ATOM     14  C   LIG    1       26.129 -27.022   7.307  0.00  0.00    +0.020 A 
ATOM     15  C   LIG    1       26.021 -25.743   6.749  0.00  0.00    +0.007 A 
ATOM     16  C   LIG    1       25.018 -25.444   5.811  0.00  0.00    -0.022 A 
ATOM     17  C   LIG    1       24.188 -26.490   5.374  0.00  0.00    +0.007 A 
ATOM     18  C   LIG    1       24.290 -27.769   5.936  0.00  0.00    +0.020 A 
ENDBRANCH  11  16
ENDBRANCH  10  11
ENDBRANCH   1  10
BRANCH   1  19
ATOM     19  C   LIG    1       24.145 -21.130   6.104  0.00  0.00    +0.159 C 
BRANCH  19  20
ATOM     20  N   LIG    1       23.570 -20.147   5.197  0.00  0.00    -0.334 N 
ATOM     21  C   LIG    1       24.157 -19.669   4.060  0.00  0.00    +0.199 A 
ATOM     22  N   LIG    1       23.450 -18.726   3.502  0.00  0.00    -0.244 NA
ATOM     23  C   LIG    1       22.374 -18.542   4.333  0.00  0.00    +0.130 A 
ATOM     24  C   LIG    1       22.438 -19.403   5.402  0.00  0.00    +0.107 A 
ENDBRANCH  19  20
ENDBRANCH   1  19
TORSDOF 6
ENDMDL
MODEL 7
REMARK VINA RESULT:      -7.9      2.922      6.570
REMARK  Name = *****
REMARK                            x       y       z     vdW  Elec       q    Type
REMARK                         _______ _______ _______ _____ _____    ______ ____
ROOT
ATOM      1  C   LIG    1       25.098 -23.682   6.979  0.00  0.00    +0.170 C 
ENDROOT
BRANCH   1   2
ATOM      2  C   LIG    1       26.027 -22.496   7.305  0.00  0.00    +0.001 A 
ATOM      3  C   LIG    1       25.576 -21.297   7.898  0.00  0.00    +0.048 A 
ATOM      4 CL   LIG    1       23.908 -21.036   8.269  0.00  0.00    -0.083 Cl
ATOM      5  C   LIG    1       26.466 -20.253   8.209  0.00  0.00    +0.040 A 
ATOM      6  C   LIG    1       27.817 -20.380   7.906  0.00  0.00    +0.042 A 
ATOM      7 CL   LIG    1       28.902 -19.083   8.231  0.00  0.00    -0.084 Cl
ATOM      8  C   LIG    1       28.293 -21.551   7.329  0.00  0.00    +0.020 A 
ATOM      9  C   LIG    1       27.409 -22.602   7.050  0.00  0.00    +0.009 A 
ENDBRANCH   1   2
BRANCH   1  10
ATOM     10  O   LIG    1       24.083 -23.221   6.059  0.00  0.00    -0.366 OA
BRANCH  10  11
ATOM     11  C   LIG    1       24.589 -22.653   4.844  0.00  0.00    +0.196 C 
BRANCH  11  16
ATOM     12 CL   LIG    1       22.393 -17.046   4.253  0.00  0.00    -0.084 Cl
ATOM     13  C   LIG    1       22.979 -18.662   4.336  0.00  0.00    +0.041 A 
ATOM     14  C   LIG    1       22.242 -19.633   5.007  0.00  0.00    +0.020 A 
ATOM     15  C   LIG    1       22.759 -20.927   5.145  0.00  0.00    +0.007 A 
ATOM     16  C   LIG    1       24.022 -21.261   4.625  0.00  0.00    -0.022 A 
ATOM     17  C   LIG    1       24.707 -20.289   3.879  0.00  0.00    +0.007 A 
ATOM     18  C   LIG    1       24.196 -18.993   3.746  0.00  0.00    +0.020 A 
ENDBRANCH  11  16
ENDBRANCH  10  11
ENDBRANCH   1  10
BRANCH   1  19
ATOM     19  C   LIG    1       25.920 -24.805   6.301  0.00  0.00    +0.159 C 
BRANCH  19  20
ATOM     20  N   LIG    1       25.382 -26.150   6.450  0.00  0.00    -0.334 N 
ATOM     21  C   LIG    1       25.938 -27.156   7.188  0.00  0.00    +0.199 A 
ATOM     22  N   LIG    1       25.286 -28.278   7.057  0.00  0.00    -0.244 NA
ATOM     23  C   LIG    1       24.286 -28.011   6.157  0.00  0.00    +0.130 A 
ATOM     24  C   LIG    1       24.338 -26.699   5.754  0.00  0.00    +0.107 A 
ENDBRANCH  19  20
ENDBRANCH   1  19
TORSDOF 6
ENDMDL
MODEL 8
REMARK VINA RESULT:      -7.4      1.526      6.343
REMARK  Name = *****
REMARK                            x       y       z     vdW  Elec       q    Type
REMARK                         _______ _______ _______ _____ _____    ______ ____
ROOT
ATOM      1  C   LIG    1       25.796 -23.201   6.271  0.00  0.00    +0.170 C 
ENDROOT
BRANCH   1   2
ATOM      2  C   LIG    1       25.487 -24.707   6.163  0.00  0.00    +0.001 A 
ATOM      3  C   LIG    1       24.193 -25.247   6.329  0.00  0.00    +0.048 A 
ATOM      4 CL   LIG    1       22.835 -24.253   6.723  0.00  0.00    -0.083 Cl
ATOM      5  C   LIG    1       23.951 -26.625   6.189  0.00  0.00    +0.040 A 
ATOM      6  C   LIG    1       25.003 -27.490   5.908  0.00  0.00    +0.042 A 
ATOM      7 CL   LIG    1       24.724 -29.185   5.792  0.00  0.00    -0.084 Cl
ATOM      8  C   LIG    1       26.286 -26.987   5.731  0.00  0.00    +0.020 A 
ATOM      9  C   LIG    1       26.519 -25.610   5.840  0.00  0.00    +0.009 A 
ENDBRANCH   1   2
BRANCH   1  10
ATOM     10  O   LIG    1       24.608 -22.467   5.897  0.00  0.00    -0.366 OA
BRANCH  10  11
ATOM     11  C   LIG    1       24.595 -21.999   4.543  0.00  0.00    +0.196 C 
BRANCH  11  16
ATOM     12 CL   LIG    1       22.256 -16.418   4.490  0.00  0.00    -0.084 Cl
ATOM     13  C   LIG    1       22.875 -18.023   4.423  0.00  0.00    +0.041 A 
ATOM     14  C   LIG    1       22.226 -19.046   5.109  0.00  0.00    +0.020 A 
ATOM     15  C   LIG    1       22.776 -20.334   5.121  0.00  0.00    +0.007 A 
ATOM     16  C   LIG    1       23.985 -20.610   4.459  0.00  0.00    -0.022 A 
ATOM     17  C   LIG    1       24.576 -19.584   3.704  0.00  0.00    +0.007 A 
ATOM     18  C   LIG    1       24.031 -18.294   3.696  0.00  0.00    +0.020 A 
ENDBRANCH  11  16
ENDBRANCH  10  11
ENDBRANCH   1  10
BRANCH   1  19
ATOM     19  C   LIG    1       26.161 -22.857   7.736  0.00  0.00    +0.159 C 
BRANCH  19  20
ATOM     20  N   LIG    1       27.121 -21.774   7.903  0.00  0.00    -0.334 N 
ATOM     21  C   LIG    1       26.837 -20.518   8.356  0.00  0.00    +0.199 A 
ATOM     22  N   LIG    1       27.877 -19.732   8.310  0.00  0.00    -0.244 NA
ATOM     23  C   LIG    1       28.878 -20.492   7.758  0.00  0.00    +0.130 A 
ATOM     24  C   LIG    1       28.424 -21.758   7.481  0.00  0.00    +0.107 A 
ENDBRANCH  19  20
ENDBRANCH   1  19
TORSDOF 6
ENDMDL
MODEL 9
REMARK VINA RESULT:      -7.3      5.157      9.686
REMARK  Name = *****
REMARK                            x       y       z     vdW  Elec       q    Type
REMARK                         _______ _______ _______ _____ _____    ______ ____
ROOT
ATOM      1  C   LIG    1       24.844 -28.881   7.266  0.00  0.00    +0.170 C 
ENDROOT
BRANCH   1   2
ATOM      2  C   LIG    1       25.322 -29.089   8.717  0.00  0.00    +0.001 A 
ATOM      3  C   LIG    1       24.590 -29.819   9.679  0.00  0.00    +0.048 A 
ATOM      4 CL   LIG    1       23.048 -30.510   9.316  0.00  0.00    -0.083 Cl
ATOM      5  C   LIG    1       25.081 -30.012  10.982  0.00  0.00    +0.040 A 
ATOM      6  C   LIG    1       26.299 -29.454  11.355  0.00  0.00    +0.042 A 
ATOM      7 CL   LIG    1       26.879 -29.637  12.965  0.00  0.00    -0.084 Cl
ATOM      8  C   LIG    1       27.046 -28.737  10.428  0.00  0.00    +0.020 A 
ATOM      9  C   LIG    1       26.570 -28.573   9.121  0.00  0.00    +0.009 A 
ENDBRANCH   1   2
BRANCH   1  10
ATOM     10  O   LIG    1       25.317 -27.592   6.815  0.00  0.00    -0.366 OA
BRANCH  10  11
ATOM     11  C   LIG    1       24.332 -26.793   6.147  0.00  0.00    +0.196 C 
BRANCH  11  16
ATOM     12 CL   LIG    1       25.001 -20.982   7.699  0.00  0.00    -0.084 Cl
ATOM     13  C   LIG    1       24.828 -22.610   7.167  0.00  0.00    +0.041 A 
ATOM     14  C   LIG    1       23.562 -23.115   6.880  0.00  0.00    +0.020 A 
ATOM     15  C   LIG    1       23.415 -24.462   6.527  0.00  0.00    +0.007 A 
ATOM     16  C   LIG    1       24.526 -25.321   6.469  0.00  0.00    -0.022 A 
ATOM     17  C   LIG    1       25.801 -24.768   6.678  0.00  0.00    +0.007 A 
ATOM     18  C   LIG    1       25.950 -23.424   7.038  0.00  0.00    +0.020 A 
ENDBRANCH  11  16
ENDBRANCH  10  11
ENDBRANCH   1  10
BRANCH   1  19
ATOM     19  C   LIG    1       25.449 -29.984   6.365  0.00  0.00    +0.159 C 
BRANCH  19  20
ATOM     20  N   LIG    1       24.897 -31.318   6.554  0.00  0.00    -0.334 N 
ATOM     21  C   LIG    1       25.553 -32.385   7.097  0.00  0.00    +0.199 A 
ATOM     22  N   LIG    1       24.840 -33.476   7.050  0.00  0.00    -0.244 NA
ATOM     23  C   LIG    1       23.681 -33.122   6.406  0.00  0.00    +0.130 A 
ATOM     24  C   LIG    1       23.703 -31.789   6.074  0.00  0.00    +0.107 A 
ENDBRANCH  19  20
ENDBRANCH   1  19
TORSDOF 6
ENDMDL
