MODEL 1
REMARK VINA RESULT:      -6.4      0.000      0.000
REMARK  Name = *****
REMARK                            x       y       z     vdW  Elec       q    Type
REMARK                         _______ _______ _______ _____ _____    ______ ____
ROOT
ATOM      1  C   LIG    1       25.710 -21.404   7.326  0.00  0.00    -0.046 A 
ATOM      2  C   LIG    1       24.374 -20.982   7.359  0.00  0.00    +0.007 A 
ATOM      3  C   LIG    1       23.341 -21.894   7.135  0.00  0.00    +0.045 A 
ATOM      4  C   LIG    1       23.639 -23.224   6.873  0.00  0.00    +0.117 A 
ATOM      5  C   LIG    1       24.958 -23.666   6.842  0.00  0.00    +0.045 A 
ATOM      6  C   LIG    1       25.991 -22.754   7.074  0.00  0.00    +0.007 A 
ENDROOT
BRANCH   4   7
ATOM      7  O   LIG    1       22.601 -24.077   6.644  0.00  0.00    -0.507 OA
ATOM      8  H   LIG    1       21.820 -23.554   6.400  0.00  0.00    +0.292 HD
ENDBRANCH   4   7
BRANCH   1   9
ATOM      9  C   LIG    1       26.831 -20.413   7.543  0.00  0.00    +0.053 C 
BRANCH   9  11
ATOM     10  C   LIG    1       29.230 -19.760   6.938  0.00  0.00    +0.024 C 
ATOM     11  C   LIG    1       27.980 -20.534   6.518  0.00  0.00    +0.052 C 
BRANCH  11  12
ATOM     12  N   LIG    1       27.553 -20.017   5.209  0.00  0.00    -0.327 NA
ATOM     13  H   LIG    1       26.905 -19.241   5.340  0.00  0.00    +0.118 HD
ATOM     14  H   LIG    1       28.355 -19.639   4.706  0.00  0.00    +0.118 HD
ENDBRANCH  11  12
ENDBRANCH   9  11
ENDBRANCH   1   9
TORSDOF 4
ENDMDL
MODEL 2
REMARK VINA RESULT:      -6.3      0.105      1.460
REMARK  Name = *****
REMARK                            x       y       z     vdW  Elec       q    Type
REMARK                         _______ _______ _______ _____ _____    ______ ____
ROOT
ATOM      1  C   LIG    1       25.710 -21.392   7.315  0.00  0.00    -0.046 A 
ATOM      2  C   LIG    1       25.959 -22.756   7.106  0.00  0.00    +0.007 A 
ATOM      3  C   LIG    1       24.903 -23.639   6.876  0.00  0.00    +0.045 A 
ATOM      4  C   LIG    1       23.598 -23.165   6.860  0.00  0.00    +0.117 A 
ATOM      5  C   LIG    1       23.328 -21.816   7.059  0.00  0.00    +0.045 A 
ATOM      6  C   LIG    1       24.386 -20.930   7.281  0.00  0.00    +0.007 A 
ENDROOT
BRANCH   4   7
ATOM      7  O   LIG    1       22.596 -24.065   6.650  0.00  0.00    -0.507 OA
ATOM      8  H   LIG    1       22.921 -24.950   6.882  0.00  0.00    +0.292 HD
ENDBRANCH   4   7
BRANCH   1   9
ATOM      9  C   LIG    1       26.850 -20.438   7.588  0.00  0.00    +0.053 C 
BRANCH   9  11
ATOM     10  C   LIG    1       29.135 -19.551   6.854  0.00  0.00    +0.024 C 
ATOM     11  C   LIG    1       27.957 -20.464   6.511  0.00  0.00    +0.052 C 
BRANCH  11  12
ATOM     12  N   LIG    1       27.418 -20.031   5.213  0.00  0.00    -0.327 NA
ATOM     13  H   LIG    1       26.717 -20.698   4.892  0.00  0.00    +0.118 HD
ATOM     14  H   LIG    1       26.937 -19.138   5.317  0.00  0.00    +0.118 HD
ENDBRANCH  11  12
ENDBRANCH   9  11
ENDBRANCH   1   9
TORSDOF 4
ENDMDL
MODEL 3
REMARK VINA RESULT:      -6.1      3.293      4.782
REMARK  Name = *****
REMARK                            x       y       z     vdW  Elec       q    Type
REMARK                         _______ _______ _______ _____ _____    ______ ____
ROOT
ATOM      1  C   LIG    1       24.815 -20.714   6.875  0.00  0.00    -0.046 A 
ATOM      2  C   LIG    1       25.666 -20.524   5.777  0.00  0.00    +0.007 A 
ATOM      3  C   LIG    1       27.037 -20.347   5.970  0.00  0.00    +0.045 A 
ATOM      4  C   LIG    1       27.559 -20.353   7.256  0.00  0.00    +0.117 A 
ATOM      5  C   LIG    1       26.734 -20.545   8.359  0.00  0.00    +0.045 A 
ATOM      6  C   LIG    1       25.363 -20.731   8.165  0.00  0.00    +0.007 A 
ENDROOT
BRANCH   4   7
ATOM      7  O   LIG    1       28.901 -20.159   7.400  0.00  0.00    -0.507 OA
ATOM      8  H   LIG    1       29.367 -20.888   6.960  0.00  0.00    +0.292 HD
ENDBRANCH   4   7
BRANCH   1   9
ATOM      9  C   LIG    1       23.327 -20.881   6.669  0.00  0.00    +0.053 C 
BRANCH   9  11
ATOM     10  C   LIG    1       22.402 -19.206   4.969  0.00  0.00    +0.024 C 
ATOM     11  C   LIG    1       22.867 -20.643   5.213  0.00  0.00    +0.052 C 
BRANCH  11  12
ATOM     12  N   LIG    1       21.749 -21.538   4.877  0.00  0.00    -0.327 NA
ATOM     13  H   LIG    1       21.449 -21.369   3.918  0.00  0.00    +0.118 HD
ATOM     14  H   LIG    1       22.059 -22.509   4.913  0.00  0.00    +0.118 HD
ENDBRANCH  11  12
ENDBRANCH   9  11
ENDBRANCH   1   9
TORSDOF 4
ENDMDL
MODEL 4
REMARK VINA RESULT:      -6.1      3.174      4.901
REMARK  Name = *****
REMARK                            x       y       z     vdW  Elec       q    Type
REMARK                         _______ _______ _______ _____ _____    ______ ____
ROOT
ATOM      1  C   LIG    1       25.185 -24.888   6.807  0.00  0.00    -0.046 A 
ATOM      2  C   LIG    1       23.812 -24.813   6.532  0.00  0.00    +0.007 A 
ATOM      3  C   LIG    1       23.131 -23.602   6.662  0.00  0.00    +0.045 A 
ATOM      4  C   LIG    1       23.817 -22.466   7.071  0.00  0.00    +0.117 A 
ATOM      5  C   LIG    1       25.180 -22.515   7.343  0.00  0.00    +0.045 A 
ATOM      6  C   LIG    1       25.863 -23.727   7.205  0.00  0.00    +0.007 A 
ENDROOT
BRANCH   4   7
ATOM      7  O   LIG    1       23.110 -21.307   7.201  0.00  0.00    -0.507 OA
ATOM      8  H   LIG    1       23.621 -20.587   6.798  0.00  0.00    +0.292 HD
ENDBRANCH   4   7
BRANCH   1   9
ATOM      9  C   LIG    1       25.918 -26.205   6.691  0.00  0.00    +0.053 C 
BRANCH   9  11
ATOM     10  C   LIG    1       25.006 -28.007   5.120  0.00  0.00    +0.024 C 
ATOM     11  C   LIG    1       25.924 -26.792   5.262  0.00  0.00    +0.052 C 
BRANCH  11  12
ATOM     12  N   LIG    1       27.283 -27.211   4.888  0.00  0.00    -0.327 NA
ATOM     13  H   LIG    1       27.942 -26.933   5.614  0.00  0.00    +0.118 HD
ATOM     14  H   LIG    1       27.330 -28.229   4.833  0.00  0.00    +0.118 HD
ENDBRANCH  11  12
ENDBRANCH   9  11
ENDBRANCH   1   9
TORSDOF 4
ENDMDL
MODEL 5
REMARK VINA RESULT:      -6.1      2.356      3.000
REMARK  Name = *****
REMARK                            x       y       z     vdW  Elec       q    Type
REMARK                         _______ _______ _______ _____ _____    ______ ____
ROOT
ATOM      1  C   LIG    1       27.653 -20.320   6.864  0.00  0.00    -0.046 A 
ATOM      2  C   LIG    1       27.247 -20.486   8.195  0.00  0.00    +0.007 A 
ATOM      3  C   LIG    1       25.904 -20.708   8.502  0.00  0.00    +0.045 A 
ATOM      4  C   LIG    1       24.963 -20.759   7.482  0.00  0.00    +0.117 A 
ATOM      5  C   LIG    1       25.344 -20.603   6.153  0.00  0.00    +0.045 A 
ATOM      6  C   LIG    1       26.691 -20.389   5.846  0.00  0.00    +0.007 A 
ENDROOT
BRANCH   4   7
ATOM      7  O   LIG    1       23.660 -20.961   7.827  0.00  0.00    -0.507 OA
ATOM      8  H   LIG    1       23.147 -21.119   7.017  0.00  0.00    +0.292 HD
ENDBRANCH   4   7
BRANCH   1   9
ATOM      9  C   LIG    1       29.104 -20.055   6.533  0.00  0.00    +0.053 C 
BRANCH   9  11
ATOM     10  C   LIG    1       30.160 -18.288   8.053  0.00  0.00    +0.024 C 
ATOM     11  C   LIG    1       29.987 -19.781   7.771  0.00  0.00    +0.052 C 
BRANCH  11  12
ATOM     12  N   LIG    1       31.326 -20.360   7.582  0.00  0.00    -0.327 NA
ATOM     13  H   LIG    1       31.731 -20.013   6.712  0.00  0.00    +0.118 HD
ATOM     14  H   LIG    1       31.946 -20.051   8.330  0.00  0.00    +0.118 HD
ENDBRANCH  11  12
ENDBRANCH   9  11
ENDBRANCH   1   9
TORSDOF 4
ENDMDL
MODEL 6
REMARK VINA RESULT:      -6.1      3.292      4.747
REMARK  Name = *****
REMARK                            x       y       z     vdW  Elec       q    Type
REMARK                         _______ _______ _______ _____ _____    ______ ____
ROOT
ATOM      1  C   LIG    1       24.878 -20.651   6.874  0.00  0.00    -0.046 A 
ATOM      2  C   LIG    1       25.442 -20.680   8.157  0.00  0.00    +0.007 A 
ATOM      3  C   LIG    1       26.822 -20.552   8.324  0.00  0.00    +0.045 A 
ATOM      4  C   LIG    1       27.640 -20.400   7.213  0.00  0.00    +0.117 A 
ATOM      5  C   LIG    1       27.102 -20.362   5.931  0.00  0.00    +0.045 A 
ATOM      6  C   LIG    1       25.719 -20.482   5.765  0.00  0.00    +0.007 A 
ENDROOT
BRANCH   4   7
ATOM      7  O   LIG    1       28.984 -20.295   7.420  0.00  0.00    -0.507 OA
ATOM      8  H   LIG    1       29.316 -21.152   7.731  0.00  0.00    +0.292 HD
ENDBRANCH   4   7
BRANCH   1   9
ATOM      9  C   LIG    1       23.387 -20.815   6.691  0.00  0.00    +0.053 C 
BRANCH   9  11
ATOM     10  C   LIG    1       22.407 -19.202   4.963  0.00  0.00    +0.024 C 
ATOM     11  C   LIG    1       22.911 -20.620   5.234  0.00  0.00    +0.052 C 
BRANCH  11  12
ATOM     12  N   LIG    1       21.817 -21.551   4.924  0.00  0.00    -0.327 NA
ATOM     13  H   LIG    1       22.042 -22.080   4.082  0.00  0.00    +0.118 HD
ATOM     14  H   LIG    1       21.720 -22.236   5.674  0.00  0.00    +0.118 HD
ENDBRANCH  11  12
ENDBRANCH   9  11
ENDBRANCH   1   9
TORSDOF 4
ENDMDL
MODEL 7
REMARK VINA RESULT:      -6.0      1.565      2.264
REMARK  Name = *****
REMARK                            x       y       z     vdW  Elec       q    Type
REMARK                         _______ _______ _______ _____ _____    ______ ____
ROOT
ATOM      1  C   LIG    1       25.188 -22.252   7.819  0.00  0.00    -0.046 A 
ATOM      2  C   LIG    1       25.955 -23.385   7.512  0.00  0.00    +0.007 A 
ATOM      3  C   LIG    1       25.389 -24.451   6.810  0.00  0.00    +0.045 A 
ATOM      4  C   LIG    1       24.057 -24.391   6.421  0.00  0.00    +0.117 A 
ATOM      5  C   LIG    1       23.280 -23.275   6.710  0.00  0.00    +0.045 A 
ATOM      6  C   LIG    1       23.849 -22.204   7.405  0.00  0.00    +0.007 A 
ENDROOT
BRANCH   4   7
ATOM      7  O   LIG    1       23.540 -25.461   5.753  0.00  0.00    -0.507 OA
ATOM      8  H   LIG    1       23.417 -26.188   6.384  0.00  0.00    +0.292 HD
ENDBRANCH   4   7
BRANCH   1   9
ATOM      9  C   LIG    1       25.793 -21.108   8.600  0.00  0.00    +0.053 C 
BRANCH   9  11
ATOM     10  C   LIG    1       26.768 -20.431   6.333  0.00  0.00    +0.024 C 
ATOM     11  C   LIG    1       26.928 -20.373   7.853  0.00  0.00    +0.052 C 
BRANCH  11  12
ATOM     12  N   LIG    1       28.230 -20.967   8.189  0.00  0.00    -0.327 NA
ATOM     13  H   LIG    1       28.980 -20.339   7.902  0.00  0.00    +0.118 HD
ATOM     14  H   LIG    1       28.314 -21.071   9.200  0.00  0.00    +0.118 HD
ENDBRANCH  11  12
ENDBRANCH   9  11
ENDBRANCH   1   9
TORSDOF 4
ENDMDL
MODEL 8
REMARK VINA RESULT:      -6.0      3.539      5.164
REMARK  Name = *****
REMARK                            x       y       z     vdW  Elec       q    Type
REMARK                         _______ _______ _______ _____ _____    ______ ____
ROOT
ATOM      1  C   LIG    1       24.318 -24.449   6.552  0.00  0.00    -0.046 A 
ATOM      2  C   LIG    1       25.589 -24.035   6.976  0.00  0.00    +0.007 A 
ATOM      3  C   LIG    1       25.767 -22.774   7.548  0.00  0.00    +0.045 A 
ATOM      4  C   LIG    1       24.680 -21.922   7.690  0.00  0.00    +0.117 A 
ATOM      5  C   LIG    1       23.409 -22.314   7.282  0.00  0.00    +0.045 A 
ATOM      6  C   LIG    1       23.230 -23.580   6.717  0.00  0.00    +0.007 A 
ENDROOT
BRANCH   4   7
ATOM      7  O   LIG    1       24.901 -20.693   8.238  0.00  0.00    -0.507 OA
ATOM      8  H   LIG    1       25.802 -20.413   8.012  0.00  0.00    +0.292 HD
ENDBRANCH   4   7
BRANCH   1   9
ATOM      9  C   LIG    1       24.129 -25.804   5.910  0.00  0.00    +0.053 C 
BRANCH   9  11
ATOM     10  C   LIG    1       26.154 -27.086   5.013  0.00  0.00    +0.024 C 
ATOM     11  C   LIG    1       25.262 -26.807   6.223  0.00  0.00    +0.052 C 
BRANCH  11  12
ATOM     12  N   LIG    1       24.699 -28.090   6.671  0.00  0.00    -0.327 NA
ATOM     13  H   LIG    1       24.902 -28.228   7.661  0.00  0.00    +0.118 HD
ATOM     14  H   LIG    1       23.683 -28.072   6.586  0.00  0.00    +0.118 HD
ENDBRANCH  11  12
ENDBRANCH   9  11
ENDBRANCH   1   9
TORSDOF 4
ENDMDL
MODEL 9
REMARK VINA RESULT:      -6.0      3.154      4.128
REMARK  Name = *****
REMARK                            x       y       z     vdW  Elec       q    Type
REMARK                         _______ _______ _______ _____ _____    ______ ____
ROOT
ATOM      1  C   LIG    1       23.882 -22.832   6.699  0.00  0.00    -0.046 A 
ATOM      2  C   LIG    1       23.283 -24.080   6.475  0.00  0.00    +0.007 A 
ATOM      3  C   LIG    1       24.060 -25.238   6.432  0.00  0.00    +0.045 A 
ATOM      4  C   LIG    1       25.435 -25.153   6.605  0.00  0.00    +0.117 A 
ATOM      5  C   LIG    1       26.050 -23.927   6.834  0.00  0.00    +0.045 A 
ATOM      6  C   LIG    1       25.271 -22.768   6.886  0.00  0.00    +0.007 A 
ENDROOT
BRANCH   4   7
ATOM      7  O   LIG    1       26.159 -26.307   6.539  0.00  0.00    -0.507 OA
ATOM      8  H   LIG    1       27.069 -26.087   6.283  0.00  0.00    +0.292 HD
ENDBRANCH   4   7
BRANCH   1   9
ATOM      9  C   LIG    1       23.045 -21.574   6.721  0.00  0.00    +0.053 C 
BRANCH   9  11
ATOM     10  C   LIG    1       22.597 -19.477   5.324  0.00  0.00    +0.024 C 
ATOM     11  C   LIG    1       22.742 -21.000   5.319  0.00  0.00    +0.052 C 
BRANCH  11  12
ATOM     12  N   LIG    1       21.492 -21.568   4.793  0.00  0.00    -0.327 NA
ATOM     13  H   LIG    1       21.390 -22.531   5.113  0.00  0.00    +0.118 HD
ATOM     14  H   LIG    1       20.693 -21.056   5.168  0.00  0.00    +0.118 HD
ENDBRANCH  11  12
ENDBRANCH   9  11
ENDBRANCH   1   9
TORSDOF 4
ENDMDL
