MODEL 1
REMARK VINA RESULT:      -8.1      0.000      0.000
REMARK  Name = *****
REMARK                            x       y       z     vdW  Elec       q    Type
REMARK                         _______ _______ _______ _____ _____    ______ ____
ROOT
ATOM      1  C   LIG    1       26.222 -20.357   5.409  0.00  0.00    +0.000 C 
ENDROOT
BRANCH   1   2
ATOM      2  C   LIG    1       27.660 -20.050   5.824  0.00  0.00    +0.005 C 
BRANCH   2   3
ATOM      3  C   LIG    1       27.941 -20.120   7.337  0.00  0.00    +0.051 C 
BRANCH   3   4
ATOM      4  C   LIG    1       29.261 -20.796   7.817  0.00  0.00    +0.133 C 
BRANCH   4   5
ATOM      5  N   LIG    1       30.473 -19.846   8.093  0.00  0.00    +0.242 N 
ATOM      6  C   LIG    1       31.120 -19.415   6.784  0.00  0.00    +0.192 C 
ATOM      7  C   LIG    1       31.426 -20.603   8.976  0.00  0.00    +0.192 C 
BRANCH   5   8
ATOM      8  C   LIG    1       29.931 -18.543   8.824  0.00  0.00    +0.169 C 
BRANCH   8   9
ATOM      9  C   LIG    1       30.851 -17.699   9.723  0.00  0.00    -0.003 A 
ATOM     10  C   LIG    1       31.876 -16.934   9.145  0.00  0.00    +0.009 A 
ATOM     11  C   LIG    1       32.706 -16.146   9.953  0.00  0.00    +0.001 A 
ATOM     12  C   LIG    1       32.497 -16.054  11.338  0.00  0.00    +0.000 A 
ATOM     13  C   LIG    1       31.479 -16.756  11.913  0.00  0.00    +0.001 A 
ATOM     14  C   LIG    1       30.701 -17.556  11.113  0.00  0.00    +0.009 A 
ENDBRANCH   8   9
ENDBRANCH   5   8
ENDBRANCH   4   5
ENDBRANCH   3   4
ENDBRANCH   2   3
ENDBRANCH   1   2
BRANCH   1  15
ATOM     15  C   LIG    1       25.821 -19.621   4.118  0.00  0.00    -0.000 C 
BRANCH  15  16
ATOM     16  C   LIG    1       24.417 -19.918   3.561  0.00  0.00    -0.000 C 
BRANCH  16  17
ATOM     17  C   LIG    1       23.340 -18.844   3.810  0.00  0.00    -0.000 C 
BRANCH  17  18
ATOM     18  C   LIG    1       22.323 -19.325   4.870  0.00  0.00    -0.000 C 
BRANCH  18  19
ATOM     19  C   LIG    1       22.609 -20.679   5.542  0.00  0.00    -0.000 C 
BRANCH  19  20
ATOM     20  C   LIG    1       23.188 -20.642   6.968  0.00  0.00    -0.000 C 
BRANCH  20  21
ATOM     21  C   LIG    1       23.691 -21.970   7.561  0.00  0.00    -0.000 C 
BRANCH  21  22
ATOM     22  C   LIG    1       23.529 -23.177   6.588  0.00  0.00    -0.000 C 
BRANCH  22  23
ATOM     23  C   LIG    1       24.831 -23.658   5.903  0.00  0.00    -0.000 C 
BRANCH  23  24
ATOM     24  C   LIG    1       25.772 -24.498   6.794  0.00  0.00    -0.000 C 
BRANCH  24  26
ATOM     25  C   LIG    1       24.431 -26.659   6.086  0.00  0.00    +0.004 C 
ATOM     26  C   LIG    1       25.757 -26.005   6.458  0.00  0.00    -0.003 C 
ENDBRANCH  24  26
ENDBRANCH  23  24
ENDBRANCH  22  23
ENDBRANCH  21  22
ENDBRANCH  20  21
ENDBRANCH  19  20
ENDBRANCH  18  19
ENDBRANCH  17  18
ENDBRANCH  16  17
ENDBRANCH  15  16
ENDBRANCH   1  15
TORSDOF 17
ENDMDL
MODEL 2
REMARK VINA RESULT:      -8.1      0.910      3.836
REMARK  Name = *****
REMARK                            x       y       z     vdW  Elec       q    Type
REMARK                         _______ _______ _______ _____ _____    ______ ____
ROOT
ATOM      1  C   LIG    1       26.362 -20.972   8.353  0.00  0.00    +0.000 C 
ENDROOT
BRANCH   1   2
ATOM      2  C   LIG    1       26.693 -20.387   6.981  0.00  0.00    +0.005 C 
BRANCH   2   3
ATOM      3  C   LIG    1       28.178 -20.045   6.749  0.00  0.00    +0.051 C 
BRANCH   3   4
ATOM      4  C   LIG    1       29.238 -20.641   7.724  0.00  0.00    +0.133 C 
BRANCH   4   5
ATOM      5  N   LIG    1       30.464 -19.732   8.065  0.00  0.00    +0.242 N 
ATOM      6  C   LIG    1       31.206 -19.341   6.794  0.00  0.00    +0.192 C 
ATOM      7  C   LIG    1       31.333 -20.512   9.013  0.00  0.00    +0.192 C 
BRANCH   5   8
ATOM      8  C   LIG    1       29.926 -18.402   8.748  0.00  0.00    +0.169 C 
BRANCH   8   9
ATOM      9  C   LIG    1       30.849 -17.527   9.614  0.00  0.00    -0.003 A 
ATOM     10  C   LIG    1       30.588 -17.388  10.986  0.00  0.00    +0.009 A 
ATOM     11  C   LIG    1       31.433 -16.610  11.787  0.00  0.00    +0.001 A 
ATOM     12  C   LIG    1       32.585 -16.007  11.256  0.00  0.00    +0.000 A 
ATOM     13  C   LIG    1       32.879 -16.165   9.935  0.00  0.00    +0.001 A 
ATOM     14  C   LIG    1       32.018 -16.897   9.155  0.00  0.00    +0.009 A 
ENDBRANCH   8   9
ENDBRANCH   5   8
ENDBRANCH   4   5
ENDBRANCH   3   4
ENDBRANCH   2   3
ENDBRANCH   1   2
BRANCH   1  15
ATOM     15  C   LIG    1       26.207 -22.503   8.308  0.00  0.00    -0.000 C 
BRANCH  15  16
ATOM     16  C   LIG    1       26.285 -23.165   6.921  0.00  0.00    -0.000 C 
BRANCH  16  17
ATOM     17  C   LIG    1       25.923 -24.661   6.854  0.00  0.00    -0.000 C 
BRANCH  17  18
ATOM     18  C   LIG    1       24.607 -24.870   6.071  0.00  0.00    -0.000 C 
BRANCH  18  19
ATOM     19  C   LIG    1       23.315 -24.365   6.739  0.00  0.00    -0.000 C 
BRANCH  19  20
ATOM     20  C   LIG    1       22.797 -22.984   6.298  0.00  0.00    -0.000 C 
BRANCH  20  21
ATOM     21  C   LIG    1       22.918 -21.828   7.306  0.00  0.00    -0.000 C 
BRANCH  21  22
ATOM     22  C   LIG    1       23.127 -20.441   6.625  0.00  0.00    -0.000 C 
BRANCH  22  23
ATOM     23  C   LIG    1       22.431 -20.263   5.254  0.00  0.00    -0.000 C 
BRANCH  23  24
ATOM     24  C   LIG    1       22.720 -18.925   4.539  0.00  0.00    -0.000 C 
BRANCH  24  26
ATOM     25  C   LIG    1       25.134 -19.669   3.771  0.00  0.00    +0.004 C 
ATOM     26  C   LIG    1       23.790 -19.037   3.430  0.00  0.00    -0.003 C 
ENDBRANCH  24  26
ENDBRANCH  23  24
ENDBRANCH  22  23
ENDBRANCH  21  22
ENDBRANCH  20  21
ENDBRANCH  19  20
ENDBRANCH  18  19
ENDBRANCH  17  18
ENDBRANCH  16  17
ENDBRANCH  15  16
ENDBRANCH   1  15
TORSDOF 17
ENDMDL
MODEL 3
REMARK VINA RESULT:      -7.2      1.820      8.792
REMARK  Name = *****
REMARK                            x       y       z     vdW  Elec       q    Type
REMARK                         _______ _______ _______ _____ _____    ______ ____
ROOT
ATOM      1  C   LIG    1       23.662 -19.181   3.483  0.00  0.00    +0.000 C 
ENDROOT
BRANCH   1   2
ATOM      2  C   LIG    1       22.705 -18.928   4.647  0.00  0.00    +0.005 C 
BRANCH   2   3
ATOM      3  C   LIG    1       22.695 -20.013   5.741  0.00  0.00    +0.051 C 
BRANCH   3   4
ATOM      4  C   LIG    1       22.923 -21.496   5.319  0.00  0.00    +0.133 C 
BRANCH   4   5
ATOM      5  N   LIG    1       23.569 -22.437   6.389  0.00  0.00    +0.242 N 
ATOM      6  C   LIG    1       22.652 -23.617   6.682  0.00  0.00    +0.192 C 
ATOM      7  C   LIG    1       23.822 -21.597   7.610  0.00  0.00    +0.192 C 
BRANCH   5   8
ATOM      8  C   LIG    1       24.929 -23.007   5.797  0.00  0.00    +0.169 C 
BRANCH   8   9
ATOM      9  C   LIG    1       25.229 -24.516   5.813  0.00  0.00    -0.003 A 
ATOM     10  C   LIG    1       25.065 -25.270   4.641  0.00  0.00    +0.009 A 
ATOM     11  C   LIG    1       25.355 -26.641   4.641  0.00  0.00    +0.001 A 
ATOM     12  C   LIG    1       25.869 -27.275   5.783  0.00  0.00    +0.000 A 
ATOM     13  C   LIG    1       26.075 -26.551   6.919  0.00  0.00    +0.001 A 
ATOM     14  C   LIG    1       25.747 -25.217   6.916  0.00  0.00    +0.009 A 
ENDBRANCH   8   9
ENDBRANCH   5   8
ENDBRANCH   4   5
ENDBRANCH   3   4
ENDBRANCH   2   3
ENDBRANCH   1   2
BRANCH   1  15
ATOM     15  C   LIG    1       25.114 -18.806   3.834  0.00  0.00    -0.000 C 
BRANCH  15  16
ATOM     16  C   LIG    1       26.053 -19.965   4.213  0.00  0.00    -0.000 C 
BRANCH  16  17
ATOM     17  C   LIG    1       26.520 -20.017   5.681  0.00  0.00    -0.000 C 
BRANCH  17  18
ATOM     18  C   LIG    1       28.061 -19.933   5.767  0.00  0.00    -0.000 C 
BRANCH  18  19
ATOM     19  C   LIG    1       28.761 -20.947   6.689  0.00  0.00    -0.000 C 
BRANCH  19  20
ATOM     20  C   LIG    1       29.960 -20.434   7.508  0.00  0.00    -0.000 C 
BRANCH  20  21
ATOM     21  C   LIG    1       30.781 -19.277   6.911  0.00  0.00    -0.000 C 
BRANCH  21  22
ATOM     22  C   LIG    1       31.691 -18.566   7.959  0.00  0.00    -0.000 C 
BRANCH  22  23
ATOM     23  C   LIG    1       31.204 -18.649   9.425  0.00  0.00    -0.000 C 
BRANCH  23  24
ATOM     24  C   LIG    1       30.201 -17.553   9.848  0.00  0.00    -0.000 C 
BRANCH  24  26
ATOM     25  C   LIG    1       32.063 -16.939  11.617  0.00  0.00    +0.004 C 
ATOM     26  C   LIG    1       30.762 -16.579  10.908  0.00  0.00    -0.003 C 
ENDBRANCH  24  26
ENDBRANCH  23  24
ENDBRANCH  22  23
ENDBRANCH  21  22
ENDBRANCH  20  21
ENDBRANCH  19  20
ENDBRANCH  18  19
ENDBRANCH  17  18
ENDBRANCH  16  17
ENDBRANCH  15  16
ENDBRANCH   1  15
TORSDOF 17
ENDMDL
MODEL 4
REMARK VINA RESULT:      -7.2      1.659      3.590
REMARK  Name = *****
REMARK                            x       y       z     vdW  Elec       q    Type
REMARK                         _______ _______ _______ _____ _____    ______ ____
ROOT
ATOM      1  C   LIG    1       25.046 -20.688   7.814  0.00  0.00    +0.000 C 
ENDROOT
BRANCH   1   2
ATOM      2  C   LIG    1       26.434 -20.876   8.426  0.00  0.00    +0.005 C 
BRANCH   2   3
ATOM      3  C   LIG    1       27.606 -20.332   7.587  0.00  0.00    +0.051 C 
BRANCH   3   4
ATOM      4  C   LIG    1       29.032 -20.906   7.844  0.00  0.00    +0.133 C 
BRANCH   4   5
ATOM      5  N   LIG    1       30.199 -19.867   7.933  0.00  0.00    +0.242 N 
ATOM      6  C   LIG    1       30.611 -19.408   6.541  0.00  0.00    +0.192 C 
ATOM      7  C   LIG    1       31.326 -20.541   8.666  0.00  0.00    +0.192 C 
BRANCH   5   8
ATOM      8  C   LIG    1       29.677 -18.597   8.734  0.00  0.00    +0.169 C 
BRANCH   8   9
ATOM      9  C   LIG    1       30.643 -17.731   9.561  0.00  0.00    -0.003 A 
ATOM     10  C   LIG    1       30.446 -17.597  10.944  0.00  0.00    +0.009 A 
ATOM     11  C   LIG    1       31.331 -16.827  11.709  0.00  0.00    +0.001 A 
ATOM     12  C   LIG    1       32.460 -16.227  11.128  0.00  0.00    +0.000 A 
ATOM     13  C   LIG    1       32.692 -16.379   9.794  0.00  0.00    +0.001 A 
ATOM     14  C   LIG    1       31.792 -17.103   9.051  0.00  0.00    +0.009 A 
ENDBRANCH   8   9
ENDBRANCH   5   8
ENDBRANCH   4   5
ENDBRANCH   3   4
ENDBRANCH   2   3
ENDBRANCH   1   2
BRANCH   1  15
ATOM     15  C   LIG    1       25.037 -20.972   6.301  0.00  0.00    -0.000 C 
BRANCH  15  16
ATOM     16  C   LIG    1       24.009 -22.003   5.799  0.00  0.00    -0.000 C 
BRANCH  16  17
ATOM     17  C   LIG    1       23.395 -22.933   6.863  0.00  0.00    -0.000 C 
BRANCH  17  18
ATOM     18  C   LIG    1       23.755 -24.408   6.571  0.00  0.00    -0.000 C 
BRANCH  18  19
ATOM     19  C   LIG    1       25.242 -24.791   6.663  0.00  0.00    -0.000 C 
BRANCH  19  20
ATOM     20  C   LIG    1       25.655 -26.140   6.046  0.00  0.00    -0.000 C 
BRANCH  20  21
ATOM     21  C   LIG    1       24.531 -27.058   5.537  0.00  0.00    -0.000 C 
BRANCH  21  22
ATOM     22  C   LIG    1       24.956 -28.555   5.443  0.00  0.00    -0.000 C 
BRANCH  22  23
ATOM     23  C   LIG    1       24.192 -29.522   6.379  0.00  0.00    -0.000 C 
BRANCH  23  24
ATOM     24  C   LIG    1       24.445 -29.314   7.888  0.00  0.00    -0.000 C 
BRANCH  24  26
ATOM     25  C   LIG    1       26.350 -28.768   9.633  0.00  0.00    +0.004 C 
ATOM     26  C   LIG    1       25.942 -29.314   8.269  0.00  0.00    -0.003 C 
ENDBRANCH  24  26
ENDBRANCH  23  24
ENDBRANCH  22  23
ENDBRANCH  21  22
ENDBRANCH  20  21
ENDBRANCH  19  20
ENDBRANCH  18  19
ENDBRANCH  17  18
ENDBRANCH  16  17
ENDBRANCH  15  16
ENDBRANCH   1  15
TORSDOF 17
ENDMDL
MODEL 5
REMARK VINA RESULT:      -7.0      4.448      9.636
REMARK  Name = *****
REMARK                            x       y       z     vdW  Elec       q    Type
REMARK                         _______ _______ _______ _____ _____    ______ ____
ROOT
ATOM      1  C   LIG    1       26.411 -26.605   5.719  0.00  0.00    +0.000 C 
ENDROOT
BRANCH   1   2
ATOM      2  C   LIG    1       25.340 -27.369   4.941  0.00  0.00    +0.005 C 
BRANCH   2   3
ATOM      3  C   LIG    1       24.634 -28.495   5.720  0.00  0.00    +0.051 C 
BRANCH   3   4
ATOM      4  C   LIG    1       25.263 -29.922   5.695  0.00  0.00    +0.133 C 
BRANCH   4   5
ATOM      5  N   LIG    1       24.781 -30.918   6.802  0.00  0.00    +0.242 N 
ATOM      6  C   LIG    1       25.959 -31.710   7.353  0.00  0.00    +0.192 C 
ATOM      7  C   LIG    1       23.747 -31.805   6.167  0.00  0.00    +0.192 C 
BRANCH   5   8
ATOM      8  C   LIG    1       24.156 -30.075   7.995  0.00  0.00    +0.169 C 
BRANCH   8   9
ATOM      9  C   LIG    1       25.011 -29.659   9.205  0.00  0.00    -0.003 A 
ATOM     10  C   LIG    1       24.736 -30.201  10.469  0.00  0.00    +0.009 A 
ATOM     11  C   LIG    1       25.521 -29.845  11.573  0.00  0.00    +0.001 A 
ATOM     12  C   LIG    1       26.629 -28.994  11.431  0.00  0.00    +0.000 A 
ATOM     13  C   LIG    1       26.938 -28.490  10.203  0.00  0.00    +0.001 A 
ATOM     14  C   LIG    1       26.133 -28.816   9.139  0.00  0.00    +0.009 A 
ENDBRANCH   8   9
ENDBRANCH   5   8
ENDBRANCH   4   5
ENDBRANCH   3   4
ENDBRANCH   2   3
ENDBRANCH   1   2
BRANCH   1  15
ATOM     15  C   LIG    1       25.836 -25.912   6.967  0.00  0.00    -0.000 C 
BRANCH  15  16
ATOM     16  C   LIG    1       25.416 -24.439   6.808  0.00  0.00    -0.000 C 
BRANCH  16  17
ATOM     17  C   LIG    1       23.927 -24.181   6.505  0.00  0.00    -0.000 C 
BRANCH  17  18
ATOM     18  C   LIG    1       23.496 -22.792   7.030  0.00  0.00    -0.000 C 
BRANCH  18  19
ATOM     19  C   LIG    1       22.690 -21.905   6.065  0.00  0.00    -0.000 C 
BRANCH  19  20
ATOM     20  C   LIG    1       23.007 -20.399   6.072  0.00  0.00    -0.000 C 
BRANCH  20  21
ATOM     21  C   LIG    1       23.629 -19.801   4.799  0.00  0.00    -0.000 C 
BRANCH  21  22
ATOM     22  C   LIG    1       24.935 -20.529   4.355  0.00  0.00    -0.000 C 
BRANCH  22  23
ATOM     23  C   LIG    1       26.222 -20.093   5.095  0.00  0.00    -0.000 C 
BRANCH  23  24
ATOM     24  C   LIG    1       26.666 -21.024   6.245  0.00  0.00    -0.000 C 
BRANCH  24  26
ATOM     25  C   LIG    1       25.874 -20.682   8.741  0.00  0.00    +0.004 C 
ATOM     26  C   LIG    1       26.814 -20.300   7.602  0.00  0.00    -0.003 C 
ENDBRANCH  24  26
ENDBRANCH  23  24
ENDBRANCH  22  23
ENDBRANCH  21  22
ENDBRANCH  20  21
ENDBRANCH  19  20
ENDBRANCH  18  19
ENDBRANCH  17  18
ENDBRANCH  16  17
ENDBRANCH  15  16
ENDBRANCH   1  15
TORSDOF 17
ENDMDL
MODEL 6
REMARK VINA RESULT:      -7.0      4.374      9.575
REMARK  Name = *****
REMARK                            x       y       z     vdW  Elec       q    Type
REMARK                         _______ _______ _______ _____ _____    ______ ____
ROOT
ATOM      1  C   LIG    1       25.768 -26.094   6.773  0.00  0.00    +0.000 C 
ENDROOT
BRANCH   1   2
ATOM      2  C   LIG    1       24.484 -26.592   6.112  0.00  0.00    +0.005 C 
BRANCH   2   3
ATOM      3  C   LIG    1       24.442 -28.100   5.800  0.00  0.00    +0.051 C 
BRANCH   3   4
ATOM      4  C   LIG    1       24.267 -29.099   6.984  0.00  0.00    +0.133 C 
BRANCH   4   5
ATOM      5  N   LIG    1       24.922 -30.509   6.813  0.00  0.00    +0.242 N 
ATOM      6  C   LIG    1       25.660 -30.595   5.483  0.00  0.00    +0.192 C 
ATOM      7  C   LIG    1       23.812 -31.519   6.913  0.00  0.00    +0.192 C 
BRANCH   5   8
ATOM      8  C   LIG    1       25.984 -30.712   7.977  0.00  0.00    +0.169 C 
BRANCH   8   9
ATOM      9  C   LIG    1       25.910 -29.880   9.270  0.00  0.00    -0.003 A 
ATOM     10  C   LIG    1       25.009 -30.245  10.281  0.00  0.00    +0.009 A 
ATOM     11  C   LIG    1       24.949 -29.506  11.470  0.00  0.00    +0.001 A 
ATOM     12  C   LIG    1       25.821 -28.431  11.702  0.00  0.00    +0.000 A 
ATOM     13  C   LIG    1       26.733 -28.086  10.749  0.00  0.00    +0.001 A 
ATOM     14  C   LIG    1       26.751 -28.795   9.572  0.00  0.00    +0.009 A 
ENDBRANCH   8   9
ENDBRANCH   5   8
ENDBRANCH   4   5
ENDBRANCH   3   4
ENDBRANCH   2   3
ENDBRANCH   1   2
BRANCH   1  15
ATOM     15  C   LIG    1       25.803 -24.560   6.890  0.00  0.00    -0.000 C 
BRANCH  15  16
ATOM     16  C   LIG    1       24.495 -23.813   6.570  0.00  0.00    -0.000 C 
BRANCH  16  17
ATOM     17  C   LIG    1       24.163 -22.600   7.461  0.00  0.00    -0.000 C 
BRANCH  17  18
ATOM     18  C   LIG    1       25.423 -22.113   8.213  0.00  0.00    -0.000 C 
BRANCH  18  19
ATOM     19  C   LIG    1       25.827 -20.642   8.008  0.00  0.00    -0.000 C 
BRANCH  19  20
ATOM     20  C   LIG    1       27.114 -20.378   7.206  0.00  0.00    -0.000 C 
BRANCH  20  21
ATOM     21  C   LIG    1       26.996 -20.334   5.673  0.00  0.00    -0.000 C 
BRANCH  21  22
ATOM     22  C   LIG    1       25.577 -19.920   5.178  0.00  0.00    -0.000 C 
BRANCH  22  23
ATOM     23  C   LIG    1       24.818 -20.994   4.363  0.00  0.00    -0.000 C 
BRANCH  23  24
ATOM     24  C   LIG    1       23.286 -20.807   4.293  0.00  0.00    -0.000 C 
BRANCH  24  26
ATOM     25  C   LIG    1       22.198 -18.416   4.559  0.00  0.00    +0.004 C 
ATOM     26  C   LIG    1       22.761 -19.678   5.206  0.00  0.00    -0.003 C 
ENDBRANCH  24  26
ENDBRANCH  23  24
ENDBRANCH  22  23
ENDBRANCH  21  22
ENDBRANCH  20  21
ENDBRANCH  19  20
ENDBRANCH  18  19
ENDBRANCH  17  18
ENDBRANCH  16  17
ENDBRANCH  15  16
ENDBRANCH   1  15
TORSDOF 17
ENDMDL
MODEL 7
REMARK VINA RESULT:      -7.0      3.171     10.344
REMARK  Name = *****
REMARK                            x       y       z     vdW  Elec       q    Type
REMARK                         _______ _______ _______ _____ _____    ______ ____
ROOT
ATOM      1  C   LIG    1       23.280 -22.954   6.869  0.00  0.00    +0.000 C 
ENDROOT
BRANCH   1   2
ATOM      2  C   LIG    1       24.480 -23.283   5.981  0.00  0.00    +0.005 C 
BRANCH   2   3
ATOM      3  C   LIG    1       25.202 -24.604   6.309  0.00  0.00    +0.051 C 
BRANCH   3   4
ATOM      4  C   LIG    1       24.427 -25.943   6.114  0.00  0.00    +0.133 C 
BRANCH   4   5
ATOM      5  N   LIG    1       25.287 -27.249   6.074  0.00  0.00    +0.242 N 
ATOM      6  C   LIG    1       26.016 -27.447   7.397  0.00  0.00    +0.192 C 
ATOM      7  C   LIG    1       26.237 -27.109   4.917  0.00  0.00    +0.192 C 
BRANCH   5   8
ATOM      8  C   LIG    1       24.309 -28.484   5.864  0.00  0.00    +0.169 C 
BRANCH   8   9
ATOM      9  C   LIG    1       24.758 -29.916   6.205  0.00  0.00    -0.003 A 
ATOM     10  C   LIG    1       24.290 -30.530   7.377  0.00  0.00    +0.009 A 
ATOM     11  C   LIG    1       24.676 -31.841   7.687  0.00  0.00    +0.001 A 
ATOM     12  C   LIG    1       25.482 -32.586   6.811  0.00  0.00    +0.000 A 
ATOM     13  C   LIG    1       25.911 -32.023   5.647  0.00  0.00    +0.001 A 
ATOM     14  C   LIG    1       25.558 -30.723   5.378  0.00  0.00    +0.009 A 
ENDBRANCH   8   9
ENDBRANCH   5   8
ENDBRANCH   4   5
ENDBRANCH   3   4
ENDBRANCH   2   3
ENDBRANCH   1   2
BRANCH   1  15
ATOM     15  C   LIG    1       23.273 -21.479   7.309  0.00  0.00    -0.000 C 
BRANCH  15  16
ATOM     16  C   LIG    1       24.628 -20.749   7.302  0.00  0.00    -0.000 C 
BRANCH  16  17
ATOM     17  C   LIG    1       25.501 -20.912   8.562  0.00  0.00    -0.000 C 
BRANCH  17  18
ATOM     18  C   LIG    1       26.932 -20.387   8.306  0.00  0.00    -0.000 C 
BRANCH  18  19
ATOM     19  C   LIG    1       27.971 -21.413   7.821  0.00  0.00    -0.000 C 
BRANCH  19  20
ATOM     20  C   LIG    1       28.822 -21.019   6.599  0.00  0.00    -0.000 C 
BRANCH  20  21
ATOM     21  C   LIG    1       28.612 -19.611   6.016  0.00  0.00    -0.000 C 
BRANCH  21  22
ATOM     22  C   LIG    1       29.851 -18.681   6.196  0.00  0.00    -0.000 C 
BRANCH  22  23
ATOM     23  C   LIG    1       30.969 -19.235   7.112  0.00  0.00    -0.000 C 
BRANCH  23  24
ATOM     24  C   LIG    1       31.349 -18.333   8.306  0.00  0.00    -0.000 C 
BRANCH  24  26
ATOM     25  C   LIG    1       30.387 -17.511  10.624  0.00  0.00    +0.004 C 
ATOM     26  C   LIG    1       30.141 -17.919   9.175  0.00  0.00    -0.003 C 
ENDBRANCH  24  26
ENDBRANCH  23  24
ENDBRANCH  22  23
ENDBRANCH  21  22
ENDBRANCH  20  21
ENDBRANCH  19  20
ENDBRANCH  18  19
ENDBRANCH  17  18
ENDBRANCH  16  17
ENDBRANCH  15  16
ENDBRANCH   1  15
TORSDOF 17
ENDMDL
MODEL 8
REMARK VINA RESULT:      -6.8      5.339     10.317
REMARK  Name = *****
REMARK                            x       y       z     vdW  Elec       q    Type
REMARK                         _______ _______ _______ _____ _____    ______ ____
ROOT
ATOM      1  C   LIG    1       25.650 -27.613   6.978  0.00  0.00    +0.000 C 
ENDROOT
BRANCH   1   2
ATOM      2  C   LIG    1       24.322 -28.304   6.671  0.00  0.00    +0.005 C 
BRANCH   2   3
ATOM      3  C   LIG    1       24.393 -29.440   5.633  0.00  0.00    +0.051 C 
BRANCH   3   4
ATOM      4  C   LIG    1       25.558 -30.471   5.739  0.00  0.00    +0.133 C 
BRANCH   4   5
ATOM      5  N   LIG    1       25.163 -31.936   6.120  0.00  0.00    +0.242 N 
ATOM      6  C   LIG    1       25.822 -32.929   5.172  0.00  0.00    +0.192 C 
ATOM      7  C   LIG    1       23.661 -32.009   6.066  0.00  0.00    +0.192 C 
BRANCH   5   8
ATOM      8  C   LIG    1       25.695 -32.231   7.588  0.00  0.00    +0.169 C 
BRANCH   8   9
ATOM      9  C   LIG    1       25.693 -31.134   8.667  0.00  0.00    -0.003 A 
ATOM     10  C   LIG    1       24.499 -30.816   9.332  0.00  0.00    +0.009 A 
ATOM     11  C   LIG    1       24.491 -29.834  10.331  0.00  0.00    +0.001 A 
ATOM     12  C   LIG    1       25.675 -29.193  10.729  0.00  0.00    +0.000 A 
ATOM     13  C   LIG    1       26.852 -29.517  10.124  0.00  0.00    +0.001 A 
ATOM     14  C   LIG    1       26.836 -30.453   9.118  0.00  0.00    +0.009 A 
ENDBRANCH   8   9
ENDBRANCH   5   8
ENDBRANCH   4   5
ENDBRANCH   3   4
ENDBRANCH   2   3
ENDBRANCH   1   2
BRANCH   1  15
ATOM     15  C   LIG    1       26.119 -26.715   5.819  0.00  0.00    -0.000 C 
BRANCH  15  16
ATOM     16  C   LIG    1       26.024 -25.195   6.041  0.00  0.00    -0.000 C 
BRANCH  16  17
ATOM     17  C   LIG    1       24.734 -24.509   5.549  0.00  0.00    -0.000 C 
BRANCH  17  18
ATOM     18  C   LIG    1       23.679 -24.455   6.678  0.00  0.00    -0.000 C 
BRANCH  18  19
ATOM     19  C   LIG    1       22.679 -23.287   6.637  0.00  0.00    -0.000 C 
BRANCH  19  20
ATOM     20  C   LIG    1       23.106 -21.979   7.327  0.00  0.00    -0.000 C 
BRANCH  20  21
ATOM     21  C   LIG    1       24.586 -21.839   7.724  0.00  0.00    -0.000 C 
BRANCH  21  22
ATOM     22  C   LIG    1       25.287 -20.617   7.056  0.00  0.00    -0.000 C 
BRANCH  22  23
ATOM     23  C   LIG    1       25.722 -20.823   5.585  0.00  0.00    -0.000 C 
BRANCH  23  24
ATOM     24  C   LIG    1       24.571 -20.849   4.556  0.00  0.00    -0.000 C 
BRANCH  24  26
ATOM     25  C   LIG    1       22.434 -19.307   4.719  0.00  0.00    +0.004 C 
ATOM     26  C   LIG    1       23.902 -19.473   4.344  0.00  0.00    -0.003 C 
ENDBRANCH  24  26
ENDBRANCH  23  24
ENDBRANCH  22  23
ENDBRANCH  21  22
ENDBRANCH  20  21
ENDBRANCH  19  20
ENDBRANCH  18  19
ENDBRANCH  17  18
ENDBRANCH  16  17
ENDBRANCH  15  16
ENDBRANCH   1  15
TORSDOF 17
ENDMDL
MODEL 9
REMARK VINA RESULT:      -6.8      4.022      9.506
REMARK  Name = *****
REMARK                            x       y       z     vdW  Elec       q    Type
REMARK                         _______ _______ _______ _____ _____    ______ ____
ROOT
ATOM      1  C   LIG    1       25.867 -26.462   6.835  0.00  0.00    +0.000 C 
ENDROOT
BRANCH   1   2
ATOM      2  C   LIG    1       25.659 -27.122   5.473  0.00  0.00    +0.005 C 
BRANCH   2   3
ATOM      3  C   LIG    1       24.927 -28.477   5.500  0.00  0.00    +0.051 C 
BRANCH   3   4
ATOM      4  C   LIG    1       24.701 -29.172   6.877  0.00  0.00    +0.133 C 
BRANCH   4   5
ATOM      5  N   LIG    1       25.105 -30.680   6.975  0.00  0.00    +0.242 N 
ATOM      6  C   LIG    1       25.787 -31.132   5.690  0.00  0.00    +0.192 C 
ATOM      7  C   LIG    1       23.843 -31.450   7.250  0.00  0.00    +0.192 C 
BRANCH   5   8
ATOM      8  C   LIG    1       26.143 -30.843   8.166  0.00  0.00    +0.169 C 
BRANCH   8   9
ATOM      9  C   LIG    1       26.024 -29.993   9.443  0.00  0.00    -0.003 A 
ATOM     10  C   LIG    1       26.866 -28.885   9.622  0.00  0.00    +0.009 A 
ATOM     11  C   LIG    1       26.751 -28.093  10.772  0.00  0.00    +0.001 A 
ATOM     12  C   LIG    1       25.761 -28.348  11.734  0.00  0.00    +0.000 A 
ATOM     13  C   LIG    1       24.906 -29.395  11.558  0.00  0.00    +0.001 A 
ATOM     14  C   LIG    1       25.058 -30.186  10.445  0.00  0.00    +0.009 A 
ENDBRANCH   8   9
ENDBRANCH   5   8
ENDBRANCH   4   5
ENDBRANCH   3   4
ENDBRANCH   2   3
ENDBRANCH   1   2
BRANCH   1  15
ATOM     15  C   LIG    1       25.975 -24.930   6.727  0.00  0.00    -0.000 C 
BRANCH  15  16
ATOM     16  C   LIG    1       24.832 -24.207   5.992  0.00  0.00    -0.000 C 
BRANCH  16  17
ATOM     17  C   LIG    1       23.417 -24.391   6.575  0.00  0.00    -0.000 C 
BRANCH  17  18
ATOM     18  C   LIG    1       22.804 -23.025   6.961  0.00  0.00    -0.000 C 
BRANCH  18  19
ATOM     19  C   LIG    1       23.098 -21.842   6.023  0.00  0.00    -0.000 C 
BRANCH  19  20
ATOM     20  C   LIG    1       23.845 -20.640   6.628  0.00  0.00    -0.000 C 
BRANCH  20  21
ATOM     21  C   LIG    1       24.792 -20.918   7.809  0.00  0.00    -0.000 C 
BRANCH  21  22
ATOM     22  C   LIG    1       26.259 -20.465   7.540  0.00  0.00    -0.000 C 
BRANCH  22  23
ATOM     23  C   LIG    1       27.349 -21.514   7.867  0.00  0.00    -0.000 C 
BRANCH  23  24
ATOM     24  C   LIG    1       28.709 -21.289   7.171  0.00  0.00    -0.000 C 
BRANCH  24  26
ATOM     25  C   LIG    1       29.856 -18.950   7.604  0.00  0.00    +0.004 C 
ATOM     26  C   LIG    1       28.948 -19.823   6.745  0.00  0.00    -0.003 C 
ENDBRANCH  24  26
ENDBRANCH  23  24
ENDBRANCH  22  23
ENDBRANCH  21  22
ENDBRANCH  20  21
ENDBRANCH  19  20
ENDBRANCH  18  19
ENDBRANCH  17  18
ENDBRANCH  16  17
ENDBRANCH  15  16
ENDBRANCH   1  15
TORSDOF 17
ENDMDL
