MODEL 1
REMARK VINA RESULT:      -6.8      0.000      0.000
REMARK  Name = *****
REMARK                            x       y       z     vdW  Elec       q    Type
REMARK                         _______ _______ _______ _____ _____    ______ ____
ROOT
ATOM      1  C   LIG    1       25.803 -26.125   5.911  0.00  0.00    +0.169 C 
ATOM      2  C   LIG    1       25.927 -26.954   4.604  0.00  0.00    +0.084 C 
ATOM      3  C   LIG    1       25.125 -28.277   4.574  0.00  0.00    +0.042 C 
ATOM      4  C   LIG    1       24.313 -28.558   5.807  0.00  0.00    +0.084 C 
ATOM      5  C   LIG    1       24.999 -28.229   7.190  0.00  0.00    +0.169 C 
ATOM      6  C   LIG    1       26.037 -27.074   7.084  0.00  0.00    +0.175 C 
ENDROOT
BRANCH   2   7
ATOM      7  N   LIG    1       27.328 -27.345   4.323  0.00  0.00    -0.325 NA
ATOM      8  H   LIG    1       27.396 -28.368   4.257  0.00  0.00    +0.118 HD
ATOM      9  H   LIG    1       27.568 -27.032   3.380  0.00  0.00    +0.118 HD
ENDBRANCH   2   7
BRANCH   4  10
ATOM     10  N   LIG    1       23.374 -29.688   5.673  0.00  0.00    -0.325 NA
ATOM     11  H   LIG    1       23.593 -30.397   6.383  0.00  0.00    +0.118 HD
ATOM     12  H   LIG    1       22.444 -29.362   5.936  0.00  0.00    +0.118 HD
ENDBRANCH   4  10
BRANCH   6  13
ATOM     13  O   LIG    1       26.123 -26.248   8.256  0.00  0.00    -0.387 OA
ATOM     14  H   LIG    1       26.864 -26.638   8.787  0.00  0.00    +0.210 HD
ENDBRANCH   6  13
BRANCH   1  15
ATOM     15  O   LIG    1       24.686 -25.191   6.033  0.00  0.00    -0.342 OA
BRANCH  15  18
ATOM     16  C   LIG    1       26.421 -22.228   7.393  0.00  0.00    +0.138 C 
ATOM     17  O   LIG    1       25.988 -23.319   6.566  0.00  0.00    -0.345 OA
ATOM     18  C   LIG    1       24.801 -24.041   6.878  0.00  0.00    +0.268 C 
ATOM     19  C   LIG    1       23.673 -23.009   6.719  0.00  0.00    +0.107 C 
ATOM     20  C   LIG    1       23.978 -21.879   7.738  0.00  0.00    +0.026 C 
ATOM     21  C   LIG    1       25.331 -21.190   7.511  0.00  0.00    +0.035 C 
BRANCH  19  22
ATOM     22  N   LIG    1       23.626 -22.501   5.332  0.00  0.00    -0.323 NA
ATOM     23  H   LIG    1       24.429 -22.863   4.820  0.00  0.00    +0.119 HD
ATOM     24  H   LIG    1       22.845 -23.005   4.884  0.00  0.00    +0.119 HD
ENDBRANCH  19  22
BRANCH  16  25
ATOM     25  C   LIG    1       27.815 -21.697   6.866  0.00  0.00    +0.079 C 
ATOM     26  C   LIG    1       28.751 -21.348   8.032  0.00  0.00    +0.026 C 
BRANCH  25  28
ATOM     27  C   LIG    1       28.845 -19.581   6.080  0.00  0.00    +0.101 C 
ATOM     28  N   LIG    1       27.732 -20.529   5.960  0.00  0.00    -0.314 NA
ATOM     29  H   LIG    1       27.690 -20.855   5.007  0.00  0.00    +0.122 HD
ENDBRANCH  25  28
ENDBRANCH  16  25
ENDBRANCH  15  18
ENDBRANCH   1  15
BRANCH   5  30
ATOM     30  O   LIG    1       25.523 -29.444   7.762  0.00  0.00    -0.341 OA
BRANCH  30  31
ATOM     31  C   LIG    1       25.257 -29.534   9.173  0.00  0.00    +0.281 C 
ATOM     32  C   LIG    1       24.212 -30.630   9.450  0.00  0.00    +0.190 C 
ATOM     33  C   LIG    1       24.802 -32.005   9.013  0.00  0.00    +0.121 C 
ATOM     34  C   LIG    1       26.247 -32.169   9.605  0.00  0.00    +0.104 C 
ATOM     35  C   LIG    1       27.224 -32.481   8.473  0.00  0.00    +0.045 C 
ATOM     36  C   LIG    1       26.697 -30.971  10.417  0.00  0.00    +0.199 C 
ATOM     37  O   LIG    1       26.484 -29.733   9.841  0.00  0.00    -0.346 OA
BRANCH  33  38
ATOM     38  N   LIG    1       23.864 -33.097   9.341  0.00  0.00    -0.311 NA
ATOM     39  H   LIG    1       24.312 -33.726  10.009  0.00  0.00    +0.122 HD
ATOM     40  C   LIG    1       23.349 -33.823   8.198  0.00  0.00    +0.101 C 
ENDBRANCH  33  38
BRANCH  32  41
ATOM     41  O   LIG    1       22.975 -30.352   8.780  0.00  0.00    -0.385 OA
ATOM     42  H   LIG    1       22.496 -31.209   8.666  0.00  0.00    +0.210 HD
ENDBRANCH  32  41
BRANCH  34  43
ATOM     43  O   LIG    1       26.311 -33.228  10.603  0.00  0.00    -0.385 OA
ATOM     44  H   LIG    1       27.169 -33.554  10.652  0.00  0.00    +0.210 HD
ENDBRANCH  34  43
ENDBRANCH  30  31
ENDBRANCH   5  30
TORSDOF 13
ENDMDL
MODEL 2
REMARK VINA RESULT:      -6.7      1.909      2.349
REMARK  Name = *****
REMARK                            x       y       z     vdW  Elec       q    Type
REMARK                         _______ _______ _______ _____ _____    ______ ____
ROOT
ATOM      1  C   LIG    1       25.785 -26.091   5.648  0.00  0.00    +0.169 C 
ATOM      2  C   LIG    1       26.048 -27.039   4.447  0.00  0.00    +0.084 C 
ATOM      3  C   LIG    1       25.281 -28.383   4.476  0.00  0.00    +0.042 C 
ATOM      4  C   LIG    1       24.363 -28.567   5.651  0.00  0.00    +0.084 C 
ATOM      5  C   LIG    1       24.909 -28.084   7.052  0.00  0.00    +0.169 C 
ATOM      6  C   LIG    1       25.927 -26.914   6.926  0.00  0.00    +0.175 C 
ENDROOT
BRANCH   2   7
ATOM      7  N   LIG    1       27.478 -27.413   4.336  0.00  0.00    -0.325 NA
ATOM      8  H   LIG    1       27.648 -27.865   3.429  0.00  0.00    +0.118 HD
ATOM      9  H   LIG    1       28.032 -26.557   4.280  0.00  0.00    +0.118 HD
ENDBRANCH   2   7
BRANCH   4  10
ATOM     10  N   LIG    1       23.465 -29.732   5.546  0.00  0.00    -0.325 NA
ATOM     11  H   LIG    1       23.502 -30.104   4.589  0.00  0.00    +0.118 HD
ATOM     12  H   LIG    1       23.853 -30.487   6.113  0.00  0.00    +0.118 HD
ENDBRANCH   4  10
BRANCH   6  13
ATOM     13  O   LIG    1       25.885 -25.976   8.013  0.00  0.00    -0.387 OA
ATOM     14  H   LIG    1       25.027 -26.162   8.475  0.00  0.00    +0.210 HD
ENDBRANCH   6  13
BRANCH   1  15
ATOM     15  O   LIG    1       24.642 -25.184   5.574  0.00  0.00    -0.342 OA
BRANCH  15  18
ATOM     16  C   LIG    1       24.865 -21.502   5.410  0.00  0.00    +0.138 C 
ATOM     17  O   LIG    1       24.627 -22.887   5.119  0.00  0.00    -0.345 OA
ATOM     18  C   LIG    1       24.727 -23.873   6.142  0.00  0.00    +0.268 C 
ATOM     19  C   LIG    1       23.599 -23.520   7.124  0.00  0.00    +0.107 C 
ATOM     20  C   LIG    1       23.906 -22.087   7.633  0.00  0.00    +0.026 C 
ATOM     21  C   LIG    1       23.956 -21.031   6.520  0.00  0.00    +0.035 C 
BRANCH  19  22
ATOM     22  N   LIG    1       22.285 -23.596   6.453  0.00  0.00    -0.323 NA
ATOM     23  H   LIG    1       22.414 -23.444   5.454  0.00  0.00    +0.119 HD
ATOM     24  H   LIG    1       22.022 -24.593   6.482  0.00  0.00    +0.119 HD
ENDBRANCH  19  22
BRANCH  16  25
ATOM     25  C   LIG    1       24.790 -20.668   4.068  0.00  0.00    +0.079 C 
ATOM     26  C   LIG    1       25.797 -19.508   4.080  0.00  0.00    +0.026 C 
BRANCH  25  28
ATOM     27  C   LIG    1       23.353 -18.664   3.793  0.00  0.00    +0.101 C 
ATOM     28  N   LIG    1       23.450 -20.127   3.746  0.00  0.00    -0.314 NA
ATOM     29  H   LIG    1       23.183 -20.437   2.825  0.00  0.00    +0.122 HD
ENDBRANCH  25  28
ENDBRANCH  16  25
ENDBRANCH  15  18
ENDBRANCH   1  15
BRANCH   5  30
ATOM     30  O   LIG    1       25.402 -29.222   7.788  0.00  0.00    -0.341 OA
BRANCH  30  31
ATOM     31  C   LIG    1       24.387 -29.802   8.625  0.00  0.00    +0.281 C 
ATOM     32  C   LIG    1       24.545 -31.333   8.672  0.00  0.00    +0.190 C 
ATOM     33  C   LIG    1       25.919 -31.674   9.324  0.00  0.00    +0.121 C 
ATOM     34  C   LIG    1       26.088 -30.853  10.653  0.00  0.00    +0.104 C 
ATOM     35  C   LIG    1       27.399 -30.071  10.600  0.00  0.00    +0.045 C 
ATOM     36  C   LIG    1       24.908 -29.948  10.948  0.00  0.00    +0.199 C 
ATOM     37  O   LIG    1       24.453 -29.183   9.891  0.00  0.00    -0.346 OA
BRANCH  33  38
ATOM     38  N   LIG    1       26.075 -33.135   9.468  0.00  0.00    -0.311 NA
ATOM     39  H   LIG    1       26.083 -33.369  10.461  0.00  0.00    +0.122 HD
ATOM     40  C   LIG    1       27.223 -33.696   8.785  0.00  0.00    +0.101 C 
ENDBRANCH  33  38
BRANCH  32  41
ATOM     41  O   LIG    1       24.427 -31.909   7.364  0.00  0.00    -0.385 OA
ATOM     42  H   LIG    1       24.161 -32.855   7.476  0.00  0.00    +0.210 HD
ENDBRANCH  32  41
BRANCH  34  43
ATOM     43  O   LIG    1       26.087 -31.713  11.829  0.00  0.00    -0.385 OA
ATOM     44  H   LIG    1       25.223 -31.942  12.043  0.00  0.00    +0.210 HD
ENDBRANCH  34  43
ENDBRANCH  30  31
ENDBRANCH   5  30
TORSDOF 13
ENDMDL
MODEL 3
REMARK VINA RESULT:      -6.5      1.495      2.437
REMARK  Name = *****
REMARK                            x       y       z     vdW  Elec       q    Type
REMARK                         _______ _______ _______ _____ _____    ______ ____
ROOT
ATOM      1  C   LIG    1       26.015 -26.078   6.065  0.00  0.00    +0.169 C 
ATOM      2  C   LIG    1       26.134 -26.796   4.694  0.00  0.00    +0.084 C 
ATOM      3  C   LIG    1       25.204 -28.017   4.496  0.00  0.00    +0.042 C 
ATOM      4  C   LIG    1       24.293 -28.318   5.652  0.00  0.00    +0.084 C 
ATOM      5  C   LIG    1       24.921 -28.188   7.094  0.00  0.00    +0.169 C 
ATOM      6  C   LIG    1       26.076 -27.147   7.153  0.00  0.00    +0.175 C 
ENDROOT
BRANCH   2   7
ATOM      7  N   LIG    1       27.503 -27.309   4.451  0.00  0.00    -0.325 NA
ATOM      8  H   LIG    1       27.462 -28.116   3.815  0.00  0.00    +0.118 HD
ATOM      9  H   LIG    1       28.019 -26.610   3.913  0.00  0.00    +0.118 HD
ENDBRANCH   2   7
BRANCH   4  10
ATOM     10  N   LIG    1       23.253 -29.323   5.362  0.00  0.00    -0.325 NA
ATOM     11  H   LIG    1       22.967 -29.778   6.238  0.00  0.00    +0.118 HD
ATOM     12  H   LIG    1       22.411 -28.833   5.059  0.00  0.00    +0.118 HD
ENDBRANCH   4  10
BRANCH   6  13
ATOM     13  O   LIG    1       26.173 -26.443   8.401  0.00  0.00    -0.387 OA
ATOM     14  H   LIG    1       26.286 -27.152   9.085  0.00  0.00    +0.210 HD
ENDBRANCH   6  13
BRANCH   1  15
ATOM     15  O   LIG    1       24.994 -25.044   6.216  0.00  0.00    -0.342 OA
BRANCH  15  18
ATOM     16  C   LIG    1       24.191 -21.476   5.704  0.00  0.00    +0.138 C 
ATOM     17  O   LIG    1       24.153 -22.862   6.072  0.00  0.00    -0.345 OA
ATOM     18  C   LIG    1       25.324 -23.670   5.986  0.00  0.00    +0.268 C 
ATOM     19  C   LIG    1       26.288 -23.057   7.015  0.00  0.00    +0.107 C 
ATOM     20  C   LIG    1       26.527 -21.594   6.559  0.00  0.00    +0.026 C 
ATOM     21  C   LIG    1       25.249 -20.746   6.496  0.00  0.00    +0.035 C 
BRANCH  19  22
ATOM     22  N   LIG    1       25.707 -23.122   8.372  0.00  0.00    -0.323 NA
ATOM     23  H   LIG    1       25.319 -24.052   8.522  0.00  0.00    +0.119 HD
ATOM     24  H   LIG    1       26.516 -23.125   9.014  0.00  0.00    +0.119 HD
ENDBRANCH  19  22
BRANCH  16  25
ATOM     25  C   LIG    1       22.731 -20.873   5.798  0.00  0.00    +0.079 C 
ATOM     26  C   LIG    1       21.735 -21.704   4.977  0.00  0.00    +0.026 C 
BRANCH  25  28
ATOM     27  C   LIG    1       23.188 -19.153   4.070  0.00  0.00    +0.101 C 
ATOM     28  N   LIG    1       22.617 -19.456   5.387  0.00  0.00    -0.314 NA
ATOM     29  H   LIG    1       21.644 -19.192   5.383  0.00  0.00    +0.122 HD
ENDBRANCH  25  28
ENDBRANCH  16  25
ENDBRANCH  15  18
ENDBRANCH   1  15
BRANCH   5  30
ATOM     30  O   LIG    1       25.281 -29.499   7.575  0.00  0.00    -0.341 OA
BRANCH  30  31
ATOM     31  C   LIG    1       25.306 -29.557   9.012  0.00  0.00    +0.281 C 
ATOM     32  C   LIG    1       24.316 -30.621   9.521  0.00  0.00    +0.190 C 
ATOM     33  C   LIG    1       24.773 -32.018   9.003  0.00  0.00    +0.121 C 
ATOM     34  C   LIG    1       26.306 -32.209   9.292  0.00  0.00    +0.104 C 
ATOM     35  C   LIG    1       27.024 -32.567   7.992  0.00  0.00    +0.045 C 
ATOM     36  C   LIG    1       26.937 -31.010   9.969  0.00  0.00    +0.199 C 
ATOM     37  O   LIG    1       26.638 -29.777   9.421  0.00  0.00    -0.346 OA
BRANCH  33  38
ATOM     38  N   LIG    1       23.899 -33.080   9.539  0.00  0.00    -0.311 NA
ATOM     39  H   LIG    1       24.457 -33.701  10.126  0.00  0.00    +0.122 HD
ATOM     40  C   LIG    1       23.158 -33.822   8.539  0.00  0.00    +0.101 C 
ENDBRANCH  33  38
BRANCH  32  41
ATOM     41  O   LIG    1       22.974 -30.322   9.110  0.00  0.00    -0.385 OA
ATOM     42  H   LIG    1       22.494 -31.180   9.005  0.00  0.00    +0.210 HD
ENDBRANCH  32  41
BRANCH  34  43
ATOM     43  O   LIG    1       26.548 -33.253  10.279  0.00  0.00    -0.385 OA
ATOM     44  H   LIG    1       25.748 -33.540  10.627  0.00  0.00    +0.210 HD
ENDBRANCH  34  43
ENDBRANCH  30  31
ENDBRANCH   5  30
TORSDOF 13
ENDMDL
MODEL 4
REMARK VINA RESULT:      -6.3      1.949      2.694
REMARK  Name = *****
REMARK                            x       y       z     vdW  Elec       q    Type
REMARK                         _______ _______ _______ _____ _____    ______ ____
ROOT
ATOM      1  C   LIG    1       25.954 -25.875   5.529  0.00  0.00    +0.169 C 
ATOM      2  C   LIG    1       26.281 -26.965   4.473  0.00  0.00    +0.084 C 
ATOM      3  C   LIG    1       25.335 -28.190   4.461  0.00  0.00    +0.042 C 
ATOM      4  C   LIG    1       24.211 -28.136   5.456  0.00  0.00    +0.084 C 
ATOM      5  C   LIG    1       24.570 -27.588   6.893  0.00  0.00    +0.169 C 
ATOM      6  C   LIG    1       25.753 -26.577   6.870  0.00  0.00    +0.175 C 
ENDROOT
BRANCH   2   7
ATOM      7  N   LIG    1       27.640 -27.529   4.657  0.00  0.00    -0.325 NA
ATOM      8  H   LIG    1       28.293 -26.779   4.915  0.00  0.00    +0.118 HD
ATOM      9  H   LIG    1       27.631 -28.129   5.484  0.00  0.00    +0.118 HD
ENDBRANCH   2   7
BRANCH   4  10
ATOM     10  N   LIG    1       23.186 -29.181   5.275  0.00  0.00    -0.325 NA
ATOM     11  H   LIG    1       22.937 -29.244   4.280  0.00  0.00    +0.118 HD
ATOM     12  H   LIG    1       23.613 -30.085   5.475  0.00  0.00    +0.118 HD
ENDBRANCH   4  10
BRANCH   6  13
ATOM     13  O   LIG    1       25.658 -25.537   7.856  0.00  0.00    -0.387 OA
ATOM     14  H   LIG    1       26.420 -24.932   7.660  0.00  0.00    +0.210 HD
ENDBRANCH   6  13
BRANCH   1  15
ATOM     15  O   LIG    1       24.984 -24.842   5.175  0.00  0.00    -0.342 OA
BRANCH  15  18
ATOM     16  C   LIG    1       24.833 -21.164   5.470  0.00  0.00    +0.138 C 
ATOM     17  O   LIG    1       24.728 -22.519   5.011  0.00  0.00    -0.345 OA
ATOM     18  C   LIG    1       24.952 -23.608   5.902  0.00  0.00    +0.268 C 
ATOM     19  C   LIG    1       23.819 -23.496   6.935  0.00  0.00    +0.107 C 
ATOM     20  C   LIG    1       23.994 -22.113   7.615  0.00  0.00    +0.026 C 
ATOM     21  C   LIG    1       23.910 -20.929   6.642  0.00  0.00    +0.035 C 
BRANCH  19  22
ATOM     22  N   LIG    1       22.503 -23.623   6.276  0.00  0.00    -0.323 NA
ATOM     23  H   LIG    1       21.783 -23.265   6.903  0.00  0.00    +0.119 HD
ATOM     24  H   LIG    1       22.503 -22.912   5.528  0.00  0.00    +0.119 HD
ENDBRANCH  19  22
BRANCH  16  25
ATOM     25  C   LIG    1       24.642 -20.183   4.244  0.00  0.00    +0.079 C 
ATOM     26  C   LIG    1       24.041 -20.916   3.037  0.00  0.00    +0.026 C 
BRANCH  25  28
ATOM     27  C   LIG    1       25.663 -18.115   3.330  0.00  0.00    +0.101 C 
ATOM     28  N   LIG    1       25.873 -19.486   3.809  0.00  0.00    -0.314 NA
ATOM     29  H   LIG    1       26.525 -19.460   4.578  0.00  0.00    +0.122 HD
ENDBRANCH  25  28
ENDBRANCH  16  25
ENDBRANCH  15  18
ENDBRANCH   1  15
BRANCH   5  30
ATOM     30  O   LIG    1       24.759 -28.700   7.791  0.00  0.00    -0.341 OA
BRANCH  30  31
ATOM     31  C   LIG    1       25.948 -29.447   7.480  0.00  0.00    +0.281 C 
ATOM     32  C   LIG    1       26.729 -29.767   8.768  0.00  0.00    +0.190 C 
ATOM     33  C   LIG    1       25.847 -30.677   9.675  0.00  0.00    +0.121 C 
ATOM     34  C   LIG    1       25.269 -31.865   8.824  0.00  0.00    +0.104 C 
ATOM     35  C   LIG    1       23.749 -31.896   8.968  0.00  0.00    +0.045 C 
ATOM     36  C   LIG    1       25.692 -31.816   7.370  0.00  0.00    +0.199 C 
ATOM     37  O   LIG    1       25.570 -30.590   6.744  0.00  0.00    -0.346 OA
BRANCH  33  38
ATOM     38  N   LIG    1       26.591 -31.079  10.885  0.00  0.00    -0.311 NA
ATOM     39  H   LIG    1       26.837 -32.067  10.807  0.00  0.00    +0.122 HD
ATOM     40  C   LIG    1       25.918 -30.800  12.137  0.00  0.00    +0.101 C 
ENDBRANCH  33  38
BRANCH  32  41
ATOM     41  O   LIG    1       27.122 -28.568   9.450  0.00  0.00    -0.385 OA
ATOM     42  H   LIG    1       27.382 -27.905   8.765  0.00  0.00    +0.210 HD
ENDBRANCH  32  41
BRANCH  34  43
ATOM     43  O   LIG    1       25.819 -33.149   9.237  0.00  0.00    -0.385 OA
ATOM     44  H   LIG    1       26.710 -33.053   9.436  0.00  0.00    +0.210 HD
ENDBRANCH  34  43
ENDBRANCH  30  31
ENDBRANCH   5  30
TORSDOF 13
ENDMDL
MODEL 5
REMARK VINA RESULT:      -6.1      1.251      1.956
REMARK  Name = *****
REMARK                            x       y       z     vdW  Elec       q    Type
REMARK                         _______ _______ _______ _____ _____    ______ ____
ROOT
ATOM      1  C   LIG    1       25.948 -26.069   5.698  0.00  0.00    +0.169 C 
ATOM      2  C   LIG    1       26.243 -27.110   4.585  0.00  0.00    +0.084 C 
ATOM      3  C   LIG    1       25.300 -28.337   4.551  0.00  0.00    +0.042 C 
ATOM      4  C   LIG    1       24.209 -28.331   5.584  0.00  0.00    +0.084 C 
ATOM      5  C   LIG    1       24.614 -27.845   7.030  0.00  0.00    +0.169 C 
ATOM      6  C   LIG    1       25.793 -26.829   7.013  0.00  0.00    +0.175 C 
ENDROOT
BRANCH   2   7
ATOM      7  N   LIG    1       27.608 -27.676   4.700  0.00  0.00    -0.325 NA
ATOM      8  H   LIG    1       27.721 -28.126   5.617  0.00  0.00    +0.118 HD
ATOM      9  H   LIG    1       27.691 -28.455   4.043  0.00  0.00    +0.118 HD
ENDBRANCH   2   7
BRANCH   4  10
ATOM     10  N   LIG    1       23.181 -29.370   5.390  0.00  0.00    -0.325 NA
ATOM     11  H   LIG    1       23.506 -30.251   5.808  0.00  0.00    +0.118 HD
ATOM     12  H   LIG    1       22.366 -29.122   5.952  0.00  0.00    +0.118 HD
ENDBRANCH   4  10
BRANCH   6  13
ATOM     13  O   LIG    1       25.729 -25.834   8.046  0.00  0.00    -0.387 OA
ATOM     14  H   LIG    1       26.666 -25.724   8.351  0.00  0.00    +0.210 HD
ENDBRANCH   6  13
BRANCH   1  15
ATOM     15  O   LIG    1       24.965 -25.025   5.422  0.00  0.00    -0.342 OA
BRANCH  15  18
ATOM     16  C   LIG    1       25.801 -22.320   7.794  0.00  0.00    +0.138 C 
ATOM     17  O   LIG    1       25.803 -23.250   6.701  0.00  0.00    -0.345 OA
ATOM     18  C   LIG    1       24.656 -24.047   6.422  0.00  0.00    +0.268 C 
ATOM     19  C   LIG    1       23.574 -23.032   6.020  0.00  0.00    +0.107 C 
ATOM     20  C   LIG    1       23.381 -22.102   7.247  0.00  0.00    +0.026 C 
ATOM     21  C   LIG    1       24.653 -21.349   7.660  0.00  0.00    +0.035 C 
BRANCH  19  22
ATOM     22  N   LIG    1       23.991 -22.279   4.819  0.00  0.00    -0.323 NA
ATOM     23  H   LIG    1       24.736 -21.633   5.075  0.00  0.00    +0.119 HD
ATOM     24  H   LIG    1       24.496 -22.961   4.231  0.00  0.00    +0.119 HD
ENDBRANCH  19  22
BRANCH  16  25
ATOM     25  C   LIG    1       27.236 -21.666   7.923  0.00  0.00    +0.079 C 
ATOM     26  C   LIG    1       27.141 -20.216   8.417  0.00  0.00    +0.026 C 
BRANCH  25  28
ATOM     27  C   LIG    1       28.946 -20.547   6.517  0.00  0.00    +0.101 C 
ATOM     28  N   LIG    1       28.044 -21.692   6.683  0.00  0.00    -0.314 NA
ATOM     29  H   LIG    1       28.593 -22.538   6.666  0.00  0.00    +0.122 HD
ENDBRANCH  25  28
ENDBRANCH  16  25
ENDBRANCH  15  18
ENDBRANCH   1  15
BRANCH   5  30
ATOM     30  O   LIG    1       24.835 -28.994   7.873  0.00  0.00    -0.341 OA
BRANCH  30  31
ATOM     31  C   LIG    1       26.208 -29.424   7.847  0.00  0.00    +0.281 C 
ATOM     32  C   LIG    1       26.775 -29.481   9.278  0.00  0.00    +0.190 C 
ATOM     33  C   LIG    1       25.982 -30.549  10.089  0.00  0.00    +0.121 C 
ATOM     34  C   LIG    1       25.889 -31.878   9.257  0.00  0.00    +0.104 C 
ATOM     35  C   LIG    1       24.424 -32.292   9.128  0.00  0.00    +0.045 C 
ATOM     36  C   LIG    1       26.564 -31.781   7.903  0.00  0.00    +0.199 C 
ATOM     37  O   LIG    1       26.271 -30.654   7.160  0.00  0.00    -0.346 OA
BRANCH  33  38
ATOM     38  N   LIG    1       26.550 -30.697  11.443  0.00  0.00    -0.311 NA
ATOM     39  H   LIG    1       27.015 -31.604  11.508  0.00  0.00    +0.122 HD
ATOM     40  C   LIG    1       25.605 -30.511  12.525  0.00  0.00    +0.101 C 
ENDBRANCH  33  38
BRANCH  32  41
ATOM     41  O   LIG    1       26.723 -28.194   9.910  0.00  0.00    -0.385 OA
ATOM     42  H   LIG    1       26.504 -28.338  10.864  0.00  0.00    +0.210 HD
ENDBRANCH  32  41
BRANCH  34  43
ATOM     43  O   LIG    1       26.643 -32.961   9.874  0.00  0.00    -0.385 OA
ATOM     44  H   LIG    1       26.063 -33.579  10.227  0.00  0.00    +0.210 HD
ENDBRANCH  34  43
ENDBRANCH  30  31
ENDBRANCH   5  30
TORSDOF 13
ENDMDL
MODEL 6
REMARK VINA RESULT:      -6.1      2.627      4.863
REMARK  Name = *****
REMARK                            x       y       z     vdW  Elec       q    Type
REMARK                         _______ _______ _______ _____ _____    ______ ____
ROOT
ATOM      1  C   LIG    1       25.257 -29.627   7.005  0.00  0.00    +0.169 C 
ATOM      2  C   LIG    1       25.266 -31.125   6.597  0.00  0.00    +0.084 C 
ATOM      3  C   LIG    1       24.594 -32.095   7.598  0.00  0.00    +0.042 C 
ATOM      4  C   LIG    1       23.998 -31.444   8.813  0.00  0.00    +0.084 C 
ATOM      5  C   LIG    1       24.842 -30.286   9.475  0.00  0.00    +0.169 C 
ATOM      6  C   LIG    1       25.743 -29.539   8.449  0.00  0.00    +0.175 C 
ENDROOT
BRANCH   2   7
ATOM      7  N   LIG    1       26.643 -31.645   6.420  0.00  0.00    -0.325 NA
ATOM      8  H   LIG    1       27.225 -30.935   5.960  0.00  0.00    +0.118 HD
ATOM      9  H   LIG    1       27.072 -31.741   7.342  0.00  0.00    +0.118 HD
ENDBRANCH   2   7
BRANCH   4  10
ATOM     10  N   LIG    1       23.158 -32.336   9.632  0.00  0.00    -0.325 NA
ATOM     11  H   LIG    1       22.571 -31.771  10.258  0.00  0.00    +0.118 HD
ATOM     12  H   LIG    1       22.484 -32.794   9.017  0.00  0.00    +0.118 HD
ENDBRANCH   4  10
BRANCH   6  13
ATOM     13  O   LIG    1       25.920 -28.141   8.727  0.00  0.00    -0.387 OA
ATOM     14  H   LIG    1       26.071 -28.094   9.706  0.00  0.00    +0.210 HD
ENDBRANCH   6  13
BRANCH   1  15
ATOM     15  O   LIG    1       24.087 -28.824   6.654  0.00  0.00    -0.342 OA
BRANCH  15  18
ATOM     16  C   LIG    1       23.997 -25.224   5.837  0.00  0.00    +0.138 C 
ATOM     17  O   LIG    1       24.079 -26.486   6.515  0.00  0.00    -0.345 OA
ATOM     18  C   LIG    1       24.225 -27.698   5.781  0.00  0.00    +0.268 C 
ATOM     19  C   LIG    1       25.598 -27.572   5.102  0.00  0.00    +0.107 C 
ATOM     20  C   LIG    1       25.513 -26.319   4.191  0.00  0.00    +0.026 C 
ATOM     21  C   LIG    1       25.201 -25.021   4.949  0.00  0.00    +0.035 C 
BRANCH  19  22
ATOM     22  N   LIG    1       26.667 -27.443   6.114  0.00  0.00    -0.323 NA
ATOM     23  H   LIG    1       27.224 -26.616   5.905  0.00  0.00    +0.119 HD
ATOM     24  H   LIG    1       26.187 -27.159   6.983  0.00  0.00    +0.119 HD
ENDBRANCH  19  22
BRANCH  16  25
ATOM     25  C   LIG    1       23.731 -24.080   6.896  0.00  0.00    +0.079 C 
ATOM     26  C   LIG    1       22.486 -23.261   6.525  0.00  0.00    +0.026 C 
BRANCH  25  28
ATOM     27  C   LIG    1       24.478 -21.800   7.524  0.00  0.00    +0.101 C 
ATOM     28  N   LIG    1       24.864 -23.152   7.105  0.00  0.00    -0.314 NA
ATOM     29  H   LIG    1       25.482 -23.539   7.802  0.00  0.00    +0.122 HD
ENDBRANCH  25  28
ENDBRANCH  16  25
ENDBRANCH  15  18
ENDBRANCH   1  15
BRANCH   5  30
ATOM     30  O   LIG    1       25.553 -30.809  10.616  0.00  0.00    -0.341 OA
BRANCH  30  31
ATOM     31  C   LIG    1       24.827 -30.606  11.841  0.00  0.00    +0.281 C 
ATOM     32  C   LIG    1       25.735 -30.890  13.052  0.00  0.00    +0.190 C 
ATOM     33  C   LIG    1       26.910 -29.866  13.048  0.00  0.00    +0.121 C 
ATOM     34  C   LIG    1       26.342 -28.415  12.850  0.00  0.00    +0.104 C 
ATOM     35  C   LIG    1       27.040 -27.756  11.662  0.00  0.00    +0.045 C 
ATOM     36  C   LIG    1       24.834 -28.382  12.702  0.00  0.00    +0.199 C 
ATOM     37  O   LIG    1       24.291 -29.301  11.825  0.00  0.00    -0.346 OA
BRANCH  33  38
ATOM     38  N   LIG    1       27.759 -30.049  14.241  0.00  0.00    -0.311 NA
ATOM     39  H   LIG    1       27.399 -29.461  14.994  0.00  0.00    +0.122 HD
ATOM     40  C   LIG    1       29.174 -29.820  14.025  0.00  0.00    +0.101 C 
ENDBRANCH  33  38
BRANCH  32  41
ATOM     41  O   LIG    1       26.215 -32.242  13.037  0.00  0.00    -0.385 OA
ATOM     42  H   LIG    1       25.479 -32.818  12.715  0.00  0.00    +0.210 HD
ENDBRANCH  32  41
BRANCH  34  43
ATOM     43  O   LIG    1       26.528 -27.591  14.037  0.00  0.00    -0.385 OA
ATOM     44  H   LIG    1       26.523 -28.122  14.786  0.00  0.00    +0.210 HD
ENDBRANCH  34  43
ENDBRANCH  30  31
ENDBRANCH   5  30
TORSDOF 13
ENDMDL
MODEL 7
REMARK VINA RESULT:      -5.6      6.111      9.705
REMARK  Name = *****
REMARK                            x       y       z     vdW  Elec       q    Type
REMARK                         _______ _______ _______ _____ _____    ______ ____
ROOT
ATOM      1  C   LIG    1       20.197 -31.272  12.535  0.00  0.00    +0.169 C 
ATOM      2  C   LIG    1       20.886 -31.423  13.918  0.00  0.00    +0.084 C 
ATOM      3  C   LIG    1       21.715 -30.204  14.389  0.00  0.00    +0.042 C 
ATOM      4  C   LIG    1       21.711 -29.030  13.451  0.00  0.00    +0.084 C 
ATOM      5  C   LIG    1       21.830 -29.361  11.911  0.00  0.00    +0.169 C 
ATOM      6  C   LIG    1       21.245 -30.757  11.551  0.00  0.00    +0.175 C 
ENDROOT
BRANCH   2   7
ATOM      7  N   LIG    1       21.828 -32.566  13.949  0.00  0.00    -0.325 NA
ATOM      8  H   LIG    1       22.742 -32.271  13.584  0.00  0.00    +0.118 HD
ATOM      9  H   LIG    1       22.027 -32.794  14.926  0.00  0.00    +0.118 HD
ENDBRANCH   2   7
BRANCH   4  10
ATOM     10  N   LIG    1       22.297 -27.799  14.012  0.00  0.00    -0.325 NA
ATOM     11  H   LIG    1       22.147 -27.784  15.028  0.00  0.00    +0.118 HD
ATOM     12  H   LIG    1       23.312 -27.858  13.918  0.00  0.00    +0.118 HD
ENDBRANCH   4  10
BRANCH   6  13
ATOM     13  O   LIG    1       20.640 -30.825  10.251  0.00  0.00    -0.387 OA
ATOM     14  H   LIG    1       20.540 -29.880   9.967  0.00  0.00    +0.210 HD
ENDBRANCH   6  13
BRANCH   1  15
ATOM     15  O   LIG    1       18.881 -30.639  12.485  0.00  0.00    -0.342 OA
BRANCH  15  18
ATOM     16  C   LIG    1       17.277 -28.765  15.232  0.00  0.00    +0.138 C 
ATOM     17  O   LIG    1       17.881 -29.148  13.989  0.00  0.00    -0.345 OA
ATOM     18  C   LIG    1       18.095 -30.521  13.676  0.00  0.00    +0.268 C 
ATOM     19  C   LIG    1       16.681 -31.115  13.579  0.00  0.00    +0.107 C 
ATOM     20  C   LIG    1       16.031 -30.906  14.972  0.00  0.00    +0.026 C 
ATOM     21  C   LIG    1       15.933 -29.434  15.395  0.00  0.00    +0.035 C 
BRANCH  19  22
ATOM     22  N   LIG    1       15.912 -30.450  12.507  0.00  0.00    -0.323 NA
ATOM     23  H   LIG    1       15.522 -31.160  11.889  0.00  0.00    +0.119 HD
ATOM     24  H   LIG    1       15.064 -30.083  12.968  0.00  0.00    +0.119 HD
ENDBRANCH  19  22
BRANCH  16  25
ATOM     25  C   LIG    1       17.270 -27.187  15.344  0.00  0.00    +0.079 C 
ATOM     26  C   LIG    1       16.253 -26.567  14.375  0.00  0.00    +0.026 C 
BRANCH  25  28
ATOM     27  C   LIG    1       18.762 -25.950  13.795  0.00  0.00    +0.101 C 
ATOM     28  N   LIG    1       18.585 -26.543  15.125  0.00  0.00    -0.314 NA
ATOM     29  H   LIG    1       18.718 -25.823  15.818  0.00  0.00    +0.122 HD
ENDBRANCH  25  28
ENDBRANCH  16  25
ENDBRANCH  15  18
ENDBRANCH   1  15
BRANCH   5  30
ATOM     30  O   LIG    1       23.195 -29.165  11.488  0.00  0.00    -0.341 OA
BRANCH  30  31
ATOM     31  C   LIG    1       23.862 -30.412  11.225  0.00  0.00    +0.281 C 
ATOM     32  C   LIG    1       24.359 -30.454   9.768  0.00  0.00    +0.190 C 
ATOM     33  C   LIG    1       25.414 -29.325   9.567  0.00  0.00    +0.121 C 
ATOM     34  C   LIG    1       26.469 -29.379  10.730  0.00  0.00    +0.104 C 
ATOM     35  C   LIG    1       26.553 -28.009  11.400  0.00  0.00    +0.045 C 
ATOM     36  C   LIG    1       26.190 -30.478  11.736  0.00  0.00    +0.199 C 
ATOM     37  O   LIG    1       24.886 -30.574  12.182  0.00  0.00    -0.346 OA
BRANCH  33  38
ATOM     38  N   LIG    1       25.981 -29.383   8.205  0.00  0.00    -0.311 NA
ATOM     39  H   LIG    1       27.000 -29.396   8.273  0.00  0.00    +0.122 HD
ATOM     40  C   LIG    1       25.525 -28.341   7.309  0.00  0.00    +0.101 C 
ENDBRANCH  33  38
BRANCH  32  41
ATOM     41  O   LIG    1       23.270 -30.326   8.843  0.00  0.00    -0.385 OA
ATOM     42  H   LIG    1       23.654 -30.270   7.934  0.00  0.00    +0.210 HD
ENDBRANCH  32  41
BRANCH  34  43
ATOM     43  O   LIG    1       27.790 -29.763  10.250  0.00  0.00    -0.385 OA
ATOM     44  H   LIG    1       27.916 -30.663  10.379  0.00  0.00    +0.210 HD
ENDBRANCH  34  43
ENDBRANCH  30  31
ENDBRANCH   5  30
TORSDOF 13
ENDMDL
MODEL 8
REMARK VINA RESULT:      -5.5      2.549      4.274
REMARK  Name = *****
REMARK                            x       y       z     vdW  Elec       q    Type
REMARK                         _______ _______ _______ _____ _____    ______ ____
ROOT
ATOM      1  C   LIG    1       25.153 -29.533   7.126  0.00  0.00    +0.169 C 
ATOM      2  C   LIG    1       24.984 -30.965   6.552  0.00  0.00    +0.084 C 
ATOM      3  C   LIG    1       24.224 -31.963   7.458  0.00  0.00    +0.042 C 
ATOM      4  C   LIG    1       23.729 -31.394   8.758  0.00  0.00    +0.084 C 
ATOM      5  C   LIG    1       24.713 -30.422   9.519  0.00  0.00    +0.169 C 
ATOM      6  C   LIG    1       25.674 -29.667   8.555  0.00  0.00    +0.175 C 
ENDROOT
BRANCH   2   7
ATOM      7  N   LIG    1       26.288 -31.612   6.274  0.00  0.00    -0.325 NA
ATOM      8  H   LIG    1       26.575 -32.175   7.084  0.00  0.00    +0.118 HD
ATOM      9  H   LIG    1       26.152 -32.309   5.539  0.00  0.00    +0.118 HD
ENDBRANCH   2   7
BRANCH   4  10
ATOM     10  N   LIG    1       22.807 -32.277   9.497  0.00  0.00    -0.325 NA
ATOM     11  H   LIG    1       23.083 -32.302  10.487  0.00  0.00    +0.118 HD
ATOM     12  H   LIG    1       21.887 -31.835   9.514  0.00  0.00    +0.118 HD
ENDBRANCH   4  10
BRANCH   6  13
ATOM     13  O   LIG    1       26.015 -28.340   8.983  0.00  0.00    -0.387 OA
ATOM     14  H   LIG    1       26.293 -28.442   9.930  0.00  0.00    +0.210 HD
ENDBRANCH   6  13
BRANCH   1  15
ATOM     15  O   LIG    1       24.078 -28.570   6.906  0.00  0.00    -0.342 OA
BRANCH  15  18
ATOM     16  C   LIG    1       24.031 -25.037   5.832  0.00  0.00    +0.138 C 
ATOM     17  O   LIG    1       24.087 -26.248   6.600  0.00  0.00    -0.345 OA
ATOM     18  C   LIG    1       24.246 -27.509   5.959  0.00  0.00    +0.268 C 
ATOM     19  C   LIG    1       25.638 -27.437   5.311  0.00  0.00    +0.107 C 
ATOM     20  C   LIG    1       25.585 -26.253   4.311  0.00  0.00    +0.026 C 
ATOM     21  C   LIG    1       25.260 -24.903   4.966  0.00  0.00    +0.035 C 
BRANCH  19  22
ATOM     22  N   LIG    1       26.679 -27.241   6.341  0.00  0.00    -0.323 NA
ATOM     23  H   LIG    1       27.488 -27.816   6.108  0.00  0.00    +0.119 HD
ATOM     24  H   LIG    1       27.044 -26.289   6.182  0.00  0.00    +0.119 HD
ENDBRANCH  19  22
BRANCH  16  25
ATOM     25  C   LIG    1       23.743 -23.819   6.800  0.00  0.00    +0.079 C 
ATOM     26  C   LIG    1       22.297 -23.324   6.651  0.00  0.00    +0.026 C 
BRANCH  25  28
ATOM     27  C   LIG    1       25.421 -22.316   7.839  0.00  0.00    +0.101 C 
ATOM     28  N   LIG    1       24.657 -22.667   6.637  0.00  0.00    -0.314 NA
ATOM     29  H   LIG    1       25.305 -22.865   5.891  0.00  0.00    +0.122 HD
ENDBRANCH  25  28
ENDBRANCH  16  25
ENDBRANCH  15  18
ENDBRANCH   1  15
BRANCH   5  30
ATOM     30  O   LIG    1       25.380 -31.150  10.570  0.00  0.00    -0.341 OA
BRANCH  30  31
ATOM     31  C   LIG    1       25.451 -30.390  11.790  0.00  0.00    +0.281 C 
ATOM     32  C   LIG    1       24.095 -30.424  12.518  0.00  0.00    +0.190 C 
ATOM     33  C   LIG    1       23.779 -31.896  12.920  0.00  0.00    +0.121 C 
ATOM     34  C   LIG    1       25.032 -32.529  13.623  0.00  0.00    +0.104 C 
ATOM     35  C   LIG    1       25.411 -33.825  12.908  0.00  0.00    +0.045 C 
ATOM     36  C   LIG    1       26.207 -31.577  13.715  0.00  0.00    +0.199 C 
ATOM     37  O   LIG    1       26.523 -30.890  12.558  0.00  0.00    -0.346 OA
BRANCH  33  38
ATOM     38  N   LIG    1       22.525 -31.962  13.697  0.00  0.00    -0.311 NA
ATOM     39  H   LIG    1       22.740 -32.292  14.640  0.00  0.00    +0.122 HD
ATOM     40  C   LIG    1       21.471 -32.748  13.090  0.00  0.00    +0.101 C 
ENDBRANCH  33  38
BRANCH  32  41
ATOM     41  O   LIG    1       23.053 -29.865  11.705  0.00  0.00    -0.385 OA
ATOM     42  H   LIG    1       22.203 -29.960  12.201  0.00  0.00    +0.210 HD
ENDBRANCH  32  41
BRANCH  34  43
ATOM     43  O   LIG    1       24.784 -32.811  15.031  0.00  0.00    -0.385 OA
ATOM     44  H   LIG    1       24.294 -33.583  15.109  0.00  0.00    +0.210 HD
ENDBRANCH  34  43
ENDBRANCH  30  31
ENDBRANCH   5  30
TORSDOF 13
ENDMDL
MODEL 9
REMARK VINA RESULT:      -5.3      4.308      7.630
REMARK  Name = *****
REMARK                            x       y       z     vdW  Elec       q    Type
REMARK                         _______ _______ _______ _____ _____    ______ ____
ROOT
ATOM      1  C   LIG    1       24.782 -30.407  10.333  0.00  0.00    +0.169 C 
ATOM      2  C   LIG    1       25.602 -30.225  11.639  0.00  0.00    +0.084 C 
ATOM      3  C   LIG    1       25.278 -31.223  12.776  0.00  0.00    +0.042 C 
ATOM      4  C   LIG    1       24.233 -32.250  12.445  0.00  0.00    +0.084 C 
ATOM      5  C   LIG    1       22.980 -31.740  11.632  0.00  0.00    +0.169 C 
ATOM      6  C   LIG    1       23.310 -30.519  10.725  0.00  0.00    +0.175 C 
ENDROOT
BRANCH   2   7
ATOM      7  N   LIG    1       25.409 -28.883  12.236  0.00  0.00    -0.325 NA
ATOM      8  H   LIG    1       25.929 -28.819  13.120  0.00  0.00    +0.118 HD
ATOM      9  H   LIG    1       25.871 -28.194  11.639  0.00  0.00    +0.118 HD
ENDBRANCH   2   7
BRANCH   4  10
ATOM     10  N   LIG    1       24.107 -33.334  13.437  0.00  0.00    -0.325 NA
ATOM     11  H   LIG    1       24.900 -33.292  14.089  0.00  0.00    +0.118 HD
ATOM     12  H   LIG    1       23.299 -33.133  14.028  0.00  0.00    +0.118 HD
ENDBRANCH   4  10
BRANCH   6  13
ATOM     13  O   LIG    1       22.566 -30.478   9.498  0.00  0.00    -0.387 OA
ATOM     14  H   LIG    1       21.670 -30.835   9.732  0.00  0.00    +0.210 HD
ENDBRANCH   6  13
BRANCH   1  15
ATOM     15  O   LIG    1       25.271 -31.357   9.338  0.00  0.00    -0.342 OA
BRANCH  15  18
ATOM     16  C   LIG    1       24.754 -29.450   6.218  0.00  0.00    +0.138 C 
ATOM     17  O   LIG    1       25.198 -29.898   7.507  0.00  0.00    -0.345 OA
ATOM     18  C   LIG    1       24.897 -31.214   7.963  0.00  0.00    +0.268 C 
ATOM     19  C   LIG    1       25.648 -32.137   6.990  0.00  0.00    +0.107 C 
ATOM     20  C   LIG    1       25.068 -31.838   5.582  0.00  0.00    +0.026 C 
ATOM     21  C   LIG    1       25.247 -30.380   5.136  0.00  0.00    +0.035 C 
BRANCH  19  22
ATOM     22  N   LIG    1       27.102 -31.883   7.052  0.00  0.00    -0.323 NA
ATOM     23  H   LIG    1       27.299 -31.275   7.846  0.00  0.00    +0.119 HD
ATOM     24  H   LIG    1       27.521 -32.775   7.360  0.00  0.00    +0.119 HD
ENDBRANCH  19  22
BRANCH  16  25
ATOM     25  C   LIG    1       25.139 -27.926   6.036  0.00  0.00    +0.079 C 
ATOM     26  C   LIG    1       25.853 -27.383   7.282  0.00  0.00    +0.026 C 
BRANCH  25  28
ATOM     27  C   LIG    1       24.179 -25.641   6.143  0.00  0.00    +0.101 C 
ATOM     28  N   LIG    1       24.004 -27.033   5.714  0.00  0.00    -0.314 NA
ATOM     29  H   LIG    1       23.849 -27.044   4.718  0.00  0.00    +0.122 HD
ENDBRANCH  25  28
ENDBRANCH  16  25
ENDBRANCH  15  18
ENDBRANCH   1  15
BRANCH   5  30
ATOM     30  O   LIG    1       21.882 -31.522  12.541  0.00  0.00    -0.341 OA
BRANCH  30  31
ATOM     31  C   LIG    1       21.594 -30.122  12.712  0.00  0.00    +0.281 C 
ATOM     32  C   LIG    1       20.138 -29.824  12.310  0.00  0.00    +0.190 C 
ATOM     33  C   LIG    1       19.186 -30.602  13.267  0.00  0.00    +0.121 C 
ATOM     34  C   LIG    1       19.625 -30.361  14.756  0.00  0.00    +0.104 C 
ATOM     35  C   LIG    1       19.841 -31.708  15.443  0.00  0.00    +0.045 C 
ATOM     36  C   LIG    1       20.844 -29.469  14.879  0.00  0.00    +0.199 C 
ATOM     37  O   LIG    1       21.902 -29.769  14.042  0.00  0.00    -0.346 OA
BRANCH  33  38
ATOM     38  N   LIG    1       17.776 -30.277  12.971  0.00  0.00    -0.311 NA
ATOM     39  H   LIG    1       17.355 -29.852  13.799  0.00  0.00    +0.122 HD
ATOM     40  C   LIG    1       16.982 -31.387  12.486  0.00  0.00    +0.101 C 
ENDBRANCH  33  38
BRANCH  32  41
ATOM     41  O   LIG    1       19.897 -30.164  10.937  0.00  0.00    -0.385 OA
ATOM     42  H   LIG    1       19.151 -30.812  10.916  0.00  0.00    +0.210 HD
ENDBRANCH  32  41
BRANCH  34  43
ATOM     43  O   LIG    1       18.635 -29.593  15.499  0.00  0.00    -0.385 OA
ATOM     44  H   LIG    1       18.578 -28.745  15.152  0.00  0.00    +0.210 HD
ENDBRANCH  34  43
ENDBRANCH  30  31
ENDBRANCH   5  30
TORSDOF 13
ENDMDL
