MODEL 1
REMARK VINA RESULT:       8.7      0.000      0.000
REMARK  Name = *****
REMARK                            x       y       z     vdW  Elec       q    Type
REMARK                         _______ _______ _______ _____ _____    ______ ____
ROOT
ATOM      1  C   LIG    1       25.497 -15.190   5.938  0.00  0.00    +0.016 C 
ATOM      2  C   LIG    1       24.786 -15.688   4.655  0.00  0.00    -0.003 C 
ATOM      3  C   LIG    1       24.031 -14.515   4.052  0.00  0.00    -0.036 C 
ATOM      4  C   LIG    1       22.753 -14.486   4.463  0.00  0.00    -0.022 C 
ATOM      5  C   LIG    1       22.449 -15.644   5.358  0.00  0.00    +0.032 C 
ATOM      6  C   LIG    1       23.596 -16.634   5.028  0.00  0.00    +0.007 C 
ATOM      7  C   LIG    1       23.144 -17.595   3.882  0.00  0.00    +0.001 C 
ATOM      8  C   LIG    1       22.092 -18.623   4.339  0.00  0.00    +0.031 C 
ATOM      9  C   LIG    1       22.692 -19.694   5.183  0.00  0.00    -0.027 C 
ATOM     10  C   LIG    1       23.945 -20.139   4.997  0.00  0.00    -0.065 C 
ATOM     11  C   LIG    1       24.851 -19.649   3.856  0.00  0.00    -0.008 C 
ATOM     12  C   LIG    1       24.817 -20.746   2.748  0.00  0.00    +0.016 C 
ATOM     13  C   LIG    1       26.325 -19.613   4.372  0.00  0.00    +0.013 C 
ATOM     14  C   LIG    1       26.430 -19.351   5.878  0.00  0.00    +0.032 C 
ATOM     15  C   LIG    1       25.776 -20.486   6.681  0.00  0.00    +0.119 C 
ATOM     16  C   LIG    1       24.572 -21.116   5.963  0.00  0.00    +0.062 C 
ATOM     17  C   LIG    1       24.305 -18.317   3.164  0.00  0.00    +0.003 C 
ATOM     18  C   LIG    1       25.322 -17.278   2.675  0.00  0.00    +0.005 C 
ATOM     19  C   LIG    1       25.849 -16.351   3.761  0.00  0.00    +0.012 C 
ENDROOT
BRANCH   3  20
ATOM     20  C   LIG    1       24.635 -13.456   3.255  0.00  0.00    -0.004 A 
ATOM     21  C   LIG    1       26.017 -13.325   3.161  0.00  0.00    +0.119 A 
ATOM     22  N   LIG    1       26.650 -12.356   2.453  0.00  0.00    -0.263 NA
ATOM     23  C   LIG    1       25.861 -11.470   1.812  0.00  0.00    +0.111 A 
ATOM     24  C   LIG    1       24.476 -11.502   1.850  0.00  0.00    +0.020 A 
ATOM     25  C   LIG    1       23.857 -12.508   2.591  0.00  0.00    +0.011 A 
ENDBRANCH   3  20
BRANCH  15  26
ATOM     26  O   LIG    1       26.742 -21.513   6.918  0.00  0.00    -0.392 OA
ATOM     27  H   LIG    1       27.072 -21.400   7.826  0.00  0.00    +0.210 HD
ENDBRANCH  15  26
TORSDOF 2
ENDMDL
