MODEL 1
REMARK VINA RESULT:      -2.0      0.000      0.000
REMARK  Name = *****
REMARK                            x       y       z     vdW  Elec       q    Type
REMARK                         _______ _______ _______ _____ _____    ______ ____
ROOT
ATOM      1  C   LIG    1       22.160 -18.707   4.349  0.00  0.00    -0.046 A 
ATOM      2  C   LIG    1       21.478 -17.647   4.971  0.00  0.00    +0.005 A 
ATOM      3  C   LIG    1       21.965 -16.349   4.927  0.00  0.00    +0.029 A 
ATOM      4  C   LIG    1       23.161 -16.094   4.270  0.00  0.00    +0.113 A 
ATOM      5  C   LIG    1       23.880 -17.129   3.661  0.00  0.00    +0.029 A 
ATOM      6  C   LIG    1       23.378 -18.434   3.704  0.00  0.00    +0.005 A 
ENDROOT
BRANCH   4   7
ATOM      7  S   LIG    1       23.757 -14.421   4.187  0.00  0.00    +0.103 S 
ATOM      8  O   LIG    1       23.731 -13.894   5.542  0.00  0.00    -0.146 OA
ATOM      9  O   LIG    1       23.010 -13.752   3.148  0.00  0.00    -0.146 OA
BRANCH   7  10
ATOM     10  N   LIG    1       25.284 -14.631   3.738  0.00  0.00    -0.076 NA
ATOM     11  C   LIG    1       25.955 -13.744   3.098  0.00  0.00    +0.299 C 
BRANCH  11  12
ATOM     12  N   LIG    1       27.218 -13.898   2.630  0.00  0.00    -0.295 N 
ATOM     13  H   LIG    1       27.430 -13.262   1.869  0.00  0.00    +0.151 HD
BRANCH  12  14
ATOM     14  C   LIG    1       28.336 -14.266   3.487  0.00  0.00    +0.075 C 
ATOM     15  C   LIG    1       29.321 -13.098   3.614  0.00  0.00    +0.022 C 
ATOM     16  C   LIG    1       28.741 -11.922   4.397  0.00  0.00    +0.002 C 
ATOM     17  C   LIG    1       28.243 -12.361   5.771  0.00  0.00    +0.000 C 
ATOM     18  C   LIG    1       27.258 -13.523   5.678  0.00  0.00    +0.002 C 
ATOM     19  C   LIG    1       27.820 -14.692   4.867  0.00  0.00    +0.022 C 
ENDBRANCH  12  14
ENDBRANCH  11  12
BRANCH  11  20
ATOM     20  O   LIG    1       25.517 -12.515   2.779  0.00  0.00    -0.481 OA
ATOM     21  H   LIG    1       25.671 -12.303   1.835  0.00  0.00    +0.295 HD
ENDBRANCH  11  20
ENDBRANCH   7  10
ENDBRANCH   4   7
BRANCH   1  22
ATOM     22  C   LIG    1       21.598 -20.119   4.342  0.00  0.00    +0.054 C 
BRANCH  22  23
ATOM     23  C   LIG    1       22.050 -20.966   5.540  0.00  0.00    +0.109 C 
BRANCH  23  25
ATOM     24  C   LIG    1       24.460 -21.083   4.991  0.00  0.00    +0.264 C 
ATOM     25  N   LIG    1       23.444 -20.809   5.880  0.00  0.00    -0.310 N 
ATOM     26  H   LIG    1       23.705 -20.392   6.770  0.00  0.00    +0.149 HD
ATOM     27  O   LIG    1       24.279 -21.571   3.879  0.00  0.00    -0.269 OA
BRANCH  24  32
ATOM     28  C   LIG    1       29.472 -19.356   7.022  0.00  0.00    +0.067 C 
ATOM     29  C   LIG    1       28.179 -19.836   6.438  0.00  0.00    +0.056 A 
ATOM     30  N   LIG    1       27.607 -19.089   5.461  0.00  0.00    -0.256 NA
ATOM     31  C   LIG    1       26.419 -19.545   4.985  0.00  0.00    +0.144 A 
ATOM     32  C   LIG    1       25.827 -20.707   5.455  0.00  0.00    +0.143 A 
ATOM     33  N   LIG    1       26.412 -21.492   6.406  0.00  0.00    -0.247 NA
ATOM     34  C   LIG    1       27.595 -21.024   6.876  0.00  0.00    +0.134 A 
ENDBRANCH  24  32
ENDBRANCH  23  25
ENDBRANCH  22  23
ENDBRANCH   1  22
TORSDOF 9
ENDMDL
MODEL 2
REMARK VINA RESULT:       0.9      2.824      5.253
REMARK  Name = *****
REMARK                            x       y       z     vdW  Elec       q    Type
REMARK                         _______ _______ _______ _____ _____    ______ ____
ROOT
ATOM      1  C   LIG    1       24.238 -21.104   5.668  0.00  0.00    -0.046 A 
ATOM      2  C   LIG    1       25.055 -21.249   6.803  0.00  0.00    +0.005 A 
ATOM      3  C   LIG    1       26.368 -20.801   6.811  0.00  0.00    +0.029 A 
ATOM      4  C   LIG    1       26.893 -20.215   5.668  0.00  0.00    +0.113 A 
ATOM      5  C   LIG    1       26.117 -20.077   4.511  0.00  0.00    +0.029 A 
ATOM      6  C   LIG    1       24.792 -20.524   4.513  0.00  0.00    +0.005 A 
ENDROOT
BRANCH   4   7
ATOM      7  S   LIG    1       28.565 -19.611   5.702  0.00  0.00    +0.103 S 
ATOM      8  O   LIG    1       29.392 -20.618   5.056  0.00  0.00    -0.146 OA
ATOM      9  O   LIG    1       28.850 -19.220   7.062  0.00  0.00    -0.146 OA
BRANCH   7  10
ATOM     10  N   LIG    1       28.475 -18.321   4.750  0.00  0.00    -0.076 NA
ATOM     11  C   LIG    1       28.737 -17.132   5.154  0.00  0.00    +0.299 C 
BRANCH  11  12
ATOM     12  N   LIG    1       28.605 -16.002   4.417  0.00  0.00    -0.295 N 
ATOM     13  H   LIG    1       29.212 -15.995   3.605  0.00  0.00    +0.151 HD
BRANCH  12  14
ATOM     14  C   LIG    1       27.337 -15.299   4.275  0.00  0.00    +0.075 C 
ATOM     15  C   LIG    1       27.144 -14.303   5.424  0.00  0.00    +0.022 C 
ATOM     16  C   LIG    1       28.123 -13.133   5.359  0.00  0.00    +0.002 C 
ATOM     17  C   LIG    1       28.052 -12.423   4.010  0.00  0.00    +0.000 C 
ATOM     18  C   LIG    1       28.242 -13.389   2.844  0.00  0.00    +0.002 C 
ATOM     19  C   LIG    1       27.286 -14.581   2.921  0.00  0.00    +0.022 C 
ENDBRANCH  12  14
ENDBRANCH  11  12
BRANCH  11  20
ATOM     20  O   LIG    1       29.183 -16.805   6.379  0.00  0.00    -0.481 OA
ATOM     21  H   LIG    1       28.473 -16.846   7.052  0.00  0.00    +0.295 HD
ENDBRANCH  11  20
ENDBRANCH   7  10
ENDBRANCH   4   7
BRANCH   1  22
ATOM     22  C   LIG    1       22.782 -21.536   5.675  0.00  0.00    +0.054 C 
BRANCH  22  23
ATOM     23  C   LIG    1       21.811 -20.432   5.230  0.00  0.00    +0.109 C 
BRANCH  23  25
ATOM     24  C   LIG    1       21.940 -18.133   4.325  0.00  0.00    +0.264 C 
ATOM     25  N   LIG    1       22.401 -19.116   5.173  0.00  0.00    -0.310 N 
ATOM     26  H   LIG    1       23.120 -18.854   5.842  0.00  0.00    +0.149 HD
ATOM     27  O   LIG    1       21.065 -18.314   3.483  0.00  0.00    -0.269 OA
BRANCH  24  32
ATOM     28  C   LIG    1       24.051 -12.878   4.715  0.00  0.00    +0.067 C 
ATOM     29  C   LIG    1       23.542 -14.284   4.645  0.00  0.00    +0.056 A 
ATOM     30  N   LIG    1       24.090 -15.113   3.722  0.00  0.00    -0.256 NA
ATOM     31  C   LIG    1       23.573 -16.370   3.673  0.00  0.00    +0.144 A 
ATOM     32  C   LIG    1       22.557 -16.789   4.518  0.00  0.00    +0.143 A 
ATOM     33  N   LIG    1       22.027 -15.980   5.481  0.00  0.00    -0.247 NA
ATOM     34  C   LIG    1       22.548 -14.728   5.517  0.00  0.00    +0.134 A 
ENDBRANCH  24  32
ENDBRANCH  23  25
ENDBRANCH  22  23
ENDBRANCH   1  22
TORSDOF 9
ENDMDL
