MODEL 1
REMARK VINA RESULT:      -5.4      0.000      0.000
REMARK  Name = *****
REMARK                            x       y       z     vdW  Elec       q    Type
REMARK                         _______ _______ _______ _____ _____    ______ ____
ROOT
ATOM      1  C   LIG    1       24.652 -19.911   4.519  0.00  0.00    +0.162 A 
ATOM      2  C   LIG    1       25.353 -20.448   5.617  0.00  0.00    +0.162 A 
ATOM      3  C   LIG    1       24.647 -21.015   6.682  0.00  0.00    +0.049 A 
ATOM      4  C   LIG    1       23.254 -21.005   6.700  0.00  0.00    +0.004 A 
ATOM      5  C   LIG    1       22.556 -20.419   5.647  0.00  0.00    +0.004 A 
ATOM      6  C   LIG    1       23.253 -19.878   4.562  0.00  0.00    +0.049 A 
ENDROOT
BRANCH   1   8
ATOM      7  C   LIG    1       25.681 -18.110   3.317  0.00  0.00    +0.277 C 
ATOM      8  O   LIG    1       25.385 -19.494   3.443  0.00  0.00    -0.491 OA
ENDBRANCH   1   8
BRANCH   2   9
ATOM      9  O   LIG    1       26.717 -20.494   5.771  0.00  0.00    -0.486 OA
BRANCH   9  10
ATOM     10  C   LIG    1       27.227 -20.134   7.062  0.00  0.00    +0.262 C 
BRANCH  10  11
ATOM     11  C   LIG    1       28.753 -20.176   7.025  0.00  0.00    +0.177 C 
BRANCH  11  12
ATOM     12  O   LIG    1       29.195 -21.359   6.330  0.00  0.00    -0.386 OA
ATOM     13  H   LIG    1       28.574 -21.477   5.584  0.00  0.00    +0.210 HD
ENDBRANCH  11  12
BRANCH  11  14
ATOM     14  C   LIG    1       29.365 -18.965   6.326  0.00  0.00    +0.190 C 
BRANCH  14  15
ATOM     15  O   LIG    1       28.715 -18.780   5.066  0.00  0.00    -0.392 OA
ATOM     16  H   LIG    1       29.398 -18.395   4.480  0.00  0.00    +0.209 HD
ENDBRANCH  14  15
ENDBRANCH  11  14
ENDBRANCH  10  11
ENDBRANCH   9  10
ENDBRANCH   2   9
TORSDOF 7
ENDMDL
MODEL 2
REMARK VINA RESULT:      -4.6      1.051      2.481
REMARK  Name = *****
REMARK                            x       y       z     vdW  Elec       q    Type
REMARK                         _______ _______ _______ _____ _____    ______ ____
ROOT
ATOM      1  C   LIG    1       24.405 -20.615   5.307  0.00  0.00    +0.162 A 
ATOM      2  C   LIG    1       25.690 -20.127   4.998  0.00  0.00    +0.162 A 
ATOM      3  C   LIG    1       25.839 -19.104   4.057  0.00  0.00    +0.049 A 
ATOM      4  C   LIG    1       24.734 -18.597   3.375  0.00  0.00    +0.004 A 
ATOM      5  C   LIG    1       23.468 -19.120   3.630  0.00  0.00    +0.004 A 
ATOM      6  C   LIG    1       23.306 -20.120   4.593  0.00  0.00    +0.049 A 
ENDROOT
BRANCH   1   8
ATOM      7  C   LIG    1       23.081 -21.570   7.061  0.00  0.00    +0.277 C 
ATOM      8  O   LIG    1       24.298 -21.514   6.330  0.00  0.00    -0.491 OA
ENDBRANCH   1   8
BRANCH   2   9
ATOM      9  O   LIG    1       26.876 -20.550   5.546  0.00  0.00    -0.486 OA
BRANCH   9  10
ATOM     10  C   LIG    1       27.220 -20.004   6.826  0.00  0.00    +0.262 C 
BRANCH  10  11
ATOM     11  C   LIG    1       28.732 -20.098   7.019  0.00  0.00    +0.177 C 
BRANCH  11  12
ATOM     12  O   LIG    1       29.246 -21.244   6.314  0.00  0.00    -0.386 OA
ATOM     13  H   LIG    1       28.718 -22.007   6.624  0.00  0.00    +0.210 HD
ENDBRANCH  11  12
BRANCH  11  14
ATOM     14  C   LIG    1       29.475 -18.863   6.513  0.00  0.00    +0.190 C 
BRANCH  14  15
ATOM     15  O   LIG    1       29.014 -18.554   5.196  0.00  0.00    -0.392 OA
ATOM     16  H   LIG    1       29.803 -18.641   4.622  0.00  0.00    +0.209 HD
ENDBRANCH  14  15
ENDBRANCH  11  14
ENDBRANCH  10  11
ENDBRANCH   9  10
ENDBRANCH   2   9
TORSDOF 7
ENDMDL
MODEL 3
REMARK VINA RESULT:      -4.5      2.406      4.310
REMARK  Name = *****
REMARK                            x       y       z     vdW  Elec       q    Type
REMARK                         _______ _______ _______ _____ _____    ______ ____
ROOT
ATOM      1  C   LIG    1       25.081 -19.947   4.814  0.00  0.00    +0.162 A 
ATOM      2  C   LIG    1       24.631 -18.930   3.949  0.00  0.00    +0.162 A 
ATOM      3  C   LIG    1       23.278 -18.575   3.938  0.00  0.00    +0.049 A 
ATOM      4  C   LIG    1       22.356 -19.255   4.731  0.00  0.00    +0.004 A 
ATOM      5  C   LIG    1       22.786 -20.304   5.541  0.00  0.00    +0.004 A 
ATOM      6  C   LIG    1       24.141 -20.644   5.583  0.00  0.00    +0.049 A 
ENDROOT
BRANCH   1   8
ATOM      7  C   LIG    1       27.001 -20.444   6.160  0.00  0.00    +0.277 C 
ATOM      8  O   LIG    1       26.429 -20.162   4.890  0.00  0.00    -0.491 OA
ENDBRANCH   1   8
BRANCH   2   9
ATOM      9  O   LIG    1       25.401 -18.199   3.079  0.00  0.00    -0.486 OA
BRANCH   9  10
ATOM     10  C   LIG    1       26.228 -17.181   3.657  0.00  0.00    +0.262 C 
BRANCH  10  11
ATOM     11  C   LIG    1       25.769 -15.816   3.148  0.00  0.00    +0.177 C 
BRANCH  11  12
ATOM     12  O   LIG    1       24.731 -15.297   4.002  0.00  0.00    -0.386 OA
ATOM     13  H   LIG    1       24.031 -14.970   3.402  0.00  0.00    +0.210 HD
ENDBRANCH  11  12
BRANCH  11  14
ATOM     14  C   LIG    1       26.897 -14.788   3.101  0.00  0.00    +0.190 C 
BRANCH  14  15
ATOM     15  O   LIG    1       26.902 -14.166   1.814  0.00  0.00    -0.392 OA
ATOM     16  H   LIG    1       27.687 -14.530   1.357  0.00  0.00    +0.209 HD
ENDBRANCH  14  15
ENDBRANCH  11  14
ENDBRANCH  10  11
ENDBRANCH   9  10
ENDBRANCH   2   9
TORSDOF 7
ENDMDL
MODEL 4
REMARK VINA RESULT:      -4.4      1.807      4.518
REMARK  Name = *****
REMARK                            x       y       z     vdW  Elec       q    Type
REMARK                         _______ _______ _______ _____ _____    ______ ____
ROOT
ATOM      1  C   LIG    1       26.490 -19.881   5.046  0.00  0.00    +0.162 A 
ATOM      2  C   LIG    1       26.131 -20.827   6.027  0.00  0.00    +0.162 A 
ATOM      3  C   LIG    1       27.036 -21.155   7.041  0.00  0.00    +0.049 A 
ATOM      4  C   LIG    1       28.315 -20.601   7.062  0.00  0.00    +0.004 A 
ATOM      5  C   LIG    1       28.697 -19.714   6.058  0.00  0.00    +0.004 A 
ATOM      6  C   LIG    1       27.788 -19.356   5.059  0.00  0.00    +0.049 A 
ENDROOT
BRANCH   1   8
ATOM      7  C   LIG    1       25.764 -18.343   3.357  0.00  0.00    +0.277 C 
ATOM      8  O   LIG    1       25.525 -19.492   4.160  0.00  0.00    -0.491 OA
ENDBRANCH   1   8
BRANCH   2   9
ATOM      9  O   LIG    1       24.933 -21.492   6.119  0.00  0.00    -0.486 OA
BRANCH   9  10
ATOM     10  C   LIG    1       23.905 -20.854   6.889  0.00  0.00    +0.262 C 
BRANCH  10  11
ATOM     11  C   LIG    1       22.720 -20.543   5.978  0.00  0.00    +0.177 C 
BRANCH  11  12
ATOM     12  O   LIG    1       22.893 -19.248   5.372  0.00  0.00    -0.386 OA
ATOM     13  H   LIG    1       23.859 -19.095   5.340  0.00  0.00    +0.210 HD
ENDBRANCH  11  12
BRANCH  11  14
ATOM     14  C   LIG    1       22.544 -21.567   4.858  0.00  0.00    +0.190 C 
BRANCH  14  15
ATOM     15  O   LIG    1       23.454 -21.255   3.801  0.00  0.00    -0.392 OA
ATOM     16  H   LIG    1       24.132 -20.678   4.209  0.00  0.00    +0.209 HD
ENDBRANCH  14  15
ENDBRANCH  11  14
ENDBRANCH  10  11
ENDBRANCH   9  10
ENDBRANCH   2   9
TORSDOF 7
ENDMDL
MODEL 5
REMARK VINA RESULT:      -4.3      2.736      4.543
REMARK  Name = *****
REMARK                            x       y       z     vdW  Elec       q    Type
REMARK                         _______ _______ _______ _____ _____    ______ ____
ROOT
ATOM      1  C   LIG    1       25.838 -19.682   4.520  0.00  0.00    +0.162 A 
ATOM      2  C   LIG    1       25.339 -18.584   3.792  0.00  0.00    +0.162 A 
ATOM      3  C   LIG    1       23.960 -18.433   3.619  0.00  0.00    +0.049 A 
ATOM      4  C   LIG    1       23.071 -19.388   4.109  0.00  0.00    +0.004 A 
ATOM      5  C   LIG    1       23.563 -20.509   4.774  0.00  0.00    +0.004 A 
ATOM      6  C   LIG    1       24.938 -20.652   4.980  0.00  0.00    +0.049 A 
ENDROOT
BRANCH   1   8
ATOM      7  C   LIG    1       27.612 -20.124   6.070  0.00  0.00    +0.277 C 
ATOM      8  O   LIG    1       27.179 -19.712   4.780  0.00  0.00    -0.491 OA
ENDBRANCH   1   8
BRANCH   2   9
ATOM      9  O   LIG    1       26.081 -17.586   3.210  0.00  0.00    -0.486 OA
BRANCH   9  10
ATOM     10  C   LIG    1       25.572 -16.252   3.341  0.00  0.00    +0.262 C 
BRANCH  10  11
ATOM     11  C   LIG    1       26.728 -15.262   3.214  0.00  0.00    +0.177 C 
BRANCH  11  12
ATOM     12  O   LIG    1       26.602 -14.515   1.988  0.00  0.00    -0.386 OA
ATOM     13  H   LIG    1       27.404 -14.719   1.468  0.00  0.00    +0.210 HD
ENDBRANCH  11  12
BRANCH  11  14
ATOM     14  C   LIG    1       26.788 -14.265   4.368  0.00  0.00    +0.190 C 
BRANCH  14  15
ATOM     15  O   LIG    1       25.455 -13.938   4.766  0.00  0.00    -0.392 OA
ATOM     16  H   LIG    1       25.347 -12.990   4.545  0.00  0.00    +0.209 HD
ENDBRANCH  14  15
ENDBRANCH  11  14
ENDBRANCH  10  11
ENDBRANCH   9  10
ENDBRANCH   2   9
TORSDOF 7
ENDMDL
MODEL 6
REMARK VINA RESULT:      -4.1      3.591      5.729
REMARK  Name = *****
REMARK                            x       y       z     vdW  Elec       q    Type
REMARK                         _______ _______ _______ _____ _____    ______ ____
ROOT
ATOM      1  C   LIG    1       26.652 -14.240   3.997  0.00  0.00    +0.162 A 
ATOM      2  C   LIG    1       25.863 -15.367   3.689  0.00  0.00    +0.162 A 
ATOM      3  C   LIG    1       24.469 -15.281   3.763  0.00  0.00    +0.049 A 
ATOM      4  C   LIG    1       23.849 -14.111   4.195  0.00  0.00    +0.004 A 
ATOM      5  C   LIG    1       24.626 -13.015   4.562  0.00  0.00    +0.004 A 
ATOM      6  C   LIG    1       26.019 -13.080   4.460  0.00  0.00    +0.049 A 
ENDROOT
BRANCH   1   8
ATOM      7  C   LIG    1       28.762 -13.134   3.742  0.00  0.00    +0.277 C 
ATOM      8  O   LIG    1       27.997 -14.331   3.777  0.00  0.00    -0.491 OA
ENDBRANCH   1   8
BRANCH   2   9
ATOM      9  O   LIG    1       26.321 -16.599   3.293  0.00  0.00    -0.486 OA
BRANCH   9  10
ATOM     10  C   LIG    1       25.360 -17.664   3.279  0.00  0.00    +0.262 C 
BRANCH  10  11
ATOM     11  C   LIG    1       26.069 -18.980   3.589  0.00  0.00    +0.177 C 
BRANCH  11  12
ATOM     12  O   LIG    1       27.179 -18.742   4.477  0.00  0.00    -0.386 OA
ATOM     13  H   LIG    1       27.815 -19.466   4.309  0.00  0.00    +0.210 HD
ENDBRANCH  11  12
BRANCH  11  14
ATOM     14  C   LIG    1       25.154 -20.009   4.248  0.00  0.00    +0.190 C 
BRANCH  14  15
ATOM     15  O   LIG    1       25.949 -20.902   5.030  0.00  0.00    -0.392 OA
ATOM     16  H   LIG    1       26.872 -20.598   4.905  0.00  0.00    +0.209 HD
ENDBRANCH  14  15
ENDBRANCH  11  14
ENDBRANCH  10  11
ENDBRANCH   9  10
ENDBRANCH   2   9
TORSDOF 7
ENDMDL
MODEL 7
REMARK VINA RESULT:      -4.0      2.561      4.179
REMARK  Name = *****
REMARK                            x       y       z     vdW  Elec       q    Type
REMARK                         _______ _______ _______ _____ _____    ______ ____
ROOT
ATOM      1  C   LIG    1       23.732 -19.629   4.656  0.00  0.00    +0.162 A 
ATOM      2  C   LIG    1       25.040 -19.309   4.238  0.00  0.00    +0.162 A 
ATOM      3  C   LIG    1       26.136 -19.916   4.859  0.00  0.00    +0.049 A 
ATOM      4  C   LIG    1       25.955 -20.792   5.928  0.00  0.00    +0.004 A 
ATOM      5  C   LIG    1       24.668 -21.062   6.386  0.00  0.00    +0.004 A 
ATOM      6  C   LIG    1       23.564 -20.486   5.751  0.00  0.00    +0.049 A 
ENDROOT
BRANCH   1   8
ATOM      7  C   LIG    1       22.057 -17.936   4.394  0.00  0.00    +0.277 C 
ATOM      8  O   LIG    1       22.694 -19.118   3.929  0.00  0.00    -0.491 OA
ENDBRANCH   1   8
BRANCH   2   9
ATOM      9  O   LIG    1       25.385 -18.437   3.236  0.00  0.00    -0.486 OA
BRANCH   9  10
ATOM     10  C   LIG    1       26.359 -17.437   3.566  0.00  0.00    +0.262 C 
BRANCH  10  11
ATOM     11  C   LIG    1       25.849 -16.074   3.105  0.00  0.00    +0.177 C 
BRANCH  11  12
ATOM     12  O   LIG    1       24.703 -15.688   3.888  0.00  0.00    -0.386 OA
ATOM     13  H   LIG    1       23.959 -15.618   3.257  0.00  0.00    +0.210 HD
ENDBRANCH  11  12
BRANCH  11  14
ATOM     14  C   LIG    1       26.898 -14.971   3.233  0.00  0.00    +0.190 C 
BRANCH  14  15
ATOM     15  O   LIG    1       26.945 -14.234   2.009  0.00  0.00    -0.392 OA
ATOM     16  H   LIG    1       26.303 -13.504   2.125  0.00  0.00    +0.209 HD
ENDBRANCH  14  15
ENDBRANCH  11  14
ENDBRANCH  10  11
ENDBRANCH   9  10
ENDBRANCH   2   9
TORSDOF 7
ENDMDL
MODEL 8
REMARK VINA RESULT:      -3.9      3.424      5.961
REMARK  Name = *****
REMARK                            x       y       z     vdW  Elec       q    Type
REMARK                         _______ _______ _______ _____ _____    ______ ____
ROOT
ATOM      1  C   LIG    1       25.035 -14.493   3.894  0.00  0.00    +0.162 A 
ATOM      2  C   LIG    1       25.930 -15.516   3.521  0.00  0.00    +0.162 A 
ATOM      3  C   LIG    1       27.298 -15.367   3.771  0.00  0.00    +0.049 A 
ATOM      4  C   LIG    1       27.797 -14.194   4.332  0.00  0.00    +0.004 A 
ATOM      5  C   LIG    1       26.924 -13.154   4.644  0.00  0.00    +0.004 A 
ATOM      6  C   LIG    1       25.551 -13.306   4.429  0.00  0.00    +0.049 A 
ENDROOT
BRANCH   1   8
ATOM      7  C   LIG    1       23.012 -15.376   4.828  0.00  0.00    +0.277 C 
ATOM      8  O   LIG    1       23.698 -14.742   3.757  0.00  0.00    -0.491 OA
ENDBRANCH   1   8
BRANCH   2   9
ATOM      9  O   LIG    1       25.604 -16.707   2.921  0.00  0.00    -0.486 OA
BRANCH   9  10
ATOM     10  C   LIG    1       26.145 -17.893   3.518  0.00  0.00    +0.262 C 
BRANCH  10  11
ATOM     11  C   LIG    1       25.202 -19.063   3.246  0.00  0.00    +0.177 C 
BRANCH  11  12
ATOM     12  O   LIG    1       25.737 -20.269   3.825  0.00  0.00    -0.386 OA
ATOM     13  H   LIG    1       26.276 -20.686   3.124  0.00  0.00    +0.210 HD
ENDBRANCH  11  12
BRANCH  11  14
ATOM     14  C   LIG    1       23.803 -18.846   3.818  0.00  0.00    +0.190 C 
BRANCH  14  15
ATOM     15  O   LIG    1       23.573 -19.808   4.851  0.00  0.00    -0.392 OA
ATOM     16  H   LIG    1       23.214 -19.294   5.603  0.00  0.00    +0.209 HD
ENDBRANCH  14  15
ENDBRANCH  11  14
ENDBRANCH  10  11
ENDBRANCH   9  10
ENDBRANCH   2   9
TORSDOF 7
ENDMDL
MODEL 9
REMARK VINA RESULT:      -3.6      1.529      3.329
REMARK  Name = *****
REMARK                            x       y       z     vdW  Elec       q    Type
REMARK                         _______ _______ _______ _____ _____    ______ ____
ROOT
ATOM      1  C   LIG    1       24.797 -20.342   5.156  0.00  0.00    +0.162 A 
ATOM      2  C   LIG    1       24.703 -19.368   4.142  0.00  0.00    +0.162 A 
ATOM      3  C   LIG    1       23.468 -18.774   3.861  0.00  0.00    +0.049 A 
ATOM      4  C   LIG    1       22.315 -19.177   4.532  0.00  0.00    +0.004 A 
ATOM      5  C   LIG    1       22.392 -20.185   5.490  0.00  0.00    +0.004 A 
ATOM      6  C   LIG    1       23.626 -20.761   5.801  0.00  0.00    +0.049 A 
ENDROOT
BRANCH   1   8
ATOM      7  C   LIG    1       26.320 -21.087   6.850  0.00  0.00    +0.277 C 
ATOM      8  O   LIG    1       26.045 -20.791   5.488  0.00  0.00    -0.491 OA
ENDBRANCH   1   8
BRANCH   2   9
ATOM      9  O   LIG    1       25.732 -18.898   3.364  0.00  0.00    -0.486 OA
BRANCH   9  10
ATOM     10  C   LIG    1       25.969 -17.484   3.403  0.00  0.00    +0.262 C 
BRANCH  10  11
ATOM     11  C   LIG    1       27.446 -17.234   3.695  0.00  0.00    +0.177 C 
BRANCH  11  12
ATOM     12  O   LIG    1       27.648 -15.853   4.056  0.00  0.00    -0.386 OA
ATOM     13  H   LIG    1       27.720 -15.840   5.031  0.00  0.00    +0.210 HD
ENDBRANCH  11  12
BRANCH  11  14
ATOM     14  C   LIG    1       27.984 -18.100   4.832  0.00  0.00    +0.190 C 
BRANCH  14  15
ATOM     15  O   LIG    1       29.367 -17.798   5.028  0.00  0.00    -0.392 OA
ATOM     16  H   LIG    1       29.730 -18.565   5.517  0.00  0.00    +0.209 HD
ENDBRANCH  14  15
ENDBRANCH  11  14
ENDBRANCH  10  11
ENDBRANCH   9  10
ENDBRANCH   2   9
TORSDOF 7
ENDMDL
