MODEL 1
REMARK VINA RESULT:      -4.1      0.000      0.000
REMARK  Name = *****
REMARK                            x       y       z     vdW  Elec       q    Type
REMARK                         _______ _______ _______ _____ _____    ______ ____
ROOT
ATOM      1  C   LIG    1       26.059 -20.704   5.335  0.00  0.00    +0.020 C 
ATOM      2  C   LIG    1       25.345 -20.206   4.056  0.00  0.00    +0.009 C 
ATOM      3  C   LIG    1       23.990 -20.878   3.840  0.00  0.00    +0.035 C 
ATOM      4  C   LIG    1       23.052 -20.745   5.045  0.00  0.00    +0.063 C 
ATOM      5  C   LIG    1       22.532 -19.313   5.204  0.00  0.00    +0.041 C 
ATOM      6  C   LIG    1       23.756 -21.238   6.314  0.00  0.00    +0.035 C 
ATOM      7  C   LIG    1       25.110 -20.570   6.548  0.00  0.00    +0.009 C 
ENDROOT
BRANCH   1   9
ATOM      8  C   LIG    1       27.691 -19.729   7.062  0.00  0.00    +0.041 C 
ATOM      9  C   LIG    1       27.426 -19.982   5.570  0.00  0.00    +0.063 C 
ATOM     10  C   LIG    1       27.502 -18.642   4.824  0.00  0.00    +0.041 C 
BRANCH   9  11
ATOM     11  O   LIG    1       28.477 -20.817   5.076  0.00  0.00    -0.389 OA
ATOM     12  H   LIG    1       29.326 -20.416   5.330  0.00  0.00    +0.210 HD
ENDBRANCH   9  11
ENDBRANCH   1   9
BRANCH   4  13
ATOM     13  O   LIG    1       21.902 -21.566   4.816  0.00  0.00    -0.389 OA
ATOM     14  H   LIG    1       22.208 -22.472   4.642  0.00  0.00    +0.210 HD
ENDBRANCH   4  13
TORSDOF 3
ENDMDL
MODEL 2
REMARK VINA RESULT:      -4.0      1.160      2.125
REMARK  Name = *****
REMARK                            x       y       z     vdW  Elec       q    Type
REMARK                         _______ _______ _______ _____ _____    ______ ____
ROOT
ATOM      1  C   LIG    1       26.496 -19.856   5.936  0.00  0.00    +0.020 C 
ATOM      2  C   LIG    1       25.475 -20.897   6.454  0.00  0.00    +0.009 C 
ATOM      3  C   LIG    1       24.033 -20.523   6.120  0.00  0.00    +0.035 C 
ATOM      4  C   LIG    1       23.806 -20.272   4.625  0.00  0.00    +0.063 C 
ATOM      5  C   LIG    1       23.858 -21.572   3.816  0.00  0.00    +0.041 C 
ATOM      6  C   LIG    1       24.815 -19.240   4.108  0.00  0.00    +0.035 C 
ATOM      7  C   LIG    1       26.263 -19.604   4.428  0.00  0.00    +0.009 C 
ENDROOT
BRANCH   1   9
ATOM      8  C   LIG    1       28.045 -21.567   7.062  0.00  0.00    +0.041 C 
ATOM      9  C   LIG    1       27.972 -20.267   6.247  0.00  0.00    +0.063 C 
ATOM     10  C   LIG    1       28.725 -19.167   7.008  0.00  0.00    +0.041 C 
BRANCH   9  11
ATOM     11  O   LIG    1       28.656 -20.489   5.011  0.00  0.00    -0.389 OA
ATOM     12  H   LIG    1       28.496 -21.409   4.736  0.00  0.00    +0.210 HD
ENDBRANCH   9  11
ENDBRANCH   1   9
BRANCH   4  13
ATOM     13  O   LIG    1       22.486 -19.743   4.450  0.00  0.00    -0.389 OA
ATOM     14  H   LIG    1       21.876 -20.489   4.324  0.00  0.00    +0.210 HD
ENDBRANCH   4  13
TORSDOF 3
ENDMDL
MODEL 3
REMARK VINA RESULT:      -2.9      6.749      8.580
REMARK  Name = *****
REMARK                            x       y       z     vdW  Elec       q    Type
REMARK                         _______ _______ _______ _____ _____    ______ ____
ROOT
ATOM      1  C   LIG    1       25.083 -13.381   3.458  0.00  0.00    +0.020 C 
ATOM      2  C   LIG    1       25.780 -12.912   4.758  0.00  0.00    +0.009 C 
ATOM      3  C   LIG    1       26.835 -13.902   5.248  0.00  0.00    +0.035 C 
ATOM      4  C   LIG    1       27.888 -14.238   4.186  0.00  0.00    +0.063 C 
ATOM      5  C   LIG    1       28.834 -13.061   3.931  0.00  0.00    +0.041 C 
ATOM      6  C   LIG    1       27.200 -14.703   2.897  0.00  0.00    +0.035 C 
ATOM      7  C   LIG    1       26.147 -13.720   2.389  0.00  0.00    +0.009 C 
ENDROOT
BRANCH   1   9
ATOM      8  C   LIG    1       24.612 -11.448   1.834  0.00  0.00    +0.041 C 
ATOM      9  C   LIG    1       24.034 -12.343   2.941  0.00  0.00    +0.063 C 
ATOM     10  C   LIG    1       23.508 -11.447   4.072  0.00  0.00    +0.041 C 
BRANCH   9  11
ATOM     11  O   LIG    1       22.921 -13.051   2.391  0.00  0.00    -0.389 OA
ATOM     12  H   LIG    1       22.258 -13.166   3.094  0.00  0.00    +0.210 HD
ENDBRANCH   9  11
ENDBRANCH   1   9
BRANCH   4  13
ATOM     13  O   LIG    1       28.701 -15.309   4.677  0.00  0.00    -0.389 OA
ATOM     14  H   LIG    1       29.619 -14.992   4.727  0.00  0.00    +0.210 HD
ENDBRANCH   4  13
TORSDOF 3
ENDMDL
MODEL 4
REMARK VINA RESULT:      -2.6      5.993      8.338
REMARK  Name = *****
REMARK                            x       y       z     vdW  Elec       q    Type
REMARK                         _______ _______ _______ _____ _____    ______ ____
ROOT
ATOM      1  C   LIG    1       25.238 -14.093   3.514  0.00  0.00    +0.020 C 
ATOM      2  C   LIG    1       26.137 -14.517   4.699  0.00  0.00    +0.009 C 
ATOM      3  C   LIG    1       27.611 -14.618   4.311  0.00  0.00    +0.035 C 
ATOM      4  C   LIG    1       28.157 -13.333   3.677  0.00  0.00    +0.063 C 
ATOM      5  C   LIG    1       28.308 -12.211   4.708  0.00  0.00    +0.041 C 
ATOM      6  C   LIG    1       27.268 -12.911   2.502  0.00  0.00    +0.035 C 
ATOM      7  C   LIG    1       25.791 -12.798   2.876  0.00  0.00    +0.009 C 
ENDROOT
BRANCH   1   9
ATOM      8  C   LIG    1       23.520 -12.788   4.909  0.00  0.00    +0.041 C 
ATOM      9  C   LIG    1       23.737 -13.953   3.930  0.00  0.00    +0.063 C 
ATOM     10  C   LIG    1       23.196 -15.239   4.570  0.00  0.00    +0.041 C 
BRANCH   9  11
ATOM     11  O   LIG    1       22.959 -13.688   2.759  0.00  0.00    -0.389 OA
ATOM     12  H   LIG    1       22.614 -14.535   2.427  0.00  0.00    +0.210 HD
ENDBRANCH   9  11
ENDBRANCH   1   9
BRANCH   4  13
ATOM     13  O   LIG    1       29.473 -13.599   3.178  0.00  0.00    -0.389 OA
ATOM     14  H   LIG    1       29.642 -12.994   2.437  0.00  0.00    +0.210 HD
ENDBRANCH   4  13
TORSDOF 3
ENDMDL
MODEL 5
REMARK VINA RESULT:      -2.2      6.494      7.160
REMARK  Name = *****
REMARK                            x       y       z     vdW  Elec       q    Type
REMARK                         _______ _______ _______ _____ _____    ______ ____
ROOT
ATOM      1  C   LIG    1       26.530 -14.160   3.629  0.00  0.00    +0.020 C 
ATOM      2  C   LIG    1       26.454 -12.990   2.620  0.00  0.00    +0.009 C 
ATOM      3  C   LIG    1       25.157 -12.993   1.813  0.00  0.00    +0.035 C 
ATOM      4  C   LIG    1       23.900 -13.005   2.691  0.00  0.00    +0.063 C 
ATOM      5  C   LIG    1       23.684 -11.661   3.393  0.00  0.00    +0.041 C 
ATOM      6  C   LIG    1       23.972 -14.164   3.691  0.00  0.00    +0.035 C 
ATOM      7  C   LIG    1       25.261 -14.171   4.512  0.00  0.00    +0.009 C 
ENDROOT
BRANCH   1   9
ATOM      8  C   LIG    1       27.578 -13.667   5.922  0.00  0.00    +0.041 C 
ATOM      9  C   LIG    1       27.842 -14.125   4.480  0.00  0.00    +0.063 C 
ATOM     10  C   LIG    1       28.903 -13.205   3.859  0.00  0.00    +0.041 C 
BRANCH   9  11
ATOM     11  O   LIG    1       28.387 -15.446   4.535  0.00  0.00    -0.389 OA
ATOM     12  H   LIG    1       27.649 -16.076   4.603  0.00  0.00    +0.210 HD
ENDBRANCH   9  11
ENDBRANCH   1   9
BRANCH   4  13
ATOM     13  O   LIG    1       22.761 -13.205   1.847  0.00  0.00    -0.389 OA
ATOM     14  H   LIG    1       22.366 -14.064   2.071  0.00  0.00    +0.210 HD
ENDBRANCH   4  13
TORSDOF 3
ENDMDL
MODEL 6
REMARK VINA RESULT:      -2.2      1.370      4.628
REMARK  Name = *****
REMARK                            x       y       z     vdW  Elec       q    Type
REMARK                         _______ _______ _______ _____ _____    ______ ____
ROOT
ATOM      1  C   LIG    1       24.967 -20.599   5.051  0.00  0.00    +0.020 C 
ATOM      2  C   LIG    1       25.314 -20.992   6.506  0.00  0.00    +0.009 C 
ATOM      3  C   LIG    1       26.761 -21.459   6.659  0.00  0.00    +0.035 C 
ATOM      4  C   LIG    1       27.782 -20.443   6.137  0.00  0.00    +0.063 C 
ATOM      5  C   LIG    1       27.880 -19.217   7.050  0.00  0.00    +0.041 C 
ATOM      6  C   LIG    1       27.441 -20.051   4.695  0.00  0.00    +0.035 C 
ATOM      7  C   LIG    1       25.999 -19.574   4.526  0.00  0.00    +0.009 C 
ENDROOT
BRANCH   1   9
ATOM      8  C   LIG    1       22.479 -21.232   4.961  0.00  0.00    +0.041 C 
ATOM      9  C   LIG    1       23.497 -20.082   4.911  0.00  0.00    +0.063 C 
ATOM     10  C   LIG    1       23.287 -19.297   3.608  0.00  0.00    +0.041 C 
BRANCH   9  11
ATOM     11  O   LIG    1       23.214 -19.202   6.002  0.00  0.00    -0.389 OA
ATOM     12  H   LIG    1       23.889 -18.501   6.008  0.00  0.00    +0.210 HD
ENDBRANCH   9  11
ENDBRANCH   1   9
BRANCH   4  13
ATOM     13  O   LIG    1       29.076 -21.055   6.146  0.00  0.00    -0.389 OA
ATOM     14  H   LIG    1       29.567 -20.712   6.912  0.00  0.00    +0.210 HD
ENDBRANCH   4  13
TORSDOF 3
ENDMDL
MODEL 7
REMARK VINA RESULT:      -2.1      6.216      7.238
REMARK  Name = *****
REMARK                            x       y       z     vdW  Elec       q    Type
REMARK                         _______ _______ _______ _____ _____    ______ ____
ROOT
ATOM      1  C   LIG    1       25.809 -14.509   4.291  0.00  0.00    +0.020 C 
ATOM      2  C   LIG    1       24.380 -14.530   3.700  0.00  0.00    +0.009 C 
ATOM      3  C   LIG    1       23.419 -13.612   4.453  0.00  0.00    +0.035 C 
ATOM      4  C   LIG    1       23.920 -12.166   4.553  0.00  0.00    +0.063 C 
ATOM      5  C   LIG    1       23.852 -11.447   3.203  0.00  0.00    +0.041 C 
ATOM      6  C   LIG    1       25.336 -12.142   5.139  0.00  0.00    +0.035 C 
ATOM      7  C   LIG    1       26.311 -13.050   4.392  0.00  0.00    +0.009 C 
ENDROOT
BRANCH   1   9
ATOM      8  C   LIG    1       26.244 -16.843   3.309  0.00  0.00    +0.041 C 
ATOM      9  C   LIG    1       26.796 -15.420   3.489  0.00  0.00    +0.063 C 
ATOM     10  C   LIG    1       28.172 -15.508   4.164  0.00  0.00    +0.041 C 
BRANCH   9  11
ATOM     11  O   LIG    1       26.983 -14.858   2.187  0.00  0.00    -0.389 OA
ATOM     12  H   LIG    1       26.243 -15.145   1.624  0.00  0.00    +0.210 HD
ENDBRANCH   9  11
ENDBRANCH   1   9
BRANCH   4  13
ATOM     13  O   LIG    1       23.052 -11.447   5.436  0.00  0.00    -0.389 OA
ATOM     14  H   LIG    1       22.944 -10.547   5.086  0.00  0.00    +0.210 HD
ENDBRANCH   4  13
TORSDOF 3
ENDMDL
MODEL 8
REMARK VINA RESULT:      -2.0      3.358      4.238
REMARK  Name = *****
REMARK                            x       y       z     vdW  Elec       q    Type
REMARK                         _______ _______ _______ _____ _____    ______ ____
ROOT
ATOM      1  C   LIG    1       25.347 -16.881   3.133  0.00  0.00    +0.020 C 
ATOM      2  C   LIG    1       24.065 -17.155   3.954  0.00  0.00    +0.009 C 
ATOM      3  C   LIG    1       23.504 -18.556   3.719  0.00  0.00    +0.035 C 
ATOM      4  C   LIG    1       24.531 -19.666   3.972  0.00  0.00    +0.063 C 
ATOM      5  C   LIG    1       24.835 -19.830   5.464  0.00  0.00    +0.041 C 
ATOM      6  C   LIG    1       25.802 -19.398   3.159  0.00  0.00    +0.035 C 
ATOM      7  C   LIG    1       26.379 -18.003   3.388  0.00  0.00    +0.009 C 
ENDROOT
BRANCH   1   9
ATOM      8  C   LIG    1       27.280 -15.531   4.152  0.00  0.00    +0.041 C 
ATOM      9  C   LIG    1       25.936 -15.459   3.411  0.00  0.00    +0.063 C 
ATOM     10  C   LIG    1       24.972 -14.588   4.228  0.00  0.00    +0.041 C 
BRANCH   9  11
ATOM     11  O   LIG    1       26.163 -14.805   2.160  0.00  0.00    -0.389 OA
ATOM     12  H   LIG    1       26.807 -14.089   2.305  0.00  0.00    +0.210 HD
ENDBRANCH   9  11
ENDBRANCH   1   9
BRANCH   4  13
ATOM     13  O   LIG    1       23.968 -20.910   3.537  0.00  0.00    -0.389 OA
ATOM     14  H   LIG    1       24.467 -21.630   3.959  0.00  0.00    +0.210 HD
ENDBRANCH   4  13
TORSDOF 3
ENDMDL
MODEL 9
REMARK VINA RESULT:      -1.7      4.210      5.808
REMARK  Name = *****
REMARK                            x       y       z     vdW  Elec       q    Type
REMARK                         _______ _______ _______ _____ _____    ______ ____
ROOT
ATOM      1  C   LIG    1       25.571 -17.053   3.217  0.00  0.00    +0.020 C 
ATOM      2  C   LIG    1       27.002 -16.558   3.535  0.00  0.00    +0.009 C 
ATOM      3  C   LIG    1       27.197 -15.078   3.214  0.00  0.00    +0.035 C 
ATOM      4  C   LIG    1       26.169 -14.171   3.900  0.00  0.00    +0.063 C 
ATOM      5  C   LIG    1       26.415 -14.073   5.408  0.00  0.00    +0.041 C 
ATOM      6  C   LIG    1       24.750 -14.658   3.585  0.00  0.00    +0.035 C 
ATOM      7  C   LIG    1       24.536 -16.136   3.908  0.00  0.00    +0.009 C 
ENDROOT
BRANCH   1   9
ATOM      8  C   LIG    1       23.934 -18.844   4.059  0.00  0.00    +0.041 C 
ATOM      9  C   LIG    1       25.368 -18.558   3.587  0.00  0.00    +0.063 C 
ATOM     10  C   LIG    1       26.345 -19.018   4.678  0.00  0.00    +0.041 C 
BRANCH   9  11
ATOM     11  O   LIG    1       25.609 -19.353   2.423  0.00  0.00    -0.389 OA
ATOM     12  H   LIG    1       24.786 -19.821   2.200  0.00  0.00    +0.210 HD
ENDBRANCH   9  11
ENDBRANCH   1   9
BRANCH   4  13
ATOM     13  O   LIG    1       26.319 -12.845   3.381  0.00  0.00    -0.389 OA
ATOM     14  H   LIG    1       26.401 -12.234   4.133  0.00  0.00    +0.210 HD
ENDBRANCH   4  13
TORSDOF 3
ENDMDL
