MODEL 1
REMARK VINA RESULT:      -9.3      0.000      0.000
REMARK  Name = *****
REMARK                            x       y       z     vdW  Elec       q    Type
REMARK                         _______ _______ _______ _____ _____    ______ ____
ROOT
ATOM      1  N   LIG    1       29.505 -20.090   8.239  0.00  0.00    -0.075 NA
ATOM      2  C   LIG    1       28.905 -20.873   7.421  0.00  0.00    +0.313 C 
ENDROOT
BRANCH   1   3
ATOM      3  S   LIG    1       30.591 -19.021   7.689  0.00  0.00    +0.103 S 
ATOM      4  O   LIG    1       31.776 -19.730   7.236  0.00  0.00    -0.146 OA
ATOM      5  O   LIG    1       29.910 -18.128   6.770  0.00  0.00    -0.146 OA
BRANCH   3  10
ATOM      6  C   LIG    1       32.338 -15.867  12.570  0.00  0.00    +0.044 C 
ATOM      7  C   LIG    1       31.881 -16.573  11.327  0.00  0.00    -0.050 A 
ATOM      8  C   LIG    1       30.620 -17.183  11.297  0.00  0.00    +0.005 A 
ATOM      9  C   LIG    1       30.208 -17.897  10.173  0.00  0.00    +0.029 A 
ATOM     10  C   LIG    1       31.057 -17.990   9.069  0.00  0.00    +0.113 A 
ATOM     11  C   LIG    1       32.291 -17.334   9.056  0.00  0.00    +0.029 A 
ATOM     12  C   LIG    1       32.697 -16.620  10.187  0.00  0.00    +0.005 A 
ENDBRANCH   3  10
ENDBRANCH   1   3
BRANCH   2  13
ATOM     13  N   LIG    1       27.930 -21.770   7.768  0.00  0.00    -0.231 N 
ATOM     14  H   LIG    1       27.901 -22.608   7.186  0.00  0.00    +0.171 HD
BRANCH  13  15
ATOM     15  N   LIG    1       26.724 -21.264   8.317  0.00  0.00    -0.225 NA
ATOM     16  C   LIG    1       26.079 -20.357   7.340  0.00  0.00    +0.109 C 
ATOM     17  C   LIG    1       24.587 -20.666   7.431  0.00  0.00    +0.009 C 
ATOM     18  C   LIG    1       24.562 -22.156   7.733  0.00  0.00    +0.009 C 
ATOM     19  C   LIG    1       24.617 -22.799   6.349  0.00  0.00    +0.005 C 
ATOM     20  C   LIG    1       23.725 -21.901   5.501  0.00  0.00    +0.001 C 
ATOM     21  C   LIG    1       23.826 -20.502   6.117  0.00  0.00    +0.005 C 
ATOM     22  C   LIG    1       25.795 -22.381   8.590  0.00  0.00    +0.109 C 
ENDBRANCH  13  15
ENDBRANCH   2  13
BRANCH   2  23
ATOM     23  O   LIG    1       29.172 -20.915   6.107  0.00  0.00    -0.480 OA
ATOM     24  H   LIG    1       28.763 -21.742   5.784  0.00  0.00    +0.295 HD
ENDBRANCH   2  23
TORSDOF 5
ENDMDL
MODEL 2
REMARK VINA RESULT:      -9.3      1.048      1.615
REMARK  Name = *****
REMARK                            x       y       z     vdW  Elec       q    Type
REMARK                         _______ _______ _______ _____ _____    ______ ____
ROOT
ATOM      1  N   LIG    1       29.367 -19.393   8.366  0.00  0.00    -0.075 NA
ATOM      2  C   LIG    1       28.780 -20.168   7.531  0.00  0.00    +0.313 C 
ENDROOT
BRANCH   1   3
ATOM      3  S   LIG    1       30.955 -19.108   8.228  0.00  0.00    +0.103 S 
ATOM      4  O   LIG    1       31.686 -20.347   8.434  0.00  0.00    -0.146 OA
ATOM      5  O   LIG    1       31.169 -18.361   7.002  0.00  0.00    -0.146 OA
BRANCH   3  10
ATOM      6  C   LIG    1       32.723 -15.580  12.838  0.00  0.00    +0.044 C 
ATOM      7  C   LIG    1       32.242 -16.385  11.667  0.00  0.00    -0.050 A 
ATOM      8  C   LIG    1       31.133 -17.228  11.811  0.00  0.00    +0.005 A 
ATOM      9  C   LIG    1       30.714 -18.030  10.750  0.00  0.00    +0.029 A 
ATOM     10  C   LIG    1       31.401 -17.979   9.536  0.00  0.00    +0.113 A 
ATOM     11  C   LIG    1       32.470 -17.096   9.354  0.00  0.00    +0.029 A 
ATOM     12  C   LIG    1       32.883 -16.295  10.422  0.00  0.00    +0.005 A 
ENDBRANCH   3  10
ENDBRANCH   1   3
BRANCH   2  13
ATOM     13  N   LIG    1       27.436 -20.431   7.518  0.00  0.00    -0.231 N 
ATOM     14  H   LIG    1       27.012 -20.507   8.443  0.00  0.00    +0.171 HD
BRANCH  13  15
ATOM     15  N   LIG    1       26.920 -21.211   6.451  0.00  0.00    -0.225 NA
ATOM     16  C   LIG    1       26.275 -22.427   6.994  0.00  0.00    +0.109 C 
ATOM     17  C   LIG    1       25.013 -22.618   6.158  0.00  0.00    +0.009 C 
ATOM     18  C   LIG    1       24.588 -21.193   5.846  0.00  0.00    +0.009 C 
ATOM     19  C   LIG    1       23.735 -20.804   7.052  0.00  0.00    +0.005 C 
ATOM     20  C   LIG    1       22.951 -22.073   7.360  0.00  0.00    +0.001 C 
ATOM     21  C   LIG    1       23.840 -23.239   6.915  0.00  0.00    +0.005 C 
ATOM     22  C   LIG    1       25.897 -20.434   5.719  0.00  0.00    +0.109 C 
ENDBRANCH  13  15
ENDBRANCH   2  13
BRANCH   2  23
ATOM     23  O   LIG    1       29.424 -20.832   6.560  0.00  0.00    -0.480 OA
ATOM     24  H   LIG    1       30.373 -20.640   6.697  0.00  0.00    +0.295 HD
ENDBRANCH   2  23
TORSDOF 5
ENDMDL
MODEL 3
REMARK VINA RESULT:      -8.7      4.518      6.401
REMARK  Name = *****
REMARK                            x       y       z     vdW  Elec       q    Type
REMARK                         _______ _______ _______ _____ _____    ______ ____
ROOT
ATOM      1  N   LIG    1       24.144 -22.627   6.661  0.00  0.00    -0.075 NA
ATOM      2  C   LIG    1       24.380 -23.236   5.558  0.00  0.00    +0.313 C 
ENDROOT
BRANCH   1   3
ATOM      3  S   LIG    1       24.162 -21.008   6.710  0.00  0.00    +0.103 S 
ATOM      4  O   LIG    1       23.576 -20.482   5.489  0.00  0.00    -0.146 OA
ATOM      5  O   LIG    1       23.612 -20.596   7.988  0.00  0.00    -0.146 OA
BRANCH   3  10
ATOM      6  C   LIG    1       30.088 -19.710   6.863  0.00  0.00    +0.044 C 
ATOM      7  C   LIG    1       28.607 -19.947   6.825  0.00  0.00    -0.050 A 
ATOM      8  C   LIG    1       27.915 -20.220   8.011  0.00  0.00    +0.005 A 
ATOM      9  C   LIG    1       26.551 -20.505   7.984  0.00  0.00    +0.029 A 
ATOM     10  C   LIG    1       25.873 -20.504   6.763  0.00  0.00    +0.113 A 
ATOM     11  C   LIG    1       26.533 -20.169   5.577  0.00  0.00    +0.029 A 
ATOM     12  C   LIG    1       27.901 -19.884   5.614  0.00  0.00    +0.005 A 
ENDBRANCH   3  10
ENDBRANCH   1   3
BRANCH   2  13
ATOM     13  N   LIG    1       24.332 -24.595   5.389  0.00  0.00    -0.231 N 
ATOM     14  H   LIG    1       23.454 -25.026   5.678  0.00  0.00    +0.171 HD
BRANCH  13  15
ATOM     15  N   LIG    1       25.542 -25.325   5.522  0.00  0.00    -0.225 NA
ATOM     16  C   LIG    1       25.656 -25.843   6.905  0.00  0.00    +0.109 C 
ATOM     17  C   LIG    1       26.220 -27.253   6.758  0.00  0.00    +0.009 C 
ATOM     18  C   LIG    1       25.613 -27.733   5.451  0.00  0.00    +0.009 C 
ATOM     19  C   LIG    1       24.265 -28.311   5.877  0.00  0.00    +0.005 C 
ATOM     20  C   LIG    1       24.576 -29.013   7.192  0.00  0.00    +0.001 C 
ATOM     21  C   LIG    1       25.739 -28.240   7.821  0.00  0.00    +0.005 C 
ATOM     22  C   LIG    1       25.529 -26.479   4.598  0.00  0.00    +0.109 C 
ENDBRANCH  13  15
ENDBRANCH   2  13
BRANCH   2  23
ATOM     23  O   LIG    1       24.715 -22.608   4.422  0.00  0.00    -0.480 OA
ATOM     24  H   LIG    1       23.915 -22.641   3.859  0.00  0.00    +0.295 HD
ENDBRANCH   2  23
TORSDOF 5
ENDMDL
MODEL 4
REMARK VINA RESULT:      -8.5      2.450      7.651
REMARK  Name = *****
REMARK                            x       y       z     vdW  Elec       q    Type
REMARK                         _______ _______ _______ _____ _____    ______ ____
ROOT
ATOM      1  N   LIG    1       27.349 -21.279   6.773  0.00  0.00    -0.075 NA
ATOM      2  C   LIG    1       28.352 -21.379   7.565  0.00  0.00    +0.313 C 
ENDROOT
BRANCH   1   3
ATOM      3  S   LIG    1       25.870 -21.693   7.286  0.00  0.00    +0.103 S 
ATOM      4  O   LIG    1       25.690 -23.127   7.132  0.00  0.00    -0.146 OA
ATOM      5  O   LIG    1       25.668 -21.095   8.593  0.00  0.00    -0.146 OA
BRANCH   3  10
ATOM      6  C   LIG    1       21.981 -18.533   3.863  0.00  0.00    +0.044 C 
ATOM      7  C   LIG    1       22.924 -19.383   4.663  0.00  0.00    -0.050 A 
ATOM      8  C   LIG    1       22.508 -19.922   5.887  0.00  0.00    +0.005 A 
ATOM      9  C   LIG    1       23.393 -20.660   6.670  0.00  0.00    +0.029 A 
ATOM     10  C   LIG    1       24.697 -20.872   6.221  0.00  0.00    +0.113 A 
ATOM     11  C   LIG    1       25.110 -20.398   4.972  0.00  0.00    +0.029 A 
ATOM     12  C   LIG    1       24.217 -19.658   4.192  0.00  0.00    +0.005 A 
ENDBRANCH   3  10
ENDBRANCH   1   3
BRANCH   2  13
ATOM     13  N   LIG    1       29.633 -21.003   7.257  0.00  0.00    -0.231 N 
ATOM     14  H   LIG    1       30.357 -21.556   7.715  0.00  0.00    +0.171 HD
BRANCH  13  15
ATOM     15  N   LIG    1       29.877 -19.633   6.980  0.00  0.00    -0.225 NA
ATOM     16  C   LIG    1       29.225 -18.796   8.013  0.00  0.00    +0.109 C 
ATOM     17  C   LIG    1       30.221 -17.678   8.309  0.00  0.00    +0.009 C 
ATOM     18  C   LIG    1       31.567 -18.361   8.134  0.00  0.00    +0.009 C 
ATOM     19  C   LIG    1       31.837 -18.971   9.507  0.00  0.00    +0.005 C 
ATOM     20  C   LIG    1       31.335 -17.909  10.476  0.00  0.00    +0.001 C 
ATOM     21  C   LIG    1       30.200 -17.178   9.752  0.00  0.00    +0.005 C 
ATOM     22  C   LIG    1       31.331 -19.369   7.023  0.00  0.00    +0.109 C 
ENDBRANCH  13  15
ENDBRANCH   2  13
BRANCH   2  23
ATOM     23  O   LIG    1       28.269 -21.880   8.806  0.00  0.00    -0.480 OA
ATOM     24  H   LIG    1       28.087 -21.114   9.386  0.00  0.00    +0.295 HD
ENDBRANCH   2  23
TORSDOF 5
ENDMDL
MODEL 5
REMARK VINA RESULT:      -8.4      1.686      2.510
REMARK  Name = *****
REMARK                            x       y       z     vdW  Elec       q    Type
REMARK                         _______ _______ _______ _____ _____    ______ ____
ROOT
ATOM      1  N   LIG    1       27.720 -20.008   8.037  0.00  0.00    -0.075 NA
ATOM      2  C   LIG    1       26.807 -20.890   7.858  0.00  0.00    +0.313 C 
ENDROOT
BRANCH   1   3
ATOM      3  S   LIG    1       29.280 -20.416   7.884  0.00  0.00    +0.103 S 
ATOM      4  O   LIG    1       29.579 -21.520   8.780  0.00  0.00    -0.146 OA
ATOM      5  O   LIG    1       29.566 -20.561   6.469  0.00  0.00    -0.146 OA
BRANCH   3  10
ATOM      6  C   LIG    1       32.677 -15.852   9.995  0.00  0.00    +0.044 C 
ATOM      7  C   LIG    1       31.821 -16.933   9.404  0.00  0.00    -0.050 A 
ATOM      8  C   LIG    1       30.486 -17.064   9.810  0.00  0.00    +0.005 A 
ATOM      9  C   LIG    1       29.698 -18.102   9.318  0.00  0.00    +0.029 A 
ATOM     10  C   LIG    1       30.243 -19.006   8.404  0.00  0.00    +0.113 A 
ATOM     11  C   LIG    1       31.552 -18.852   7.938  0.00  0.00    +0.029 A 
ATOM     12  C   LIG    1       32.336 -17.808   8.437  0.00  0.00    +0.005 A 
ENDBRANCH   3  10
ENDBRANCH   1   3
BRANCH   2  13
ATOM     13  N   LIG    1       25.460 -20.644   7.904  0.00  0.00    -0.231 N 
ATOM     14  H   LIG    1       25.122 -20.314   8.808  0.00  0.00    +0.171 HD
BRANCH  13  15
ATOM     15  N   LIG    1       24.610 -21.438   7.091  0.00  0.00    -0.225 NA
ATOM     16  C   LIG    1       23.316 -20.744   6.904  0.00  0.00    +0.109 C 
ATOM     17  C   LIG    1       22.942 -20.981   5.443  0.00  0.00    +0.009 C 
ATOM     18  C   LIG    1       24.290 -21.003   4.742  0.00  0.00    +0.009 C 
ATOM     19  C   LIG    1       24.557 -19.529   4.441  0.00  0.00    +0.005 C 
ATOM     20  C   LIG    1       23.190 -18.993   4.036  0.00  0.00    +0.001 C 
ATOM     21  C   LIG    1       22.163 -19.837   4.797  0.00  0.00    +0.005 C 
ATOM     22  C   LIG    1       25.229 -21.625   5.761  0.00  0.00    +0.109 C 
ENDBRANCH  13  15
ENDBRANCH   2  13
BRANCH   2  23
ATOM     23  O   LIG    1       27.065 -22.183   7.610  0.00  0.00    -0.480 OA
ATOM     24  H   LIG    1       27.794 -22.183   6.958  0.00  0.00    +0.295 HD
ENDBRANCH   2  23
TORSDOF 5
ENDMDL
MODEL 6
REMARK VINA RESULT:      -8.4      3.419      7.694
REMARK  Name = *****
REMARK                            x       y       z     vdW  Elec       q    Type
REMARK                         _______ _______ _______ _____ _____    ______ ____
ROOT
ATOM      1  N   LIG    1       26.191 -22.872   6.658  0.00  0.00    -0.075 NA
ATOM      2  C   LIG    1       26.232 -22.101   7.681  0.00  0.00    +0.313 C 
ENDROOT
BRANCH   1   3
ATOM      3  S   LIG    1       24.764 -23.290   6.016  0.00  0.00    +0.103 S 
ATOM      4  O   LIG    1       24.984 -24.204   4.907  0.00  0.00    -0.146 OA
ATOM      5  O   LIG    1       23.890 -23.698   7.101  0.00  0.00    -0.146 OA
BRANCH   3  10
ATOM      6  C   LIG    1       22.387 -18.024   4.162  0.00  0.00    +0.044 C 
ATOM      7  C   LIG    1       22.951 -19.360   4.546  0.00  0.00    -0.050 A 
ATOM      8  C   LIG    1       22.201 -20.226   5.352  0.00  0.00    +0.005 A 
ATOM      9  C   LIG    1       22.737 -21.443   5.769  0.00  0.00    +0.029 A 
ATOM     10  C   LIG    1       24.025 -21.802   5.367  0.00  0.00    +0.113 A 
ATOM     11  C   LIG    1       24.762 -20.980   4.509  0.00  0.00    +0.029 A 
ATOM     12  C   LIG    1       24.217 -19.761   4.095  0.00  0.00    +0.005 A 
ENDBRANCH   3  10
ENDBRANCH   1   3
BRANCH   2  13
ATOM     13  N   LIG    1       27.380 -21.638   8.267  0.00  0.00    -0.231 N 
ATOM     14  H   LIG    1       27.230 -20.938   8.994  0.00  0.00    +0.171 HD
BRANCH  13  15
ATOM     15  N   LIG    1       28.554 -21.575   7.473  0.00  0.00    -0.225 NA
ATOM     16  C   LIG    1       28.551 -20.322   6.685  0.00  0.00    +0.109 C 
ATOM     17  C   LIG    1       29.992 -19.821   6.724  0.00  0.00    +0.009 C 
ATOM     18  C   LIG    1       30.470 -20.254   8.100  0.00  0.00    +0.009 C 
ATOM     19  C   LIG    1       30.039 -19.101   9.004  0.00  0.00    +0.005 C 
ATOM     20  C   LIG    1       30.308 -17.863   8.159  0.00  0.00    +0.001 C 
ATOM     21  C   LIG    1       30.134 -18.301   6.701  0.00  0.00    +0.005 C 
ATOM     22  C   LIG    1       29.745 -21.565   8.350  0.00  0.00    +0.109 C 
ENDBRANCH  13  15
ENDBRANCH   2  13
BRANCH   2  23
ATOM     23  O   LIG    1       25.138 -21.656   8.316  0.00  0.00    -0.480 OA
ATOM     24  H   LIG    1       25.458 -20.978   8.944  0.00  0.00    +0.295 HD
ENDBRANCH   2  23
TORSDOF 5
ENDMDL
MODEL 7
REMARK VINA RESULT:      -8.4      3.974      5.820
REMARK  Name = *****
REMARK                            x       y       z     vdW  Elec       q    Type
REMARK                         _______ _______ _______ _____ _____    ______ ____
ROOT
ATOM      1  N   LIG    1       25.757 -22.491   6.015  0.00  0.00    -0.075 NA
ATOM      2  C   LIG    1       24.688 -23.055   5.589  0.00  0.00    +0.313 C 
ENDROOT
BRANCH   1   3
ATOM      3  S   LIG    1       25.789 -20.889   6.252  0.00  0.00    +0.103 S 
ATOM      4  O   LIG    1       25.342 -20.215   5.045  0.00  0.00    -0.146 OA
ATOM      5  O   LIG    1       25.111 -20.611   7.505  0.00  0.00    -0.146 OA
BRANCH   3  10
ATOM      6  C   LIG    1       31.431 -19.015   7.467  0.00  0.00    +0.044 C 
ATOM      7  C   LIG    1       30.070 -19.546   7.127  0.00  0.00    -0.050 A 
ATOM      8  C   LIG    1       29.383 -19.038   6.017  0.00  0.00    +0.005 A 
ATOM      9  C   LIG    1       28.092 -19.475   5.725  0.00  0.00    +0.029 A 
ATOM     10  C   LIG    1       27.490 -20.435   6.540  0.00  0.00    +0.113 A 
ATOM     11  C   LIG    1       28.186 -21.002   7.613  0.00  0.00    +0.029 A 
ATOM     12  C   LIG    1       29.480 -20.558   7.899  0.00  0.00    +0.005 A 
ENDBRANCH   3  10
ENDBRANCH   1   3
BRANCH   2  13
ATOM     13  N   LIG    1       24.532 -24.404   5.410  0.00  0.00    -0.231 N 
ATOM     14  H   LIG    1       23.629 -24.768   5.715  0.00  0.00    +0.171 HD
BRANCH  13  15
ATOM     15  N   LIG    1       25.683 -25.227   5.512  0.00  0.00    -0.225 NA
ATOM     16  C   LIG    1       25.753 -25.812   6.870  0.00  0.00    +0.109 C 
ATOM     17  C   LIG    1       26.212 -27.253   6.661  0.00  0.00    +0.009 C 
ATOM     18  C   LIG    1       25.576 -27.628   5.333  0.00  0.00    +0.009 C 
ATOM     19  C   LIG    1       24.187 -28.122   5.732  0.00  0.00    +0.005 C 
ATOM     20  C   LIG    1       24.440 -28.904   7.015  0.00  0.00    +0.001 C 
ATOM     21  C   LIG    1       25.654 -28.247   7.678  0.00  0.00    +0.005 C 
ATOM     22  C   LIG    1       25.588 -26.335   4.537  0.00  0.00    +0.109 C 
ENDBRANCH  13  15
ENDBRANCH   2  13
BRANCH   2  23
ATOM     23  O   LIG    1       23.579 -22.379   5.252  0.00  0.00    -0.480 OA
ATOM     24  H   LIG    1       23.790 -21.437   5.409  0.00  0.00    +0.295 HD
ENDBRANCH   2  23
TORSDOF 5
ENDMDL
MODEL 8
REMARK VINA RESULT:      -8.2      6.786      9.446
REMARK  Name = *****
REMARK                            x       y       z     vdW  Elec       q    Type
REMARK                         _______ _______ _______ _____ _____    ______ ____
ROOT
ATOM      1  N   LIG    1       24.150 -26.224   6.493  0.00  0.00    -0.075 NA
ATOM      2  C   LIG    1       24.097 -25.197   5.729  0.00  0.00    +0.313 C 
ENDROOT
BRANCH   1   3
ATOM      3  S   LIG    1       25.040 -27.508   6.063  0.00  0.00    +0.103 S 
ATOM      4  O   LIG    1       24.312 -28.289   5.077  0.00  0.00    -0.146 OA
ATOM      5  O   LIG    1       26.375 -27.036   5.742  0.00  0.00    -0.146 OA
BRANCH   3  10
ATOM      6  C   LIG    1       25.508 -30.644  11.237  0.00  0.00    +0.044 C 
ATOM      7  C   LIG    1       25.435 -29.931   9.918  0.00  0.00    -0.050 A 
ATOM      8  C   LIG    1       26.359 -28.922   9.621  0.00  0.00    +0.005 A 
ATOM      9  C   LIG    1       26.265 -28.208   8.427  0.00  0.00    +0.029 A 
ATOM     10  C   LIG    1       25.248 -28.514   7.521  0.00  0.00    +0.113 A 
ATOM     11  C   LIG    1       24.357 -29.562   7.772  0.00  0.00    +0.029 A 
ATOM     12  C   LIG    1       24.459 -30.273   8.971  0.00  0.00    +0.005 A 
ENDBRANCH   3  10
ENDBRANCH   1   3
BRANCH   2  13
ATOM     13  N   LIG    1       23.426 -24.038   6.020  0.00  0.00    -0.231 N 
ATOM     14  H   LIG    1       22.643 -23.836   5.398  0.00  0.00    +0.171 HD
BRANCH  13  15
ATOM     15  N   LIG    1       24.165 -22.964   6.580  0.00  0.00    -0.225 NA
ATOM     16  C   LIG    1       24.908 -22.264   5.507  0.00  0.00    +0.109 C 
ATOM     17  C   LIG    1       24.787 -20.779   5.841  0.00  0.00    +0.009 C 
ATOM     18  C   LIG    1       23.408 -20.679   6.471  0.00  0.00    +0.009 C 
ATOM     19  C   LIG    1       22.483 -20.489   5.270  0.00  0.00    +0.005 C 
ATOM     20  C   LIG    1       23.271 -19.563   4.354  0.00  0.00    +0.001 C 
ATOM     21  C   LIG    1       24.750 -19.858   4.623  0.00  0.00    +0.005 C 
ATOM     22  C   LIG    1       23.238 -21.997   7.205  0.00  0.00    +0.109 C 
ENDBRANCH  13  15
ENDBRANCH   2  13
BRANCH   2  23
ATOM     23  O   LIG    1       24.692 -25.135   4.529  0.00  0.00    -0.480 OA
ATOM     24  H   LIG    1       23.979 -25.282   3.875  0.00  0.00    +0.295 HD
ENDBRANCH   2  23
TORSDOF 5
ENDMDL
MODEL 9
REMARK VINA RESULT:      -8.1      3.140      8.144
REMARK  Name = *****
REMARK                            x       y       z     vdW  Elec       q    Type
REMARK                         _______ _______ _______ _____ _____    ______ ____
ROOT
ATOM      1  N   LIG    1       25.723 -20.624   6.924  0.00  0.00    -0.075 NA
ATOM      2  C   LIG    1       26.303 -20.576   8.066  0.00  0.00    +0.313 C 
ENDROOT
BRANCH   1   3
ATOM      3  S   LIG    1       24.258 -21.300   6.787  0.00  0.00    +0.103 S 
ATOM      4  O   LIG    1       23.477 -21.002   7.976  0.00  0.00    -0.146 OA
ATOM      5  O   LIG    1       23.723 -20.944   5.486  0.00  0.00    -0.146 OA
BRANCH   3  10
ATOM      6  C   LIG    1       25.088 -27.273   6.112  0.00  0.00    +0.044 C 
ATOM      7  C   LIG    1       24.889 -25.807   6.363  0.00  0.00    -0.050 A 
ATOM      8  C   LIG    1       23.594 -25.274   6.380  0.00  0.00    +0.005 A 
ATOM      9  C   LIG    1       23.397 -23.904   6.549  0.00  0.00    +0.029 A 
ATOM     10  C   LIG    1       24.501 -23.066   6.715  0.00  0.00    +0.113 A 
ATOM     11  C   LIG    1       25.796 -23.590   6.766  0.00  0.00    +0.029 A 
ATOM     12  C   LIG    1       25.985 -24.964   6.596  0.00  0.00    +0.005 A 
ENDBRANCH   3  10
ENDBRANCH   1   3
BRANCH   2  13
ATOM     13  N   LIG    1       27.511 -19.977   8.307  0.00  0.00    -0.231 N 
ATOM     14  H   LIG    1       27.446 -19.023   8.664  0.00  0.00    +0.171 HD
BRANCH  13  15
ATOM     15  N   LIG    1       28.609 -20.337   7.483  0.00  0.00    -0.225 NA
ATOM     16  C   LIG    1       29.348 -19.117   7.084  0.00  0.00    +0.109 C 
ATOM     17  C   LIG    1       30.823 -19.500   7.163  0.00  0.00    +0.009 C 
ATOM     18  C   LIG    1       30.863 -20.480   8.323  0.00  0.00    +0.009 C 
ATOM     19  C   LIG    1       31.027 -19.578   9.544  0.00  0.00    +0.005 C 
ATOM     20  C   LIG    1       31.992 -18.501   9.067  0.00  0.00    +0.001 C 
ATOM     21  C   LIG    1       31.752 -18.355   7.561  0.00  0.00    +0.005 C 
ATOM     22  C   LIG    1       29.532 -21.208   8.241  0.00  0.00    +0.109 C 
ENDBRANCH  13  15
ENDBRANCH   2  13
BRANCH   2  23
ATOM     23  O   LIG    1       25.791 -21.123   9.179  0.00  0.00    -0.480 OA
ATOM     24  H   LIG    1       26.082 -22.057   9.168  0.00  0.00    +0.295 HD
ENDBRANCH   2  23
TORSDOF 5
ENDMDL
