MODEL 1
REMARK VINA RESULT:      -5.2      0.000      0.000
REMARK  Name = *****
REMARK                            x       y       z     vdW  Elec       q    Type
REMARK                         _______ _______ _______ _____ _____    ______ ____
ROOT
ATOM      1  C   LIG    1       25.284 -18.218   3.679  0.00  0.00    -0.011 A 
ATOM      2  C   LIG    1       25.751 -19.456   4.151  0.00  0.00    +0.051 A 
ATOM      3  C   LIG    1       24.864 -20.398   4.662  0.00  0.00    +0.121 A 
ATOM      4  C   LIG    1       23.498 -20.145   4.708  0.00  0.00    +0.090 A 
ATOM      5  C   LIG    1       23.028 -18.930   4.223  0.00  0.00    +0.121 A 
ATOM      6  C   LIG    1       23.899 -17.975   3.703  0.00  0.00    +0.051 A 
ENDROOT
BRANCH   3   7
ATOM      7  O   LIG    1       25.381 -21.571   5.129  0.00  0.00    -0.507 OA
ATOM      8  H   LIG    1       24.825 -21.883   5.862  0.00  0.00    +0.292 HD
ENDBRANCH   3   7
BRANCH   5   9
ATOM      9  O   LIG    1       21.682 -18.706   4.287  0.00  0.00    -0.507 OA
ATOM     10  H   LIG    1       21.508 -18.070   5.002  0.00  0.00    +0.292 HD
ENDBRANCH   5   9
BRANCH   1  11
ATOM     11  C   LIG    1       26.272 -17.179   3.182  0.00  0.00    +0.158 C 
BRANCH  11  12
ATOM     12  O   LIG    1       27.517 -17.329   3.882  0.00  0.00    -0.386 OA
ATOM     13  H   LIG    1       28.005 -18.020   3.403  0.00  0.00    +0.210 HD
ENDBRANCH  11  12
BRANCH  11  14
ATOM     14  C   LIG    1       25.763 -15.723   3.333  0.00  0.00    +0.117 C 
BRANCH  14  15
ATOM     15  N   LIG    1       26.693 -14.778   2.680  0.00  0.00    -0.311 NA
ATOM     16  H   LIG    1       27.562 -15.288   2.499  0.00  0.00    +0.122 HD
BRANCH  15  18
ATOM     17  C   LIG    1       26.271 -13.699   4.825  0.00  0.00    +0.024 C 
ATOM     18  C   LIG    1       26.970 -13.571   3.468  0.00  0.00    +0.048 C 
ATOM     19  C   LIG    1       28.471 -13.367   3.686  0.00  0.00    +0.024 C 
ENDBRANCH  15  18
ENDBRANCH  14  15
ENDBRANCH  11  14
ENDBRANCH   1  11
TORSDOF 7
ENDMDL
MODEL 2
REMARK VINA RESULT:      -5.1      0.104      2.135
REMARK  Name = *****
REMARK                            x       y       z     vdW  Elec       q    Type
REMARK                         _______ _______ _______ _____ _____    ______ ____
ROOT
ATOM      1  C   LIG    1       25.330 -18.197   3.692  0.00  0.00    -0.011 A 
ATOM      2  C   LIG    1       23.940 -17.985   3.687  0.00  0.00    +0.051 A 
ATOM      3  C   LIG    1       23.074 -18.966   4.159  0.00  0.00    +0.121 A 
ATOM      4  C   LIG    1       23.558 -20.171   4.657  0.00  0.00    +0.090 A 
ATOM      5  C   LIG    1       24.933 -20.377   4.684  0.00  0.00    +0.121 A 
ATOM      6  C   LIG    1       25.818 -19.405   4.219  0.00  0.00    +0.051 A 
ENDROOT
BRANCH   3   7
ATOM      7  O   LIG    1       21.734 -18.712   4.104  0.00  0.00    -0.507 OA
ATOM      8  H   LIG    1       21.358 -18.850   4.989  0.00  0.00    +0.292 HD
ENDBRANCH   3   7
BRANCH   5   9
ATOM      9  O   LIG    1       25.380 -21.572   5.170  0.00  0.00    -0.507 OA
ATOM     10  H   LIG    1       25.964 -21.399   5.927  0.00  0.00    +0.292 HD
ENDBRANCH   5   9
BRANCH   1  11
ATOM     11  C   LIG    1       26.254 -17.140   3.117  0.00  0.00    +0.158 C 
BRANCH  11  12
ATOM     12  O   LIG    1       27.558 -17.271   3.706  0.00  0.00    -0.386 OA
ATOM     13  H   LIG    1       27.412 -17.261   4.668  0.00  0.00    +0.210 HD
ENDBRANCH  11  12
BRANCH  11  14
ATOM     14  C   LIG    1       25.737 -15.693   3.319  0.00  0.00    +0.117 C 
BRANCH  14  15
ATOM     15  N   LIG    1       26.634 -14.724   2.657  0.00  0.00    -0.311 NA
ATOM     16  H   LIG    1       27.511 -15.213   2.458  0.00  0.00    +0.122 HD
BRANCH  15  18
ATOM     17  C   LIG    1       26.160 -13.633   4.785  0.00  0.00    +0.024 C 
ATOM     18  C   LIG    1       26.898 -13.516   3.447  0.00  0.00    +0.048 C 
ATOM     19  C   LIG    1       28.394 -13.323   3.707  0.00  0.00    +0.024 C 
ENDBRANCH  15  18
ENDBRANCH  14  15
ENDBRANCH  11  14
ENDBRANCH   1  11
TORSDOF 7
ENDMDL
MODEL 3
REMARK VINA RESULT:      -4.8      2.602      5.927
REMARK  Name = *****
REMARK                            x       y       z     vdW  Elec       q    Type
REMARK                         _______ _______ _______ _____ _____    ______ ____
ROOT
ATOM      1  C   LIG    1       26.437 -15.562   3.624  0.00  0.00    -0.011 A 
ATOM      2  C   LIG    1       27.557 -14.713   3.595  0.00  0.00    +0.051 A 
ATOM      3  C   LIG    1       27.422 -13.376   3.234  0.00  0.00    +0.121 A 
ATOM      4  C   LIG    1       26.180 -12.844   2.907  0.00  0.00    +0.090 A 
ATOM      5  C   LIG    1       25.065 -13.674   2.955  0.00  0.00    +0.121 A 
ATOM      6  C   LIG    1       25.178 -15.015   3.318  0.00  0.00    +0.051 A 
ENDROOT
BRANCH   3   7
ATOM      7  O   LIG    1       28.550 -12.610   3.199  0.00  0.00    -0.507 OA
ATOM      8  H   LIG    1       29.312 -13.174   3.409  0.00  0.00    +0.292 HD
ENDBRANCH   3   7
BRANCH   5   9
ATOM      9  O   LIG    1       23.860 -13.126   2.622  0.00  0.00    -0.507 OA
ATOM     10  H   LIG    1       24.008 -12.427   1.963  0.00  0.00    +0.292 HD
ENDBRANCH   5   9
BRANCH   1  11
ATOM     11  C   LIG    1       26.613 -17.031   3.960  0.00  0.00    +0.158 C 
BRANCH  11  12
ATOM     12  O   LIG    1       27.991 -17.399   3.793  0.00  0.00    -0.386 OA
ATOM     13  H   LIG    1       28.505 -16.670   4.182  0.00  0.00    +0.210 HD
ENDBRANCH  11  12
BRANCH  11  14
ATOM     14  C   LIG    1       25.718 -17.968   3.110  0.00  0.00    +0.117 C 
BRANCH  14  15
ATOM     15  N   LIG    1       25.743 -19.342   3.653  0.00  0.00    -0.311 NA
ATOM     16  H   LIG    1       26.413 -19.876   3.092  0.00  0.00    +0.122 HD
BRANCH  15  18
ATOM     17  C   LIG    1       24.456 -21.129   4.699  0.00  0.00    +0.024 C 
ATOM     18  C   LIG    1       24.437 -20.010   3.652  0.00  0.00    +0.048 C 
ATOM     19  C   LIG    1       23.300 -19.037   3.968  0.00  0.00    +0.024 C 
ENDBRANCH  15  18
ENDBRANCH  14  15
ENDBRANCH  11  14
ENDBRANCH   1  11
TORSDOF 7
ENDMDL
MODEL 4
REMARK VINA RESULT:      -4.7      2.577      6.190
REMARK  Name = *****
REMARK                            x       y       z     vdW  Elec       q    Type
REMARK                         _______ _______ _______ _____ _____    ______ ____
ROOT
ATOM      1  C   LIG    1       26.494 -15.571   3.577  0.00  0.00    -0.011 A 
ATOM      2  C   LIG    1       25.225 -15.045   3.277  0.00  0.00    +0.051 A 
ATOM      3  C   LIG    1       25.075 -13.695   2.975  0.00  0.00    +0.121 A 
ATOM      4  C   LIG    1       26.170 -12.839   2.951  0.00  0.00    +0.090 A 
ATOM      5  C   LIG    1       27.429 -13.359   3.226  0.00  0.00    +0.121 A 
ATOM      6  C   LIG    1       27.603 -14.709   3.527  0.00  0.00    +0.051 A 
ENDROOT
BRANCH   3   7
ATOM      7  O   LIG    1       23.815 -13.238   2.718  0.00  0.00    -0.507 OA
ATOM      8  H   LIG    1       23.794 -12.281   2.886  0.00  0.00    +0.292 HD
ENDBRANCH   3   7
BRANCH   5   9
ATOM      9  O   LIG    1       28.485 -12.494   3.202  0.00  0.00    -0.507 OA
ATOM     10  H   LIG    1       28.462 -11.955   4.011  0.00  0.00    +0.292 HD
ENDBRANCH   5   9
BRANCH   1  11
ATOM     11  C   LIG    1       26.630 -17.032   3.964  0.00  0.00    +0.158 C 
BRANCH  11  12
ATOM     12  O   LIG    1       28.003 -17.435   3.843  0.00  0.00    -0.386 OA
ATOM     13  H   LIG    1       28.278 -17.697   4.738  0.00  0.00    +0.210 HD
ENDBRANCH  11  12
BRANCH  11  14
ATOM     14  C   LIG    1       25.735 -17.978   3.121  0.00  0.00    +0.117 C 
BRANCH  14  15
ATOM     15  N   LIG    1       25.747 -19.343   3.687  0.00  0.00    -0.311 NA
ATOM     16  H   LIG    1       26.433 -19.884   3.154  0.00  0.00    +0.122 HD
BRANCH  15  18
ATOM     17  C   LIG    1       24.452 -21.152   4.684  0.00  0.00    +0.024 C 
ATOM     18  C   LIG    1       24.442 -20.014   3.657  0.00  0.00    +0.048 C 
ATOM     19  C   LIG    1       23.299 -19.049   3.978  0.00  0.00    +0.024 C 
ENDBRANCH  15  18
ENDBRANCH  14  15
ENDBRANCH  11  14
ENDBRANCH   1  11
TORSDOF 7
ENDMDL
MODEL 5
REMARK VINA RESULT:      -4.3      2.564      5.923
REMARK  Name = *****
REMARK                            x       y       z     vdW  Elec       q    Type
REMARK                         _______ _______ _______ _____ _____    ______ ____
ROOT
ATOM      1  C   LIG    1       25.824 -15.732   3.558  0.00  0.00    -0.011 A 
ATOM      2  C   LIG    1       27.094 -15.156   3.381  0.00  0.00    +0.051 A 
ATOM      3  C   LIG    1       27.229 -13.782   3.209  0.00  0.00    +0.121 A 
ATOM      4  C   LIG    1       26.118 -12.946   3.220  0.00  0.00    +0.090 A 
ATOM      5  C   LIG    1       24.862 -13.508   3.415  0.00  0.00    +0.121 A 
ATOM      6  C   LIG    1       24.705 -14.882   3.593  0.00  0.00    +0.051 A 
ENDROOT
BRANCH   3   7
ATOM      7  O   LIG    1       28.485 -13.285   3.016  0.00  0.00    -0.507 OA
ATOM      8  H   LIG    1       28.850 -13.026   3.878  0.00  0.00    +0.292 HD
ENDBRANCH   3   7
BRANCH   5   9
ATOM      9  O   LIG    1       23.788 -12.664   3.414  0.00  0.00    -0.507 OA
ATOM     10  H   LIG    1       23.004 -13.161   3.127  0.00  0.00    +0.292 HD
ENDBRANCH   5   9
BRANCH   1  11
ATOM     11  C   LIG    1       25.692 -17.238   3.682  0.00  0.00    +0.158 C 
BRANCH  11  12
ATOM     12  O   LIG    1       26.384 -17.873   2.595  0.00  0.00    -0.386 OA
ATOM     13  H   LIG    1       26.933 -17.177   2.195  0.00  0.00    +0.210 HD
ENDBRANCH  11  12
BRANCH  11  14
ATOM     14  C   LIG    1       24.220 -17.726   3.715  0.00  0.00    +0.117 C 
BRANCH  14  15
ATOM     15  N   LIG    1       24.162 -19.181   3.968  0.00  0.00    -0.311 NA
ATOM     16  H   LIG    1       24.421 -19.649   3.096  0.00  0.00    +0.122 HD
BRANCH  15  18
ATOM     17  C   LIG    1       22.996 -20.189   5.857  0.00  0.00    +0.024 C 
ATOM     18  C   LIG    1       22.852 -19.656   4.427  0.00  0.00    +0.048 C 
ATOM     19  C   LIG    1       21.803 -18.543   4.402  0.00  0.00    +0.024 C 
ENDBRANCH  15  18
ENDBRANCH  14  15
ENDBRANCH  11  14
ENDBRANCH   1  11
TORSDOF 7
ENDMDL
MODEL 6
REMARK VINA RESULT:      -4.3      2.547      6.212
REMARK  Name = *****
REMARK                            x       y       z     vdW  Elec       q    Type
REMARK                         _______ _______ _______ _____ _____    ______ ____
ROOT
ATOM      1  C   LIG    1       25.880 -15.773   3.544  0.00  0.00    -0.011 A 
ATOM      2  C   LIG    1       24.767 -14.919   3.633  0.00  0.00    +0.051 A 
ATOM      3  C   LIG    1       24.930 -13.539   3.571  0.00  0.00    +0.121 A 
ATOM      4  C   LIG    1       26.188 -12.971   3.409  0.00  0.00    +0.090 A 
ATOM      5  C   LIG    1       27.290 -13.812   3.299  0.00  0.00    +0.121 A 
ATOM      6  C   LIG    1       27.149 -15.198   3.354  0.00  0.00    +0.051 A 
ENDROOT
BRANCH   3   7
ATOM      7  O   LIG    1       23.814 -12.761   3.690  0.00  0.00    -0.507 OA
ATOM      8  H   LIG    1       23.273 -13.109   4.418  0.00  0.00    +0.292 HD
ENDBRANCH   3   7
BRANCH   5   9
ATOM      9  O   LIG    1       28.514 -13.227   3.148  0.00  0.00    -0.507 OA
ATOM     10  H   LIG    1       29.176 -13.925   3.006  0.00  0.00    +0.292 HD
ENDBRANCH   5   9
BRANCH   1  11
ATOM     11  C   LIG    1       25.691 -17.273   3.675  0.00  0.00    +0.158 C 
BRANCH  11  12
ATOM     12  O   LIG    1       26.343 -17.936   2.580  0.00  0.00    -0.386 OA
ATOM     13  H   LIG    1       25.673 -18.530   2.199  0.00  0.00    +0.210 HD
ENDBRANCH  11  12
BRANCH  11  14
ATOM     14  C   LIG    1       24.202 -17.703   3.729  0.00  0.00    +0.117 C 
BRANCH  14  15
ATOM     15  N   LIG    1       24.091 -19.162   3.933  0.00  0.00    -0.311 NA
ATOM     16  H   LIG    1       24.314 -19.608   3.039  0.00  0.00    +0.122 HD
BRANCH  15  18
ATOM     17  C   LIG    1       22.913 -20.133   5.833  0.00  0.00    +0.024 C 
ATOM     18  C   LIG    1       22.773 -19.602   4.403  0.00  0.00    +0.048 C 
ATOM     19  C   LIG    1       21.752 -18.463   4.382  0.00  0.00    +0.024 C 
ENDBRANCH  15  18
ENDBRANCH  14  15
ENDBRANCH  11  14
ENDBRANCH   1  11
TORSDOF 7
ENDMDL
MODEL 7
REMARK VINA RESULT:      -4.2      2.713      5.653
REMARK  Name = *****
REMARK                            x       y       z     vdW  Elec       q    Type
REMARK                         _______ _______ _______ _____ _____    ______ ____
ROOT
ATOM      1  C   LIG    1       25.937 -16.140   3.507  0.00  0.00    -0.011 A 
ATOM      2  C   LIG    1       27.222 -15.572   3.522  0.00  0.00    +0.051 A 
ATOM      3  C   LIG    1       27.387 -14.201   3.695  0.00  0.00    +0.121 A 
ATOM      4  C   LIG    1       26.291 -13.364   3.869  0.00  0.00    +0.090 A 
ATOM      5  C   LIG    1       25.018 -13.924   3.876  0.00  0.00    +0.121 A 
ATOM      6  C   LIG    1       24.832 -15.295   3.708  0.00  0.00    +0.051 A 
ENDROOT
BRANCH   3   7
ATOM      7  O   LIG    1       28.658 -13.705   3.674  0.00  0.00    -0.507 OA
ATOM      8  H   LIG    1       28.611 -12.740   3.579  0.00  0.00    +0.292 HD
ENDBRANCH   3   7
BRANCH   5   9
ATOM      9  O   LIG    1       23.960 -13.077   4.041  0.00  0.00    -0.507 OA
ATOM     10  H   LIG    1       24.252 -12.173   3.836  0.00  0.00    +0.292 HD
ENDBRANCH   5   9
BRANCH   1  11
ATOM     11  C   LIG    1       25.774 -17.628   3.256  0.00  0.00    +0.158 C 
BRANCH  11  12
ATOM     12  O   LIG    1       24.436 -18.028   3.591  0.00  0.00    -0.386 OA
ATOM     13  H   LIG    1       23.917 -17.909   2.776  0.00  0.00    +0.210 HD
ENDBRANCH  11  12
BRANCH  11  14
ATOM     14  C   LIG    1       26.788 -18.499   4.041  0.00  0.00    +0.117 C 
BRANCH  14  15
ATOM     15  N   LIG    1       26.193 -19.808   4.380  0.00  0.00    -0.311 NA
ATOM     16  H   LIG    1       25.202 -19.646   4.581  0.00  0.00    +0.122 HD
BRANCH  15  18
ATOM     17  C   LIG    1       28.155 -19.768   5.827  0.00  0.00    +0.024 C 
ATOM     18  C   LIG    1       26.834 -20.481   5.515  0.00  0.00    +0.048 C 
ATOM     19  C   LIG    1       25.944 -20.470   6.760  0.00  0.00    +0.024 C 
ENDBRANCH  15  18
ENDBRANCH  14  15
ENDBRANCH  11  14
ENDBRANCH   1  11
TORSDOF 7
ENDMDL
MODEL 8
REMARK VINA RESULT:      -4.2      2.749      5.962
REMARK  Name = *****
REMARK                            x       y       z     vdW  Elec       q    Type
REMARK                         _______ _______ _______ _____ _____    ______ ____
ROOT
ATOM      1  C   LIG    1       26.001 -16.065   3.468  0.00  0.00    -0.011 A 
ATOM      2  C   LIG    1       24.868 -15.292   3.776  0.00  0.00    +0.051 A 
ATOM      3  C   LIG    1       24.987 -13.925   4.006  0.00  0.00    +0.121 A 
ATOM      4  C   LIG    1       26.220 -13.289   3.926  0.00  0.00    +0.090 A 
ATOM      5  C   LIG    1       27.341 -14.045   3.600  0.00  0.00    +0.121 A 
ATOM      6  C   LIG    1       27.243 -15.415   3.362  0.00  0.00    +0.051 A 
ENDROOT
BRANCH   3   7
ATOM      7  O   LIG    1       23.855 -13.234   4.328  0.00  0.00    -0.507 OA
ATOM      8  H   LIG    1       23.749 -13.248   5.293  0.00  0.00    +0.292 HD
ENDBRANCH   3   7
BRANCH   5   9
ATOM      9  O   LIG    1       28.540 -13.396   3.536  0.00  0.00    -0.507 OA
ATOM     10  H   LIG    1       28.635 -12.841   4.328  0.00  0.00    +0.292 HD
ENDBRANCH   5   9
BRANCH   1  11
ATOM     11  C   LIG    1       25.861 -17.564   3.280  0.00  0.00    +0.158 C 
BRANCH  11  12
ATOM     12  O   LIG    1       24.525 -17.968   3.620  0.00  0.00    -0.386 OA
ATOM     13  H   LIG    1       24.520 -18.063   4.588  0.00  0.00    +0.210 HD
ENDBRANCH  11  12
BRANCH  11  14
ATOM     14  C   LIG    1       26.879 -18.386   4.112  0.00  0.00    +0.117 C 
BRANCH  14  15
ATOM     15  N   LIG    1       26.354 -19.741   4.382  0.00  0.00    -0.311 NA
ATOM     16  H   LIG    1       25.349 -19.645   4.553  0.00  0.00    +0.122 HD
BRANCH  15  18
ATOM     17  C   LIG    1       28.301 -19.683   5.849  0.00  0.00    +0.024 C 
ATOM     18  C   LIG    1       26.996 -20.416   5.515  0.00  0.00    +0.048 C 
ATOM     19  C   LIG    1       26.094 -20.437   6.751  0.00  0.00    +0.024 C 
ENDBRANCH  15  18
ENDBRANCH  14  15
ENDBRANCH  11  14
ENDBRANCH   1  11
TORSDOF 7
ENDMDL
MODEL 9
REMARK VINA RESULT:      -4.2      3.020      6.294
REMARK  Name = *****
REMARK                            x       y       z     vdW  Elec       q    Type
REMARK                         _______ _______ _______ _____ _____    ______ ____
ROOT
ATOM      1  C   LIG    1       24.150 -14.591   3.715  0.00  0.00    -0.011 A 
ATOM      2  C   LIG    1       25.496 -14.957   3.892  0.00  0.00    +0.051 A 
ATOM      3  C   LIG    1       26.517 -14.160   3.384  0.00  0.00    +0.121 A 
ATOM      4  C   LIG    1       26.235 -12.981   2.702  0.00  0.00    +0.090 A 
ATOM      5  C   LIG    1       24.906 -12.604   2.543  0.00  0.00    +0.121 A 
ATOM      6  C   LIG    1       23.869 -13.386   3.047  0.00  0.00    +0.051 A 
ENDROOT
BRANCH   3   7
ATOM      7  O   LIG    1       27.802 -14.581   3.565  0.00  0.00    -0.507 OA
ATOM      8  H   LIG    1       27.972 -15.321   2.958  0.00  0.00    +0.292 HD
ENDBRANCH   3   7
BRANCH   5   9
ATOM      9  O   LIG    1       24.659 -11.447   1.863  0.00  0.00    -0.507 OA
ATOM     10  H   LIG    1       23.954 -11.613   1.214  0.00  0.00    +0.292 HD
ENDBRANCH   5   9
BRANCH   1  11
ATOM     11  C   LIG    1       23.049 -15.504   4.222  0.00  0.00    +0.158 C 
BRANCH  11  12
ATOM     12  O   LIG    1       22.649 -15.088   5.538  0.00  0.00    -0.386 OA
ATOM     13  H   LIG    1       23.229 -14.340   5.762  0.00  0.00    +0.210 HD
ENDBRANCH  11  12
BRANCH  11  14
ATOM     14  C   LIG    1       23.455 -17.000   4.252  0.00  0.00    +0.117 C 
BRANCH  14  15
ATOM     15  N   LIG    1       22.288 -17.847   4.575  0.00  0.00    -0.311 NA
ATOM     16  H   LIG    1       22.002 -17.614   5.530  0.00  0.00    +0.122 HD
BRANCH  15  18
ATOM     17  C   LIG    1       23.792 -19.498   3.597  0.00  0.00    +0.024 C 
ATOM     18  C   LIG    1       22.544 -19.287   4.462  0.00  0.00    +0.048 C 
ATOM     19  C   LIG    1       22.759 -19.935   5.831  0.00  0.00    +0.024 C 
ENDBRANCH  15  18
ENDBRANCH  14  15
ENDBRANCH  11  14
ENDBRANCH   1  11
TORSDOF 7
ENDMDL
