MODEL 1
REMARK VINA RESULT:      -8.3      0.000      0.000
REMARK  Name = *****
REMARK                            x       y       z     vdW  Elec       q    Type
REMARK                         _______ _______ _______ _____ _____    ______ ____
ROOT
ATOM      1  C   LIG    1       25.883 -21.248   6.438  0.00  0.00    +0.009 A 
ATOM      2  C   LIG    1       26.146 -22.668   6.846  0.00  0.00    +0.062 A 
ATOM      3  C   LIG    1       27.266 -22.930   7.632  0.00  0.00    +0.137 A 
ATOM      4  N   LIG    1       28.138 -22.058   8.146  0.00  0.00    -0.238 NA
ATOM      5  C   LIG    1       27.931 -20.797   7.829  0.00  0.00    +0.122 A 
ATOM      6  C   LIG    1       26.901 -20.390   6.961  0.00  0.00    +0.054 A 
ENDROOT
BRANCH   1   9
ATOM      7  C   LIG    1       25.869 -19.494   3.263  0.00  0.00    +0.044 C 
ATOM      8  C   LIG    1       24.799 -19.657   4.275  0.00  0.00    -0.043 A 
ATOM      9  C   LIG    1       24.740 -20.444   5.500  0.00  0.00    -0.013 A 
ATOM     10  C   LIG    1       23.382 -20.499   5.916  0.00  0.00    +0.009 A 
ATOM     11  C   LIG    1       22.333 -19.722   5.355  0.00  0.00    +0.001 A 
ATOM     12  C   LIG    1       22.542 -18.867   4.297  0.00  0.00    +0.000 A 
ATOM     13  C   LIG    1       23.775 -18.852   3.750  0.00  0.00    +0.004 A 
ENDBRANCH   1   9
BRANCH   5  14
ATOM     14  N   LIG    1       28.831 -19.847   8.325  0.00  0.00    -0.305 N 
ATOM     15  C   LIG    1       29.098 -18.937   7.229  0.00  0.00    +0.157 C 
ATOM     16  C   LIG    1       30.024 -17.876   7.739  0.00  0.00    +0.154 C 
ATOM     17  N   LIG    1       31.346 -18.293   8.328  0.00  0.00    +0.263 N 
ATOM     18  C   LIG    1       32.245 -18.898   7.270  0.00  0.00    +0.195 C 
ATOM     19  C   LIG    1       31.012 -19.304   9.452  0.00  0.00    +0.154 C 
ATOM     20  C   LIG    1       30.051 -20.426   8.948  0.00  0.00    +0.157 C 
BRANCH  17  21
ATOM     21  C   LIG    1       32.012 -17.028   8.895  0.00  0.00    +0.318 C 
BRANCH  21  22
ATOM     22  O   LIG    1       32.539 -17.100  10.195  0.00  0.00    -0.245 OA
BRANCH  22  23
ATOM     23  P   LIG    1       31.798 -16.546  11.494  0.00  0.00    +0.476 P 
ATOM     24  O   LIG    1       30.352 -16.258  11.290  0.00  0.00    -0.227 OA
BRANCH  23  25
ATOM     25  O   LIG    1       32.624 -15.337  12.081  0.00  0.00    -0.302 OA
ATOM     26  H   LIG    1       32.539 -15.328  13.054  0.00  0.00    +0.222 HD
ENDBRANCH  23  25
BRANCH  23  27
ATOM     27  O   LIG    1       31.992 -17.591  12.688  0.00  0.00    -0.302 OA
ATOM     28  H   LIG    1       32.919 -17.913  12.734  0.00  0.00    +0.222 HD
ENDBRANCH  23  27
ENDBRANCH  22  23
ENDBRANCH  21  22
ENDBRANCH  17  21
ENDBRANCH   5  14
BRANCH   2  29
ATOM     29  N   LIG    1       25.402 -23.860   6.478  0.00  0.00    -0.272 N 
ATOM     30  C   LIG    1       25.834 -25.170   6.158  0.00  0.00    +0.230 C 
ATOM     31  O   LIG    1       26.976 -25.461   6.065  0.00  0.00    -0.274 OA
ATOM     32  C   LIG    1       24.085 -23.769   6.615  0.00  0.00    +0.138 C 
BRANCH  30  33
ATOM     33  C   LIG    1       24.712 -26.296   5.821  0.00  0.00    +0.067 C 
ATOM     34  C   LIG    1       24.343 -26.664   4.347  0.00  0.00    +0.025 C 
ATOM     35  C   LIG    1       23.416 -25.613   6.327  0.00  0.00    +0.025 C 
BRANCH  33  36
ATOM     36  C   LIG    1       25.024 -27.608   6.584  0.00  0.00    -0.032 A 
ATOM     37  C   LIG    1       25.585 -27.624   7.875  0.00  0.00    +0.017 A 
ATOM     38  C   LIG    1       25.899 -28.812   8.555  0.00  0.00    +0.056 A 
ATOM     39  C   LIG    1       25.630 -30.032   7.933  0.00  0.00    +0.024 A 
ATOM     40  C   LIG    1       25.080 -30.063   6.647  0.00  0.00    +0.056 A 
ATOM     41  C   LIG    1       24.794 -28.856   5.989  0.00  0.00    +0.017 A 
BRANCH  38  42
ATOM     42  C   LIG    1       26.494 -28.725   9.940  0.00  0.00    +0.417 C 
ATOM     43  F   LIG    1       25.702 -29.319  10.876  0.00  0.00    -0.166 F 
ATOM     44  F   LIG    1       26.646 -27.435  10.354  0.00  0.00    -0.166 F 
ATOM     45  F   LIG    1       27.717 -29.306  10.052  0.00  0.00    -0.166 F 
ENDBRANCH  38  42
BRANCH  40  46
ATOM     46  C   LIG    1       24.739 -31.371   5.973  0.00  0.00    +0.417 C 
ATOM     47  F   LIG    1       25.206 -32.439   6.674  0.00  0.00    -0.166 F 
ATOM     48  F   LIG    1       25.258 -31.477   4.722  0.00  0.00    -0.166 F 
ATOM     49  F   LIG    1       23.397 -31.562   5.842  0.00  0.00    -0.166 F 
ENDBRANCH  40  46
ENDBRANCH  33  36
ENDBRANCH  30  33
ENDBRANCH   2  29
TORSDOF 12
ENDMDL
MODEL 2
REMARK VINA RESULT:      -8.3      0.093      2.566
REMARK  Name = *****
REMARK                            x       y       z     vdW  Elec       q    Type
REMARK                         _______ _______ _______ _____ _____    ______ ____
ROOT
ATOM      1  C   LIG    1       25.883 -21.239   6.426  0.00  0.00    +0.009 A 
ATOM      2  C   LIG    1       26.145 -22.661   6.828  0.00  0.00    +0.062 A 
ATOM      3  C   LIG    1       27.262 -22.927   7.617  0.00  0.00    +0.137 A 
ATOM      4  N   LIG    1       28.131 -22.056   8.140  0.00  0.00    -0.238 NA
ATOM      5  C   LIG    1       27.925 -20.795   7.828  0.00  0.00    +0.122 A 
ATOM      6  C   LIG    1       26.899 -20.384   6.958  0.00  0.00    +0.054 A 
ENDROOT
BRANCH   1   9
ATOM      7  C   LIG    1       25.891 -19.435   3.279  0.00  0.00    +0.044 C 
ATOM      8  C   LIG    1       24.810 -19.623   4.276  0.00  0.00    -0.043 A 
ATOM      9  C   LIG    1       24.744 -20.431   5.487  0.00  0.00    -0.013 A 
ATOM     10  C   LIG    1       23.382 -20.505   5.886  0.00  0.00    +0.009 A 
ATOM     11  C   LIG    1       22.332 -19.729   5.325  0.00  0.00    +0.001 A 
ATOM     12  C   LIG    1       22.546 -18.855   4.283  0.00  0.00    +0.000 A 
ATOM     13  C   LIG    1       23.785 -18.820   3.751  0.00  0.00    +0.004 A 
ENDBRANCH   1   9
BRANCH   5  14
ATOM     14  N   LIG    1       28.823 -19.846   8.333  0.00  0.00    -0.305 N 
ATOM     15  C   LIG    1       29.082 -18.923   7.247  0.00  0.00    +0.157 C 
ATOM     16  C   LIG    1       30.006 -17.864   7.767  0.00  0.00    +0.154 C 
ATOM     17  N   LIG    1       31.331 -18.282   8.347  0.00  0.00    +0.263 N 
ATOM     18  C   LIG    1       32.229 -18.871   7.280  0.00  0.00    +0.195 C 
ATOM     19  C   LIG    1       31.004 -19.308   9.460  0.00  0.00    +0.154 C 
ATOM     20  C   LIG    1       30.046 -20.428   8.945  0.00  0.00    +0.157 C 
BRANCH  17  21
ATOM     21  C   LIG    1       31.994 -17.021   8.927  0.00  0.00    +0.318 C 
BRANCH  21  22
ATOM     22  O   LIG    1       32.514 -17.103  10.229  0.00  0.00    -0.245 OA
BRANCH  22  23
ATOM     23  P   LIG    1       31.771 -16.549  11.527  0.00  0.00    +0.476 P 
ATOM     24  O   LIG    1       30.333 -16.230  11.312  0.00  0.00    -0.227 OA
BRANCH  23  25
ATOM     25  O   LIG    1       32.615 -15.365  12.137  0.00  0.00    -0.302 OA
ATOM     26  H   LIG    1       32.035 -14.798  12.680  0.00  0.00    +0.222 HD
ENDBRANCH  23  25
BRANCH  23  27
ATOM     27  O   LIG    1       31.931 -17.612  12.711  0.00  0.00    -0.302 OA
ATOM     28  H   LIG    1       31.106 -18.131  12.839  0.00  0.00    +0.222 HD
ENDBRANCH  23  27
ENDBRANCH  22  23
ENDBRANCH  21  22
ENDBRANCH  17  21
ENDBRANCH   5  14
BRANCH   2  29
ATOM     29  N   LIG    1       25.403 -23.852   6.451  0.00  0.00    -0.272 N 
ATOM     30  C   LIG    1       25.835 -25.166   6.149  0.00  0.00    +0.230 C 
ATOM     31  O   LIG    1       26.977 -25.463   6.085  0.00  0.00    -0.274 OA
ATOM     32  C   LIG    1       24.084 -23.752   6.557  0.00  0.00    +0.138 C 
BRANCH  30  33
ATOM     33  C   LIG    1       24.715 -26.288   5.794  0.00  0.00    +0.067 C 
ATOM     34  C   LIG    1       24.333 -26.620   4.314  0.00  0.00    +0.025 C 
ATOM     35  C   LIG    1       23.421 -25.625   6.330  0.00  0.00    +0.025 C 
BRANCH  33  36
ATOM     36  C   LIG    1       25.040 -27.618   6.519  0.00  0.00    -0.032 A 
ATOM     37  C   LIG    1       24.820 -28.879   5.933  0.00  0.00    +0.017 A 
ATOM     38  C   LIG    1       25.082 -30.086   6.600  0.00  0.00    +0.056 A 
ATOM     39  C   LIG    1       25.598 -30.038   7.895  0.00  0.00    +0.024 A 
ATOM     40  C   LIG    1       25.825 -28.807   8.521  0.00  0.00    +0.056 A 
ATOM     41  C   LIG    1       25.535 -27.619   7.830  0.00  0.00    +0.017 A 
BRANCH  38  42
ATOM     42  C   LIG    1       24.819 -31.389   5.884  0.00  0.00    +0.417 C 
ATOM     43  F   LIG    1       25.481 -32.433   6.458  0.00  0.00    -0.166 F 
ATOM     44  F   LIG    1       25.240 -31.357   4.587  0.00  0.00    -0.166 F 
ATOM     45  F   LIG    1       23.508 -31.744   5.848  0.00  0.00    -0.166 F 
ENDBRANCH  38  42
BRANCH  40  46
ATOM     46  C   LIG    1       26.424 -28.730   9.904  0.00  0.00    +0.417 C 
ATOM     47  F   LIG    1       26.760 -27.456  10.242  0.00  0.00    -0.166 F 
ATOM     48  F   LIG    1       27.555 -29.472  10.037  0.00  0.00    -0.166 F 
ATOM     49  F   LIG    1       25.572 -29.165  10.873  0.00  0.00    -0.166 F 
ENDBRANCH  40  46
ENDBRANCH  33  36
ENDBRANCH  30  33
ENDBRANCH   2  29
TORSDOF 12
ENDMDL
MODEL 3
REMARK VINA RESULT:      -7.5      6.954     12.682
REMARK  Name = *****
REMARK                            x       y       z     vdW  Elec       q    Type
REMARK                         _______ _______ _______ _____ _____    ______ ____
ROOT
ATOM      1  C   LIG    1       24.851 -31.129   7.499  0.00  0.00    +0.009 A 
ATOM      2  C   LIG    1       24.567 -29.664   7.663  0.00  0.00    +0.062 A 
ATOM      3  C   LIG    1       23.746 -29.267   8.716  0.00  0.00    +0.137 A 
ATOM      4  N   LIG    1       23.207 -30.025   9.676  0.00  0.00    -0.238 NA
ATOM      5  C   LIG    1       23.449 -31.315   9.581  0.00  0.00    +0.122 A 
ATOM      6  C   LIG    1       24.176 -31.877   8.515  0.00  0.00    +0.054 A 
ENDROOT
BRANCH   1   9
ATOM      7  C   LIG    1       27.746 -33.309   7.656  0.00  0.00    +0.044 C 
ATOM      8  C   LIG    1       26.937 -32.868   6.495  0.00  0.00    -0.043 A 
ATOM      9  C   LIG    1       25.709 -32.088   6.414  0.00  0.00    -0.013 A 
ATOM     10  C   LIG    1       25.188 -32.234   5.100  0.00  0.00    +0.009 A 
ATOM     11  C   LIG    1       25.881 -32.839   4.018  0.00  0.00    +0.001 A 
ATOM     12  C   LIG    1       27.130 -33.398   4.171  0.00  0.00    +0.000 A 
ATOM     13  C   LIG    1       27.645 -33.425   5.418  0.00  0.00    +0.004 A 
ENDBRANCH   1   9
BRANCH   5  14
ATOM     14  N   LIG    1       22.887 -32.155  10.550  0.00  0.00    -0.305 N 
ATOM     15  C   LIG    1       21.569 -31.619  10.828  0.00  0.00    +0.157 C 
ATOM     16  C   LIG    1       20.918 -32.523  11.830  0.00  0.00    +0.154 C 
ATOM     17  N   LIG    1       21.610 -32.759  13.147  0.00  0.00    +0.263 N 
ATOM     18  C   LIG    1       21.655 -31.490  13.972  0.00  0.00    +0.195 C 
ATOM     19  C   LIG    1       23.027 -33.274  12.797  0.00  0.00    +0.154 C 
ATOM     20  C   LIG    1       23.734 -32.348  11.757  0.00  0.00    +0.157 C 
BRANCH  17  21
ATOM     21  C   LIG    1       20.800 -33.825  13.903  0.00  0.00    +0.318 C 
BRANCH  21  22
ATOM     22  O   LIG    1       19.763 -33.378  14.740  0.00  0.00    -0.245 OA
BRANCH  22  23
ATOM     23  P   LIG    1       18.267 -33.120  14.254  0.00  0.00    +0.476 P 
ATOM     24  O   LIG    1       17.916 -33.809  12.982  0.00  0.00    -0.227 OA
BRANCH  23  25
ATOM     25  O   LIG    1       17.987 -31.568  14.251  0.00  0.00    -0.302 OA
ATOM     26  H   LIG    1       17.445 -31.334  15.028  0.00  0.00    +0.222 HD
ENDBRANCH  23  25
BRANCH  23  27
ATOM     27  O   LIG    1       17.260 -33.558  15.416  0.00  0.00    -0.302 OA
ATOM     28  H   LIG    1       16.324 -33.451  15.137  0.00  0.00    +0.222 HD
ENDBRANCH  23  27
ENDBRANCH  22  23
ENDBRANCH  21  22
ENDBRANCH  17  21
ENDBRANCH   5  14
BRANCH   2  29
ATOM     29  N   LIG    1       24.996 -28.567   6.814  0.00  0.00    -0.272 N 
ATOM     30  C   LIG    1       25.828 -27.452   7.078  0.00  0.00    +0.230 C 
ATOM     31  O   LIG    1       26.253 -27.214   8.154  0.00  0.00    -0.274 OA
ATOM     32  C   LIG    1       24.701 -28.698   5.527  0.00  0.00    +0.138 C 
BRANCH  30  33
ATOM     33  C   LIG    1       26.139 -26.413   5.868  0.00  0.00    +0.067 C 
ATOM     34  C   LIG    1       25.589 -26.655   4.424  0.00  0.00    +0.025 C 
ATOM     35  C   LIG    1       27.666 -26.597   5.677  0.00  0.00    +0.025 C 
BRANCH  33  36
ATOM     36  C   LIG    1       25.767 -24.970   6.292  0.00  0.00    -0.032 A 
ATOM     37  C   LIG    1       24.436 -24.518   6.371  0.00  0.00    +0.017 A 
ATOM     38  C   LIG    1       24.098 -23.201   6.721  0.00  0.00    +0.056 A 
ATOM     39  C   LIG    1       25.122 -22.303   7.022  0.00  0.00    +0.024 A 
ATOM     40  C   LIG    1       26.460 -22.706   6.949  0.00  0.00    +0.056 A 
ATOM     41  C   LIG    1       26.763 -24.026   6.577  0.00  0.00    +0.017 A 
BRANCH  38  42
ATOM     42  C   LIG    1       22.640 -22.814   6.783  0.00  0.00    +0.417 C 
ATOM     43  F   LIG    1       22.345 -22.107   7.911  0.00  0.00    -0.166 F 
ATOM     44  F   LIG    1       21.819 -23.902   6.809  0.00  0.00    -0.166 F 
ATOM     45  F   LIG    1       22.226 -22.051   5.738  0.00  0.00    -0.166 F 
ENDBRANCH  38  42
BRANCH  40  46
ATOM     46  C   LIG    1       27.583 -21.764   7.312  0.00  0.00    +0.417 C 
ATOM     47  F   LIG    1       27.272 -20.471   7.029  0.00  0.00    -0.166 F 
ATOM     48  F   LIG    1       28.739 -22.033   6.652  0.00  0.00    -0.166 F 
ATOM     49  F   LIG    1       27.890 -21.798   8.639  0.00  0.00    -0.166 F 
ENDBRANCH  40  46
ENDBRANCH  33  36
ENDBRANCH  30  33
ENDBRANCH   2  29
TORSDOF 12
ENDMDL
MODEL 4
REMARK VINA RESULT:      -7.5      6.939     12.533
REMARK  Name = *****
REMARK                            x       y       z     vdW  Elec       q    Type
REMARK                         _______ _______ _______ _____ _____    ______ ____
ROOT
ATOM      1  C   LIG    1       24.720 -31.147   7.342  0.00  0.00    +0.009 A 
ATOM      2  C   LIG    1       24.519 -29.675   7.558  0.00  0.00    +0.062 A 
ATOM      3  C   LIG    1       23.754 -29.268   8.649  0.00  0.00    +0.137 A 
ATOM      4  N   LIG    1       23.205 -30.026   9.603  0.00  0.00    -0.238 NA
ATOM      5  C   LIG    1       23.375 -31.324   9.462  0.00  0.00    +0.122 A 
ATOM      6  C   LIG    1       24.038 -31.889   8.358  0.00  0.00    +0.054 A 
ENDROOT
BRANCH   1   9
ATOM      7  C   LIG    1       27.773 -33.101   7.206  0.00  0.00    +0.044 C 
ATOM      8  C   LIG    1       26.777 -32.800   6.150  0.00  0.00    -0.043 A 
ATOM      9  C   LIG    1       25.492 -32.115   6.202  0.00  0.00    -0.013 A 
ATOM     10  C   LIG    1       24.805 -32.387   4.988  0.00  0.00    +0.009 A 
ATOM     11  C   LIG    1       25.386 -33.015   3.854  0.00  0.00    +0.001 A 
ATOM     12  C   LIG    1       26.685 -33.473   3.857  0.00  0.00    +0.000 A 
ATOM     13  C   LIG    1       27.369 -33.377   5.016  0.00  0.00    +0.004 A 
ENDBRANCH   1   9
BRANCH   5  14
ATOM     14  N   LIG    1       22.800 -32.162  10.424  0.00  0.00    -0.305 N 
ATOM     15  C   LIG    1       21.509 -31.584  10.739  0.00  0.00    +0.157 C 
ATOM     16  C   LIG    1       20.842 -32.484  11.734  0.00  0.00    +0.154 C 
ATOM     17  N   LIG    1       21.549 -32.774  13.032  0.00  0.00    +0.263 N 
ATOM     18  C   LIG    1       21.658 -31.526  13.882  0.00  0.00    +0.195 C 
ATOM     19  C   LIG    1       22.939 -33.334  12.644  0.00  0.00    +0.154 C 
ATOM     20  C   LIG    1       23.661 -32.413  11.610  0.00  0.00    +0.157 C 
BRANCH  17  21
ATOM     21  C   LIG    1       20.713 -33.825  13.781  0.00  0.00    +0.318 C 
BRANCH  21  22
ATOM     22  O   LIG    1       19.789 -33.360  14.732  0.00  0.00    -0.245 OA
BRANCH  22  23
ATOM     23  P   LIG    1       18.236 -33.143  14.441  0.00  0.00    +0.476 P 
ATOM     24  O   LIG    1       17.336 -33.798  15.430  0.00  0.00    -0.227 OA
BRANCH  23  25
ATOM     25  O   LIG    1       17.936 -33.521  12.940  0.00  0.00    -0.302 OA
ATOM     26  H   LIG    1       18.294 -32.828  12.352  0.00  0.00    +0.222 HD
ENDBRANCH  23  25
BRANCH  23  27
ATOM     27  O   LIG    1       17.936 -31.574  14.374  0.00  0.00    -0.302 OA
ATOM     28  H   LIG    1       18.108 -31.140  15.239  0.00  0.00    +0.222 HD
ENDBRANCH  23  27
ENDBRANCH  22  23
ENDBRANCH  21  22
ENDBRANCH  17  21
ENDBRANCH   5  14
BRANCH   2  29
ATOM     29  N   LIG    1       24.980 -28.576   6.728  0.00  0.00    -0.272 N 
ATOM     30  C   LIG    1       25.837 -27.485   7.013  0.00  0.00    +0.230 C 
ATOM     31  O   LIG    1       26.262 -27.274   8.095  0.00  0.00    -0.274 OA
ATOM     32  C   LIG    1       24.688 -28.680   5.438  0.00  0.00    +0.138 C 
BRANCH  30  33
ATOM     33  C   LIG    1       26.180 -26.436   5.821  0.00  0.00    +0.067 C 
ATOM     34  C   LIG    1       25.656 -26.659   4.364  0.00  0.00    +0.025 C 
ATOM     35  C   LIG    1       27.709 -26.631   5.657  0.00  0.00    +0.025 C 
BRANCH  33  36
ATOM     36  C   LIG    1       25.812 -24.995   6.252  0.00  0.00    -0.032 A 
ATOM     37  C   LIG    1       26.780 -24.029   6.588  0.00  0.00    +0.017 A 
ATOM     38  C   LIG    1       26.448 -22.732   7.012  0.00  0.00    +0.056 A 
ATOM     39  C   LIG    1       25.101 -22.376   7.089  0.00  0.00    +0.024 A 
ATOM     40  C   LIG    1       24.105 -23.306   6.772  0.00  0.00    +0.056 A 
ATOM     41  C   LIG    1       24.472 -24.600   6.369  0.00  0.00    +0.017 A 
BRANCH  38  42
ATOM     42  C   LIG    1       27.559 -21.766   7.346  0.00  0.00    +0.417 C 
ATOM     43  F   LIG    1       27.808 -21.713   8.685  0.00  0.00    -0.166 F 
ATOM     44  F   LIG    1       27.257 -20.488   6.979  0.00  0.00    -0.166 F 
ATOM     45  F   LIG    1       28.744 -22.061   6.751  0.00  0.00    -0.166 F 
ENDBRANCH  38  42
BRANCH  40  46
ATOM     46  C   LIG    1       22.643 -22.929   6.805  0.00  0.00    +0.417 C 
ATOM     47  F   LIG    1       21.836 -24.017   6.682  0.00  0.00    -0.166 F 
ATOM     48  F   LIG    1       22.290 -22.077   5.808  0.00  0.00    -0.166 F 
ATOM     49  F   LIG    1       22.282 -22.319   7.968  0.00  0.00    -0.166 F 
ENDBRANCH  40  46
ENDBRANCH  33  36
ENDBRANCH  30  33
ENDBRANCH   2  29
TORSDOF 12
ENDMDL
MODEL 5
REMARK VINA RESULT:      -6.4      3.910      7.547
REMARK  Name = *****
REMARK                            x       y       z     vdW  Elec       q    Type
REMARK                         _______ _______ _______ _____ _____    ______ ____
ROOT
ATOM      1  C   LIG    1       25.810 -27.784   8.071  0.00  0.00    +0.009 A 
ATOM      2  C   LIG    1       25.015 -28.484   7.007  0.00  0.00    +0.062 A 
ATOM      3  C   LIG    1       24.587 -27.741   5.909  0.00  0.00    +0.137 A 
ATOM      4  N   LIG    1       24.847 -26.461   5.625  0.00  0.00    -0.238 NA
ATOM      5  C   LIG    1       25.559 -25.815   6.524  0.00  0.00    +0.122 A 
ATOM      6  C   LIG    1       25.976 -26.404   7.731  0.00  0.00    +0.054 A 
ENDROOT
BRANCH   1   9
ATOM      7  C   LIG    1       27.390 -30.727   9.484  0.00  0.00    +0.044 C 
ATOM      8  C   LIG    1       27.026 -29.436  10.114  0.00  0.00    -0.043 A 
ATOM      9  C   LIG    1       26.496 -28.202   9.550  0.00  0.00    -0.013 A 
ATOM     10  C   LIG    1       26.638 -27.181  10.528  0.00  0.00    +0.009 A 
ATOM     11  C   LIG    1       27.011 -27.404  11.881  0.00  0.00    +0.001 A 
ATOM     12  C   LIG    1       27.326 -28.657  12.355  0.00  0.00    +0.000 A 
ATOM     13  C   LIG    1       27.349 -29.667  11.461  0.00  0.00    +0.004 A 
ENDBRANCH   1   9
BRANCH   5  14
ATOM     14  N   LIG    1       25.838 -24.464   6.283  0.00  0.00    -0.305 N 
ATOM     15  C   LIG    1       26.029 -23.856   7.584  0.00  0.00    +0.157 C 
ATOM     16  C   LIG    1       26.377 -22.416   7.362  0.00  0.00    +0.154 C 
ATOM     17  N   LIG    1       25.419 -21.553   6.583  0.00  0.00    +0.263 N 
ATOM     18  C   LIG    1       24.120 -21.366   7.339  0.00  0.00    +0.195 C 
ATOM     19  C   LIG    1       25.203 -22.272   5.229  0.00  0.00    +0.154 C 
ATOM     20  C   LIG    1       24.834 -23.776   5.429  0.00  0.00    +0.157 C 
BRANCH  17  21
ATOM     21  C   LIG    1       26.092 -20.185   6.388  0.00  0.00    +0.318 C 
BRANCH  21  22
ATOM     22  O   LIG    1       27.400 -20.174   5.873  0.00  0.00    -0.245 OA
BRANCH  22  23
ATOM     23  P   LIG    1       28.703 -19.879   6.743  0.00  0.00    +0.476 P 
ATOM     24  O   LIG    1       29.416 -18.628   6.363  0.00  0.00    -0.227 OA
BRANCH  23  25
ATOM     25  O   LIG    1       29.614 -21.166   6.759  0.00  0.00    -0.302 OA
ATOM     26  H   LIG    1       29.198 -21.852   7.314  0.00  0.00    +0.222 HD
ENDBRANCH  23  25
BRANCH  23  27
ATOM     27  O   LIG    1       28.296 -19.836   8.289  0.00  0.00    -0.302 OA
ATOM     28  H   LIG    1       28.664 -19.040   8.733  0.00  0.00    +0.222 HD
ENDBRANCH  23  27
ENDBRANCH  22  23
ENDBRANCH  21  22
ENDBRANCH  17  21
ENDBRANCH   5  14
BRANCH   2  29
ATOM     29  N   LIG    1       24.564 -29.865   6.987  0.00  0.00    -0.272 N 
ATOM     30  C   LIG    1       25.249 -31.066   6.681  0.00  0.00    +0.230 C 
ATOM     31  O   LIG    1       26.363 -31.084   6.290  0.00  0.00    -0.274 OA
ATOM     32  C   LIG    1       23.354 -30.072   7.491  0.00  0.00    +0.138 C 
BRANCH  30  33
ATOM     33  C   LIG    1       24.438 -32.470   6.794  0.00  0.00    +0.067 C 
ATOM     34  C   LIG    1       25.087 -33.824   6.357  0.00  0.00    +0.025 C 
ATOM     35  C   LIG    1       23.324 -32.279   5.733  0.00  0.00    +0.025 C 
BRANCH  33  36
ATOM     36  C   LIG    1       23.867 -32.646   8.224  0.00  0.00    -0.032 A 
ATOM     37  C   LIG    1       22.486 -32.644   8.499  0.00  0.00    +0.017 A 
ATOM     38  C   LIG    1       21.967 -32.769   9.797  0.00  0.00    +0.056 A 
ATOM     39  C   LIG    1       22.855 -32.919  10.863  0.00  0.00    +0.024 A 
ATOM     40  C   LIG    1       24.237 -32.919  10.637  0.00  0.00    +0.056 A 
ATOM     41  C   LIG    1       24.722 -32.773   9.327  0.00  0.00    +0.017 A 
BRANCH  38  42
ATOM     42  C   LIG    1       20.470 -32.761   9.989  0.00  0.00    +0.417 C 
ATOM     43  F   LIG    1       19.832 -33.551   9.080  0.00  0.00    -0.166 F 
ATOM     44  F   LIG    1       19.938 -31.516   9.829  0.00  0.00    -0.166 F 
ATOM     45  F   LIG    1       20.068 -33.191  11.214  0.00  0.00    -0.166 F 
ENDBRANCH  38  42
BRANCH  40  46
ATOM     46  C   LIG    1       25.215 -33.125  11.768  0.00  0.00    +0.417 C 
ATOM     47  F   LIG    1       25.643 -31.943  12.290  0.00  0.00    -0.166 F 
ATOM     48  F   LIG    1       26.330 -33.803  11.392  0.00  0.00    -0.166 F 
ATOM     49  F   LIG    1       24.680 -33.825  12.807  0.00  0.00    -0.166 F 
ENDBRANCH  40  46
ENDBRANCH  33  36
ENDBRANCH  30  33
ENDBRANCH   2  29
TORSDOF 12
ENDMDL
MODEL 6
REMARK VINA RESULT:      -5.8      5.362      8.989
REMARK  Name = *****
REMARK                            x       y       z     vdW  Elec       q    Type
REMARK                         _______ _______ _______ _____ _____    ______ ____
ROOT
ATOM      1  C   LIG    1       26.203 -28.146   9.380  0.00  0.00    +0.009 A 
ATOM      2  C   LIG    1       25.617 -29.255   8.556  0.00  0.00    +0.062 A 
ATOM      3  C   LIG    1       25.195 -28.961   7.262  0.00  0.00    +0.137 A 
ATOM      4  N   LIG    1       25.299 -27.804   6.601  0.00  0.00    -0.238 NA
ATOM      5  C   LIG    1       25.827 -26.810   7.281  0.00  0.00    +0.122 A 
ATOM      6  C   LIG    1       26.207 -26.928   8.630  0.00  0.00    +0.054 A 
ENDROOT
BRANCH   1   9
ATOM      7  C   LIG    1       28.796 -29.712  11.375  0.00  0.00    +0.044 C 
ATOM      8  C   LIG    1       27.777 -28.703  11.746  0.00  0.00    -0.043 A 
ATOM      9  C   LIG    1       26.800 -27.977  10.945  0.00  0.00    -0.013 A 
ATOM     10  C   LIG    1       26.301 -26.905  11.734  0.00  0.00    +0.009 A 
ATOM     11  C   LIG    1       26.549 -26.740  13.122  0.00  0.00    +0.001 A 
ATOM     12  C   LIG    1       27.360 -27.601  13.827  0.00  0.00    +0.000 A 
ATOM     13  C   LIG    1       27.986 -28.571  13.128  0.00  0.00    +0.004 A 
ENDBRANCH   1   9
BRANCH   5  14
ATOM     14  N   LIG    1       25.937 -25.570   6.639  0.00  0.00    -0.305 N 
ATOM     15  C   LIG    1       25.956 -24.574   7.692  0.00  0.00    +0.157 C 
ATOM     16  C   LIG    1       26.121 -23.235   7.042  0.00  0.00    +0.154 C 
ATOM     17  N   LIG    1       25.110 -22.802   6.012  0.00  0.00    +0.263 N 
ATOM     18  C   LIG    1       23.749 -22.591   6.642  0.00  0.00    +0.195 C 
ATOM     19  C   LIG    1       25.085 -23.922   4.943  0.00  0.00    +0.154 C 
ATOM     20  C   LIG    1       24.910 -25.332   5.591  0.00  0.00    +0.157 C 
BRANCH  17  21
ATOM     21  C   LIG    1       25.605 -21.474   5.417  0.00  0.00    +0.318 C 
BRANCH  21  22
ATOM     22  O   LIG    1       24.671 -20.430   5.297  0.00  0.00    -0.245 OA
BRANCH  22  23
ATOM     23  P   LIG    1       24.148 -19.852   3.905  0.00  0.00    +0.476 P 
ATOM     24  O   LIG    1       22.946 -18.983   4.024  0.00  0.00    -0.227 OA
BRANCH  23  25
ATOM     25  O   LIG    1       23.992 -21.041   2.881  0.00  0.00    -0.302 OA
ATOM     26  H   LIG    1       23.261 -21.622   3.166  0.00  0.00    +0.222 HD
ENDBRANCH  23  25
BRANCH  23  27
ATOM     27  O   LIG    1       25.338 -19.057   3.193  0.00  0.00    -0.302 OA
ATOM     28  H   LIG    1       25.088 -18.779   2.284  0.00  0.00    +0.222 HD
ENDBRANCH  23  27
ENDBRANCH  22  23
ENDBRANCH  21  22
ENDBRANCH  17  21
ENDBRANCH   5  14
BRANCH   2  29
ATOM     29  N   LIG    1       25.366 -30.630   8.952  0.00  0.00    -0.272 N 
ATOM     30  C   LIG    1       24.259 -31.482   8.721  0.00  0.00    +0.230 C 
ATOM     31  O   LIG    1       23.270 -31.113   8.190  0.00  0.00    -0.274 OA
ATOM     32  C   LIG    1       26.405 -31.264   9.482  0.00  0.00    +0.138 C 
BRANCH  30  33
ATOM     33  C   LIG    1       24.322 -33.005   9.284  0.00  0.00    +0.067 C 
ATOM     34  C   LIG    1       25.653 -33.825   9.271  0.00  0.00    +0.025 C 
ATOM     35  C   LIG    1       23.455 -33.763   8.248  0.00  0.00    +0.025 C 
BRANCH  33  36
ATOM     36  C   LIG    1       23.726 -33.073  10.713  0.00  0.00    -0.032 A 
ATOM     37  C   LIG    1       22.340 -33.108  10.961  0.00  0.00    +0.017 A 
ATOM     38  C   LIG    1       21.797 -33.136  12.255  0.00  0.00    +0.056 A 
ATOM     39  C   LIG    1       22.666 -33.145  13.347  0.00  0.00    +0.024 A 
ATOM     40  C   LIG    1       24.051 -33.102  13.148  0.00  0.00    +0.056 A 
ATOM     41  C   LIG    1       24.559 -33.057  11.840  0.00  0.00    +0.017 A 
BRANCH  38  42
ATOM     42  C   LIG    1       20.297 -33.178  12.417  0.00  0.00    +0.417 C 
ATOM     43  F   LIG    1       19.756 -31.930  12.509  0.00  0.00    -0.166 F 
ATOM     44  F   LIG    1       19.921 -33.825  13.557  0.00  0.00    -0.166 F 
ATOM     45  F   LIG    1       19.649 -33.799  11.397  0.00  0.00    -0.166 F 
ENDBRANCH  38  42
BRANCH  40  46
ATOM     46  C   LIG    1       25.011 -33.156  14.312  0.00  0.00    +0.417 C 
ATOM     47  F   LIG    1       25.334 -31.914  14.761  0.00  0.00    -0.166 F 
ATOM     48  F   LIG    1       26.183 -33.771  14.008  0.00  0.00    -0.166 F 
ATOM     49  F   LIG    1       24.502 -33.825  15.385  0.00  0.00    -0.166 F 
ENDBRANCH  40  46
ENDBRANCH  33  36
ENDBRANCH  30  33
ENDBRANCH   2  29
TORSDOF 12
ENDMDL
MODEL 7
REMARK VINA RESULT:      -5.5      5.444      9.313
REMARK  Name = *****
REMARK                            x       y       z     vdW  Elec       q    Type
REMARK                         _______ _______ _______ _____ _____    ______ ____
ROOT
ATOM      1  C   LIG    1       25.347 -29.704   6.662  0.00  0.00    +0.009 A 
ATOM      2  C   LIG    1       25.375 -29.665   8.162  0.00  0.00    +0.062 A 
ATOM      3  C   LIG    1       25.556 -28.432   8.786  0.00  0.00    +0.137 A 
ATOM      4  N   LIG    1       25.649 -27.225   8.220  0.00  0.00    -0.238 NA
ATOM      5  C   LIG    1       25.609 -27.212   6.904  0.00  0.00    +0.122 A 
ATOM      6  C   LIG    1       25.531 -28.387   6.134  0.00  0.00    +0.054 A 
ENDROOT
BRANCH   1   9
ATOM      7  C   LIG    1       23.268 -32.627   6.129  0.00  0.00    +0.044 C 
ATOM      8  C   LIG    1       24.422 -32.116   5.354  0.00  0.00    -0.043 A 
ATOM      9  C   LIG    1       25.203 -30.891   5.478  0.00  0.00    -0.013 A 
ATOM     10  C   LIG    1       25.972 -30.744   4.293  0.00  0.00    +0.009 A 
ATOM     11  C   LIG    1       26.115 -31.743   3.293  0.00  0.00    +0.001 A 
ATOM     12  C   LIG    1       25.458 -32.951   3.367  0.00  0.00    +0.000 A 
ATOM     13  C   LIG    1       24.599 -33.123   4.393  0.00  0.00    +0.004 A 
ENDBRANCH   1   9
BRANCH   5  14
ATOM     14  N   LIG    1       25.725 -25.973   6.263  0.00  0.00    -0.305 N 
ATOM     15  C   LIG    1       25.828 -24.985   7.318  0.00  0.00    +0.157 C 
ATOM     16  C   LIG    1       26.002 -23.647   6.666  0.00  0.00    +0.154 C 
ATOM     17  N   LIG    1       24.955 -23.177   5.690  0.00  0.00    +0.263 N 
ATOM     18  C   LIG    1       23.635 -22.927   6.389  0.00  0.00    +0.195 C 
ATOM     19  C   LIG    1       24.842 -24.289   4.619  0.00  0.00    +0.154 C 
ATOM     20  C   LIG    1       24.655 -25.697   5.269  0.00  0.00    +0.157 C 
BRANCH  17  21
ATOM     21  C   LIG    1       25.461 -21.861   5.077  0.00  0.00    +0.318 C 
BRANCH  21  22
ATOM     22  O   LIG    1       24.603 -20.749   5.132  0.00  0.00    -0.245 OA
BRANCH  22  23
ATOM     23  P   LIG    1       24.301 -19.789   3.894  0.00  0.00    +0.476 P 
ATOM     24  O   LIG    1       23.229 -18.789   4.150  0.00  0.00    -0.227 OA
BRANCH  23  25
ATOM     25  O   LIG    1       24.075 -20.668   2.604  0.00  0.00    -0.302 OA
ATOM     26  H   LIG    1       23.999 -20.087   1.824  0.00  0.00    +0.222 HD
ENDBRANCH  23  25
BRANCH  23  27
ATOM     27  O   LIG    1       25.654 -19.053   3.467  0.00  0.00    -0.302 OA
ATOM     28  H   LIG    1       26.397 -19.296   4.063  0.00  0.00    +0.222 HD
ENDBRANCH  23  27
ENDBRANCH  22  23
ENDBRANCH  21  22
ENDBRANCH  17  21
ENDBRANCH   5  14
BRANCH   2  29
ATOM     29  N   LIG    1       25.292 -30.780   9.090  0.00  0.00    -0.272 N 
ATOM     30  C   LIG    1       24.187 -31.545   9.534  0.00  0.00    +0.230 C 
ATOM     31  O   LIG    1       23.073 -31.293   9.232  0.00  0.00    -0.274 OA
ATOM     32  C   LIG    1       26.458 -31.283   9.474  0.00  0.00    +0.138 C 
BRANCH  30  33
ATOM     33  C   LIG    1       24.457 -32.769  10.569  0.00  0.00    +0.067 C 
ATOM     34  C   LIG    1       25.799 -33.573  10.548  0.00  0.00    +0.025 C 
ATOM     35  C   LIG    1       23.431 -33.824  10.088  0.00  0.00    +0.025 C 
BRANCH  33  36
ATOM     36  C   LIG    1       24.192 -32.308  12.025  0.00  0.00    -0.032 A 
ATOM     37  C   LIG    1       23.020 -32.644  12.729  0.00  0.00    +0.017 A 
ATOM     38  C   LIG    1       22.762 -32.200  14.035  0.00  0.00    +0.056 A 
ATOM     39  C   LIG    1       23.714 -31.405  14.674  0.00  0.00    +0.024 A 
ATOM     40  C   LIG    1       24.890 -31.040  14.009  0.00  0.00    +0.056 A 
ATOM     41  C   LIG    1       25.108 -31.487  12.696  0.00  0.00    +0.017 A 
BRANCH  38  42
ATOM     42  C   LIG    1       21.476 -32.619  14.708  0.00  0.00    +0.417 C 
ATOM     43  F   LIG    1       20.496 -32.907  13.806  0.00  0.00    -0.166 F 
ATOM     44  F   LIG    1       20.966 -31.633  15.500  0.00  0.00    -0.166 F 
ATOM     45  F   LIG    1       21.600 -33.716  15.500  0.00  0.00    -0.166 F 
ENDBRANCH  38  42
BRANCH  40  46
ATOM     46  C   LIG    1       25.954 -30.218  14.696  0.00  0.00    +0.417 C 
ATOM     47  F   LIG    1       25.417 -29.257  15.494  0.00  0.00    -0.166 F 
ATOM     48  F   LIG    1       26.777 -29.577  13.825  0.00  0.00    -0.166 F 
ATOM     49  F   LIG    1       26.763 -30.966  15.498  0.00  0.00    -0.166 F 
ENDBRANCH  40  46
ENDBRANCH  33  36
ENDBRANCH  30  33
ENDBRANCH   2  29
TORSDOF 12
ENDMDL
MODEL 8
REMARK VINA RESULT:      -5.4      4.359      8.361
REMARK  Name = *****
REMARK                            x       y       z     vdW  Elec       q    Type
REMARK                         _______ _______ _______ _____ _____    ______ ____
ROOT
ATOM      1  C   LIG    1       26.012 -28.296   8.886  0.00  0.00    +0.009 A 
ATOM      2  C   LIG    1       25.233 -29.229   8.005  0.00  0.00    +0.062 A 
ATOM      3  C   LIG    1       24.743 -28.737   6.797  0.00  0.00    +0.137 A 
ATOM      4  N   LIG    1       24.928 -27.527   6.260  0.00  0.00    -0.238 NA
ATOM      5  C   LIG    1       25.624 -26.684   6.993  0.00  0.00    +0.122 A 
ATOM      6  C   LIG    1       26.097 -27.004   8.278  0.00  0.00    +0.054 A 
ENDROOT
BRANCH   1   9
ATOM      7  C   LIG    1       25.528 -26.742  12.127  0.00  0.00    +0.044 C 
ATOM      8  C   LIG    1       26.591 -27.657  11.650  0.00  0.00    -0.043 A 
ATOM      9  C   LIG    1       26.751 -28.382  10.396  0.00  0.00    -0.013 A 
ATOM     10  C   LIG    1       27.765 -29.360  10.584  0.00  0.00    +0.009 A 
ATOM     11  C   LIG    1       28.614 -29.434  11.720  0.00  0.00    +0.001 A 
ATOM     12  C   LIG    1       28.486 -28.573  12.787  0.00  0.00    +0.000 A 
ATOM     13  C   LIG    1       27.460 -27.698  12.752  0.00  0.00    +0.004 A 
ENDBRANCH   1   9
BRANCH   5  14
ATOM     14  N   LIG    1       25.826 -25.395   6.484  0.00  0.00    -0.305 N 
ATOM     15  C   LIG    1       26.188 -24.569   7.618  0.00  0.00    +0.157 C 
ATOM     16  C   LIG    1       26.458 -23.189   7.102  0.00  0.00    +0.154 C 
ATOM     17  N   LIG    1       25.372 -22.478   6.338  0.00  0.00    +0.263 N 
ATOM     18  C   LIG    1       24.192 -22.165   7.236  0.00  0.00    +0.195 C 
ATOM     19  C   LIG    1       24.980 -23.422   5.176  0.00  0.00    +0.154 C 
ATOM     20  C   LIG    1       24.688 -24.869   5.684  0.00  0.00    +0.157 C 
BRANCH  17  21
ATOM     21  C   LIG    1       25.970 -21.163   5.813  0.00  0.00    +0.318 C 
BRANCH  21  22
ATOM     22  O   LIG    1       26.637 -20.340   6.735  0.00  0.00    -0.245 OA
BRANCH  22  23
ATOM     23  P   LIG    1       28.224 -20.240   6.861  0.00  0.00    +0.476 P 
ATOM     24  O   LIG    1       28.795 -18.968   6.338  0.00  0.00    -0.227 OA
BRANCH  23  25
ATOM     25  O   LIG    1       28.872 -21.542   6.252  0.00  0.00    -0.302 OA
ATOM     26  H   LIG    1       28.660 -21.595   5.300  0.00  0.00    +0.222 HD
ENDBRANCH  23  25
BRANCH  23  27
ATOM     27  O   LIG    1       28.637 -20.443   8.393  0.00  0.00    -0.302 OA
ATOM     28  H   LIG    1       27.849 -20.424   8.981  0.00  0.00    +0.222 HD
ENDBRANCH  23  27
ENDBRANCH  22  23
ENDBRANCH  21  22
ENDBRANCH  17  21
ENDBRANCH   5  14
BRANCH   2  29
ATOM     29  N   LIG    1       24.856 -30.607   8.268  0.00  0.00    -0.272 N 
ATOM     30  C   LIG    1       23.937 -31.465   7.617  0.00  0.00    +0.230 C 
ATOM     31  O   LIG    1       23.236 -31.100   6.738  0.00  0.00    -0.274 OA
ATOM     32  C   LIG    1       25.604 -31.235   9.166  0.00  0.00    +0.138 C 
BRANCH  30  33
ATOM     33  C   LIG    1       23.782 -32.989   8.159  0.00  0.00    +0.067 C 
ATOM     34  C   LIG    1       25.025 -33.825   8.608  0.00  0.00    +0.025 C 
ATOM     35  C   LIG    1       23.326 -33.735   6.880  0.00  0.00    +0.025 C 
BRANCH  33  36
ATOM     36  C   LIG    1       22.723 -33.051   9.288  0.00  0.00    -0.032 A 
ATOM     37  C   LIG    1       21.338 -33.082   9.034  0.00  0.00    +0.017 A 
ATOM     38  C   LIG    1       20.376 -33.104  10.056  0.00  0.00    +0.056 A 
ATOM     39  C   LIG    1       20.807 -33.114  11.383  0.00  0.00    +0.024 A 
ATOM     40  C   LIG    1       22.174 -33.076  11.682  0.00  0.00    +0.056 A 
ATOM     41  C   LIG    1       23.109 -33.036  10.635  0.00  0.00    +0.017 A 
BRANCH  38  42
ATOM     42  C   LIG    1       18.914 -33.141   9.682  0.00  0.00    +0.417 C 
ATOM     43  F   LIG    1       18.375 -31.892   9.597  0.00  0.00    -0.166 F 
ATOM     44  F   LIG    1       18.163 -33.802  10.608  0.00  0.00    -0.166 F 
ATOM     45  F   LIG    1       18.664 -33.744   8.490  0.00  0.00    -0.166 F 
ENDBRANCH  38  42
BRANCH  40  46
ATOM     46  C   LIG    1       22.664 -33.130  13.109  0.00  0.00    +0.417 C 
ATOM     47  F   LIG    1       22.898 -31.889  13.614  0.00  0.00    -0.166 F 
ATOM     48  F   LIG    1       23.824 -33.824  13.248  0.00  0.00    -0.166 F 
ATOM     49  F   LIG    1       21.770 -33.719  13.952  0.00  0.00    -0.166 F 
ENDBRANCH  40  46
ENDBRANCH  33  36
ENDBRANCH  30  33
ENDBRANCH   2  29
TORSDOF 12
ENDMDL
