MODEL 1
REMARK VINA RESULT:      -8.1      0.000      0.000
REMARK  Name = *****
REMARK                            x       y       z     vdW  Elec       q    Type
REMARK                         _______ _______ _______ _____ _____    ______ ____
ROOT
ATOM      1  N   LIG    1       26.557 -20.431   6.033  0.00  0.00    -0.324 N 
ENDROOT
BRANCH   1   2
ATOM      2  C   LIG    1       27.897 -20.241   6.400  0.00  0.00    +0.030 A 
ATOM      3  C   LIG    1       28.478 -20.956   7.456  0.00  0.00    +0.023 A 
ATOM      4  C   LIG    1       29.771 -20.655   7.929  0.00  0.00    +0.002 A 
ATOM      5  C   LIG    1       30.523 -19.651   7.324  0.00  0.00    +0.000 A 
ATOM      6  C   LIG    1       30.003 -18.981   6.230  0.00  0.00    +0.002 A 
ATOM      7  C   LIG    1       28.714 -19.276   5.780  0.00  0.00    +0.023 A 
ENDBRANCH   1   2
BRANCH   1   8
ATOM      8  C   LIG    1       26.217 -20.646   4.596  0.00  0.00    +0.126 C 
BRANCH   8   9
ATOM      9  C   LIG    1       25.491 -19.443   3.909  0.00  0.00    +0.100 C 
BRANCH   9  10
ATOM     10  N   LIG    1       24.111 -19.229   4.451  0.00  0.00    -0.296 NA
ATOM     11  C   LIG    1       23.235 -20.401   4.391  0.00  0.00    +0.085 C 
ATOM     12  C   LIG    1       21.839 -19.838   4.653  0.00  0.00    +0.017 C 
ATOM     13  C   LIG    1       21.953 -18.339   4.416  0.00  0.00    +0.017 C 
ATOM     14  C   LIG    1       23.343 -18.148   3.834  0.00  0.00    +0.085 C 
ENDBRANCH   9  10
BRANCH   9  15
ATOM     15  C   LIG    1       26.417 -18.197   3.994  0.00  0.00    +0.180 C 
BRANCH  15  16
ATOM     16  O   LIG    1       26.003 -17.169   3.081  0.00  0.00    -0.378 OA
BRANCH  16  17
ATOM     17  C   LIG    1       26.518 -15.891   3.436  0.00  0.00    +0.162 C 
BRANCH  17  19
ATOM     18  C   LIG    1       24.717 -14.350   4.256  0.00  0.00    +0.009 C 
ATOM     19  C   LIG    1       25.526 -14.789   3.037  0.00  0.00    +0.009 C 
ATOM     20  C   LIG    1       26.220 -13.579   2.406  0.00  0.00    +0.009 C 
ENDBRANCH  17  19
ENDBRANCH  16  17
ENDBRANCH  15  16
ENDBRANCH   9  15
ENDBRANCH   8   9
ENDBRANCH   1   8
BRANCH   1  21
ATOM     21  C   LIG    1       25.585 -20.874   7.055  0.00  0.00    +0.140 C 
BRANCH  21  22
ATOM     22  C   LIG    1       24.997 -22.274   6.884  0.00  0.00    -0.030 A 
ATOM     23  C   LIG    1       25.801 -23.412   6.689  0.00  0.00    +0.005 A 
ATOM     24  C   LIG    1       25.252 -24.680   6.511  0.00  0.00    +0.000 A 
ATOM     25  C   LIG    1       23.883 -24.859   6.570  0.00  0.00    +0.000 A 
ATOM     26  C   LIG    1       23.051 -23.750   6.767  0.00  0.00    +0.000 A 
ATOM     27  C   LIG    1       23.605 -22.466   6.908  0.00  0.00    +0.005 A 
ENDBRANCH  21  22
ENDBRANCH   1  21
TORSDOF 10
ENDMDL
MODEL 2
REMARK VINA RESULT:      -7.7      1.209      4.774
REMARK  Name = *****
REMARK                            x       y       z     vdW  Elec       q    Type
REMARK                         _______ _______ _______ _____ _____    ______ ____
ROOT
ATOM      1  N   LIG    1       25.930 -20.947   5.621  0.00  0.00    -0.324 N 
ENDROOT
BRANCH   1   2
ATOM      2  C   LIG    1       24.807 -20.280   5.110  0.00  0.00    +0.030 A 
ATOM      3  C   LIG    1       24.860 -19.574   3.900  0.00  0.00    +0.023 A 
ATOM      4  C   LIG    1       23.785 -18.773   3.464  0.00  0.00    +0.002 A 
ATOM      5  C   LIG    1       22.618 -18.696   4.218  0.00  0.00    +0.000 A 
ATOM      6  C   LIG    1       22.509 -19.444   5.378  0.00  0.00    +0.002 A 
ATOM      7  C   LIG    1       23.587 -20.220   5.810  0.00  0.00    +0.023 A 
ENDBRANCH   1   2
BRANCH   1   8
ATOM      8  C   LIG    1       27.294 -20.497   5.217  0.00  0.00    +0.126 C 
BRANCH   8   9
ATOM      9  C   LIG    1       27.837 -19.263   6.010  0.00  0.00    +0.100 C 
BRANCH   9  10
ATOM     10  N   LIG    1       28.701 -19.666   7.164  0.00  0.00    -0.296 NA
ATOM     11  C   LIG    1       29.877 -18.822   7.382  0.00  0.00    +0.085 C 
ATOM     12  C   LIG    1       30.747 -19.630   8.343  0.00  0.00    +0.017 C 
ATOM     13  C   LIG    1       30.217 -21.055   8.272  0.00  0.00    +0.017 C 
ATOM     14  C   LIG    1       29.217 -21.035   7.128  0.00  0.00    +0.085 C 
ENDBRANCH   9  10
BRANCH   9  15
ATOM     15  C   LIG    1       28.518 -18.294   5.003  0.00  0.00    +0.180 C 
BRANCH  15  16
ATOM     16  O   LIG    1       27.548 -17.550   4.249  0.00  0.00    -0.378 OA
BRANCH  16  17
ATOM     17  C   LIG    1       27.736 -16.144   4.365  0.00  0.00    +0.162 C 
BRANCH  17  19
ATOM     18  C   LIG    1       25.448 -15.393   3.663  0.00  0.00    +0.009 C 
ATOM     19  C   LIG    1       26.928 -15.410   3.285  0.00  0.00    +0.009 C 
ATOM     20  C   LIG    1       27.426 -13.981   3.054  0.00  0.00    +0.009 C 
ENDBRANCH  17  19
ENDBRANCH  16  17
ENDBRANCH  15  16
ENDBRANCH   9  15
ENDBRANCH   8   9
ENDBRANCH   1   8
BRANCH   1  21
ATOM     21  C   LIG    1       25.794 -21.741   6.861  0.00  0.00    +0.140 C 
BRANCH  21  22
ATOM     22  C   LIG    1       25.329 -23.188   6.703  0.00  0.00    -0.030 A 
ATOM     23  C   LIG    1       26.228 -24.266   6.611  0.00  0.00    +0.005 A 
ATOM     24  C   LIG    1       25.792 -25.578   6.444  0.00  0.00    +0.000 A 
ATOM     25  C   LIG    1       24.440 -25.861   6.411  0.00  0.00    +0.000 A 
ATOM     26  C   LIG    1       23.514 -24.815   6.503  0.00  0.00    +0.000 A 
ATOM     27  C   LIG    1       23.958 -23.487   6.634  0.00  0.00    +0.005 A 
ENDBRANCH  21  22
ENDBRANCH   1  21
TORSDOF 10
ENDMDL
MODEL 3
REMARK VINA RESULT:      -7.7      2.735      5.802
REMARK  Name = *****
REMARK                            x       y       z     vdW  Elec       q    Type
REMARK                         _______ _______ _______ _____ _____    ______ ____
ROOT
ATOM      1  N   LIG    1       26.138 -21.869   7.150  0.00  0.00    -0.324 N 
ENDROOT
BRANCH   1   2
ATOM      2  C   LIG    1       25.097 -21.339   6.376  0.00  0.00    +0.030 A 
ATOM      3  C   LIG    1       23.963 -20.763   6.964  0.00  0.00    +0.023 A 
ATOM      4  C   LIG    1       22.847 -20.376   6.196  0.00  0.00    +0.002 A 
ATOM      5  C   LIG    1       22.863 -20.525   4.811  0.00  0.00    +0.000 A 
ATOM      6  C   LIG    1       24.000 -21.019   4.196  0.00  0.00    +0.002 A 
ATOM      7  C   LIG    1       25.094 -21.417   4.970  0.00  0.00    +0.023 A 
ENDBRANCH   1   2
BRANCH   1   8
ATOM      8  C   LIG    1       27.193 -20.957   7.678  0.00  0.00    +0.126 C 
BRANCH   8   9
ATOM      9  C   LIG    1       28.585 -21.090   6.977  0.00  0.00    +0.100 C 
BRANCH   9  10
ATOM     10  N   LIG    1       28.764 -20.087   5.879  0.00  0.00    -0.296 NA
ATOM     11  C   LIG    1       29.858 -19.135   6.083  0.00  0.00    +0.085 C 
ATOM     12  C   LIG    1       29.603 -18.043   5.046  0.00  0.00    +0.017 C 
ATOM     13  C   LIG    1       28.154 -18.222   4.615  0.00  0.00    +0.017 C 
ATOM     14  C   LIG    1       27.596 -19.263   5.569  0.00  0.00    +0.085 C 
ENDBRANCH   9  10
BRANCH   9  15
ATOM     15  C   LIG    1       29.691 -21.054   8.069  0.00  0.00    +0.180 C 
BRANCH  15  16
ATOM     16  O   LIG    1       29.615 -19.856   8.858  0.00  0.00    -0.378 OA
BRANCH  16  17
ATOM     17  C   LIG    1       30.900 -19.342   9.185  0.00  0.00    +0.162 C 
BRANCH  17  19
ATOM     18  C   LIG    1       30.402 -17.575  10.894  0.00  0.00    +0.009 C 
ATOM     19  C   LIG    1       30.817 -17.831   9.446  0.00  0.00    +0.009 C 
ATOM     20  C   LIG    1       32.135 -17.112   9.144  0.00  0.00    +0.009 C 
ENDBRANCH  17  19
ENDBRANCH  16  17
ENDBRANCH  15  16
ENDBRANCH   9  15
ENDBRANCH   8   9
ENDBRANCH   1   8
BRANCH   1  21
ATOM     21  C   LIG    1       25.951 -23.178   7.812  0.00  0.00    +0.140 C 
BRANCH  21  22
ATOM     22  C   LIG    1       25.475 -24.332   6.931  0.00  0.00    -0.030 A 
ATOM     23  C   LIG    1       24.117 -24.544   6.631  0.00  0.00    +0.005 A 
ATOM     24  C   LIG    1       23.693 -25.613   5.846  0.00  0.00    +0.000 A 
ATOM     25  C   LIG    1       24.619 -26.479   5.294  0.00  0.00    +0.000 A 
ATOM     26  C   LIG    1       25.980 -26.298   5.566  0.00  0.00    +0.000 A 
ATOM     27  C   LIG    1       26.401 -25.240   6.390  0.00  0.00    +0.005 A 
ENDBRANCH  21  22
ENDBRANCH   1  21
TORSDOF 10
ENDMDL
MODEL 4
REMARK VINA RESULT:      -7.6      1.451      4.419
REMARK  Name = *****
REMARK                            x       y       z     vdW  Elec       q    Type
REMARK                         _______ _______ _______ _____ _____    ______ ____
ROOT
ATOM      1  N   LIG    1       27.714 -20.201   5.832  0.00  0.00    -0.324 N 
ENDROOT
BRANCH   1   2
ATOM      2  C   LIG    1       27.034 -20.899   6.840  0.00  0.00    +0.030 A 
ATOM      3  C   LIG    1       26.840 -22.286   6.771  0.00  0.00    +0.023 A 
ATOM      4  C   LIG    1       26.023 -22.965   7.697  0.00  0.00    +0.002 A 
ATOM      5  C   LIG    1       25.413 -22.268   8.737  0.00  0.00    +0.000 A 
ATOM      6  C   LIG    1       25.650 -20.911   8.875  0.00  0.00    +0.002 A 
ATOM      7  C   LIG    1       26.448 -20.245   7.940  0.00  0.00    +0.023 A 
ENDBRANCH   1   2
BRANCH   1   8
ATOM      8  C   LIG    1       27.020 -19.091   5.117  0.00  0.00    +0.126 C 
BRANCH   8   9
ATOM      9  C   LIG    1       25.893 -19.550   4.134  0.00  0.00    +0.100 C 
BRANCH   9  10
ATOM     10  N   LIG    1       24.666 -20.014   4.856  0.00  0.00    -0.296 NA
ATOM     11  C   LIG    1       24.305 -21.414   4.627  0.00  0.00    +0.085 C 
ATOM     12  C   LIG    1       22.878 -21.527   5.158  0.00  0.00    +0.017 C 
ATOM     13  C   LIG    1       22.368 -20.096   5.258  0.00  0.00    +0.017 C 
ATOM     14  C   LIG    1       23.442 -19.258   4.588  0.00  0.00    +0.085 C 
ENDBRANCH   9  10
BRANCH   9  15
ATOM     15  C   LIG    1       25.644 -18.409   3.107  0.00  0.00    +0.180 C 
BRANCH  15  16
ATOM     16  O   LIG    1       26.438 -17.250   3.403  0.00  0.00    -0.378 OA
BRANCH  16  17
ATOM     17  C   LIG    1       25.707 -16.039   3.243  0.00  0.00    +0.162 C 
BRANCH  17  19
ATOM     18  C   LIG    1       26.869 -13.989   2.386  0.00  0.00    +0.009 C 
ATOM     19  C   LIG    1       26.583 -14.837   3.624  0.00  0.00    +0.009 C 
ATOM     20  C   LIG    1       25.945 -13.972   4.715  0.00  0.00    +0.009 C 
ENDBRANCH  17  19
ENDBRANCH  16  17
ENDBRANCH  15  16
ENDBRANCH   9  15
ENDBRANCH   8   9
ENDBRANCH   1   8
BRANCH   1  21
ATOM     21  C   LIG    1       29.192 -20.237   5.801  0.00  0.00    +0.140 C 
BRANCH  21  22
ATOM     22  C   LIG    1       29.918 -19.745   7.052  0.00  0.00    -0.030 A 
ATOM     23  C   LIG    1       30.621 -20.612   7.908  0.00  0.00    +0.005 A 
ATOM     24  C   LIG    1       31.259 -20.155   9.059  0.00  0.00    +0.000 A 
ATOM     25  C   LIG    1       31.255 -18.808   9.366  0.00  0.00    +0.000 A 
ATOM     26  C   LIG    1       30.569 -17.913   8.536  0.00  0.00    +0.000 A 
ATOM     27  C   LIG    1       29.894 -18.383   7.396  0.00  0.00    +0.005 A 
ENDBRANCH  21  22
ENDBRANCH   1  21
TORSDOF 10
ENDMDL
MODEL 5
REMARK VINA RESULT:      -7.2      2.741      6.464
REMARK  Name = *****
REMARK                            x       y       z     vdW  Elec       q    Type
REMARK                         _______ _______ _______ _____ _____    ______ ____
ROOT
ATOM      1  N   LIG    1       26.621 -21.211   6.396  0.00  0.00    -0.324 N 
ENDROOT
BRANCH   1   2
ATOM      2  C   LIG    1       25.548 -20.561   5.770  0.00  0.00    +0.030 A 
ATOM      3  C   LIG    1       24.277 -20.507   6.359  0.00  0.00    +0.023 A 
ATOM      4  C   LIG    1       23.162 -19.997   5.665  0.00  0.00    +0.002 A 
ATOM      5  C   LIG    1       23.309 -19.493   4.376  0.00  0.00    +0.000 A 
ATOM      6  C   LIG    1       24.567 -19.463   3.799  0.00  0.00    +0.002 A 
ATOM      7  C   LIG    1       25.663 -19.988   4.489  0.00  0.00    +0.023 A 
ENDBRANCH   1   2
BRANCH   1   8
ATOM      8  C   LIG    1       27.973 -20.579   6.370  0.00  0.00    +0.126 C 
BRANCH   8   9
ATOM      9  C   LIG    1       28.592 -20.303   7.780  0.00  0.00    +0.100 C 
BRANCH   9  10
ATOM     10  N   LIG    1       29.746 -21.210   8.079  0.00  0.00    -0.296 NA
ATOM     11  C   LIG    1       29.703 -21.855   9.393  0.00  0.00    +0.085 C 
ATOM     12  C   LIG    1       31.113 -22.409   9.586  0.00  0.00    +0.017 C 
ATOM     13  C   LIG    1       31.980 -21.677   8.572  0.00  0.00    +0.017 C 
ATOM     14  C   LIG    1       31.074 -20.601   7.999  0.00  0.00    +0.085 C 
ENDBRANCH   9  10
BRANCH   9  15
ATOM     15  C   LIG    1       28.920 -18.787   7.884  0.00  0.00    +0.180 C 
BRANCH  15  16
ATOM     16  O   LIG    1       29.443 -18.448   9.179  0.00  0.00    -0.378 OA
BRANCH  16  17
ATOM     17  C   LIG    1       30.302 -17.315   9.134  0.00  0.00    +0.162 C 
BRANCH  17  19
ATOM     18  C   LIG    1       32.592 -16.513   9.769  0.00  0.00    +0.009 C 
ATOM     19  C   LIG    1       31.477 -17.501  10.106  0.00  0.00    +0.009 C 
ATOM     20  C   LIG    1       31.056 -17.338  11.569  0.00  0.00    +0.009 C 
ENDBRANCH  17  19
ENDBRANCH  16  17
ENDBRANCH  15  16
ENDBRANCH   9  15
ENDBRANCH   8   9
ENDBRANCH   1   8
BRANCH   1  21
ATOM     21  C   LIG    1       26.344 -22.227   7.434  0.00  0.00    +0.140 C 
BRANCH  21  22
ATOM     22  C   LIG    1       25.580 -23.473   6.988  0.00  0.00    -0.030 A 
ATOM     23  C   LIG    1       24.175 -23.525   6.947  0.00  0.00    +0.005 A 
ATOM     24  C   LIG    1       23.490 -24.674   6.561  0.00  0.00    +0.000 A 
ATOM     25  C   LIG    1       24.189 -25.796   6.159  0.00  0.00    +0.000 A 
ATOM     26  C   LIG    1       25.589 -25.782   6.182  0.00  0.00    +0.000 A 
ATOM     27  C   LIG    1       26.277 -24.633   6.608  0.00  0.00    +0.005 A 
ENDBRANCH  21  22
ENDBRANCH   1  21
TORSDOF 10
ENDMDL
MODEL 6
REMARK VINA RESULT:      -7.1      1.879      7.116
REMARK  Name = *****
REMARK                            x       y       z     vdW  Elec       q    Type
REMARK                         _______ _______ _______ _____ _____    ______ ____
ROOT
ATOM      1  N   LIG    1       25.483 -19.141   4.116  0.00  0.00    -0.324 N 
ENDROOT
BRANCH   1   2
ATOM      2  C   LIG    1       24.151 -19.483   4.388  0.00  0.00    +0.030 A 
ATOM      3  C   LIG    1       23.818 -20.667   5.060  0.00  0.00    +0.023 A 
ATOM      4  C   LIG    1       22.480 -21.091   5.194  0.00  0.00    +0.002 A 
ATOM      5  C   LIG    1       21.444 -20.311   4.687  0.00  0.00    +0.000 A 
ATOM      6  C   LIG    1       21.739 -19.099   4.086  0.00  0.00    +0.002 A 
ATOM      7  C   LIG    1       23.070 -18.697   3.944  0.00  0.00    +0.023 A 
ENDBRANCH   1   2
BRANCH   1   8
ATOM      8  C   LIG    1       26.576 -20.051   4.565  0.00  0.00    +0.126 C 
BRANCH   8   9
ATOM      9  C   LIG    1       27.222 -19.671   5.939  0.00  0.00    +0.100 C 
BRANCH   9  10
ATOM     10  N   LIG    1       27.030 -20.739   6.970  0.00  0.00    -0.296 NA
ATOM     11  C   LIG    1       26.511 -22.009   6.457  0.00  0.00    +0.085 C 
ATOM     12  C   LIG    1       26.078 -22.770   7.708  0.00  0.00    +0.017 C 
ATOM     13  C   LIG    1       25.980 -21.723   8.808  0.00  0.00    +0.017 C 
ATOM     14  C   LIG    1       26.155 -20.396   8.091  0.00  0.00    +0.085 C 
ENDBRANCH   9  10
BRANCH   9  15
ATOM     15  C   LIG    1       28.704 -19.273   5.691  0.00  0.00    +0.180 C 
BRANCH  15  16
ATOM     16  O   LIG    1       29.607 -20.119   6.421  0.00  0.00    -0.378 OA
BRANCH  16  17
ATOM     17  C   LIG    1       30.813 -19.449   6.768  0.00  0.00    +0.162 C 
BRANCH  17  19
ATOM     18  C   LIG    1       30.354 -18.592   9.080  0.00  0.00    +0.009 C 
ATOM     19  C   LIG    1       31.112 -19.636   8.263  0.00  0.00    +0.009 C 
ATOM     20  C   LIG    1       30.762 -21.043   8.757  0.00  0.00    +0.009 C 
ENDBRANCH  17  19
ENDBRANCH  16  17
ENDBRANCH  15  16
ENDBRANCH   9  15
ENDBRANCH   8   9
ENDBRANCH   1   8
BRANCH   1  21
ATOM     21  C   LIG    1       25.774 -18.181   3.031  0.00  0.00    +0.140 C 
BRANCH  21  22
ATOM     22  C   LIG    1       26.010 -16.729   3.443  0.00  0.00    -0.030 A 
ATOM     23  C   LIG    1       24.960 -15.805   3.592  0.00  0.00    +0.005 A 
ATOM     24  C   LIG    1       25.190 -14.478   3.946  0.00  0.00    +0.000 A 
ATOM     25  C   LIG    1       26.475 -14.042   4.209  0.00  0.00    +0.000 A 
ATOM     26  C   LIG    1       27.546 -14.933   4.075  0.00  0.00    +0.000 A 
ATOM     27  C   LIG    1       27.315 -16.262   3.681  0.00  0.00    +0.005 A 
ENDBRANCH  21  22
ENDBRANCH   1  21
TORSDOF 10
ENDMDL
MODEL 7
REMARK VINA RESULT:      -7.0      1.712      5.676
REMARK  Name = *****
REMARK                            x       y       z     vdW  Elec       q    Type
REMARK                         _______ _______ _______ _____ _____    ______ ____
ROOT
ATOM      1  N   LIG    1       26.099 -21.929   7.144  0.00  0.00    -0.324 N 
ENDROOT
BRANCH   1   2
ATOM      2  C   LIG    1       25.506 -23.152   6.801  0.00  0.00    +0.030 A 
ATOM      3  C   LIG    1       24.114 -23.307   6.759  0.00  0.00    +0.023 A 
ATOM      4  C   LIG    1       23.516 -24.570   6.571  0.00  0.00    +0.002 A 
ATOM      5  C   LIG    1       24.308 -25.700   6.385  0.00  0.00    +0.000 A 
ATOM      6  C   LIG    1       25.686 -25.563   6.345  0.00  0.00    +0.002 A 
ATOM      7  C   LIG    1       26.268 -24.309   6.549  0.00  0.00    +0.023 A 
ENDBRANCH   1   2
BRANCH   1   8
ATOM      8  C   LIG    1       27.566 -21.747   6.945  0.00  0.00    +0.126 C 
BRANCH   8   9
ATOM      9  C   LIG    1       28.056 -20.262   7.007  0.00  0.00    +0.100 C 
BRANCH   9  10
ATOM     10  N   LIG    1       29.089 -20.051   8.071  0.00  0.00    -0.296 NA
ATOM     11  C   LIG    1       29.825 -18.789   7.976  0.00  0.00    +0.085 C 
ATOM     12  C   LIG    1       31.015 -18.977   8.915  0.00  0.00    +0.017 C 
ATOM     13  C   LIG    1       31.115 -20.477   9.149  0.00  0.00    +0.017 C 
ATOM     14  C   LIG    1       30.119 -21.084   8.177  0.00  0.00    +0.085 C 
ENDBRANCH   9  10
BRANCH   9  15
ATOM     15  C   LIG    1       28.502 -19.833   5.581  0.00  0.00    +0.180 C 
BRANCH  15  16
ATOM     16  O   LIG    1       27.565 -18.920   4.988  0.00  0.00    -0.378 OA
BRANCH  16  17
ATOM     17  C   LIG    1       28.162 -17.672   4.655  0.00  0.00    +0.162 C 
BRANCH  17  19
ATOM     18  C   LIG    1       27.729 -15.320   3.899  0.00  0.00    +0.009 C 
ATOM     19  C   LIG    1       27.079 -16.643   4.301  0.00  0.00    +0.009 C 
ATOM     20  C   LIG    1       26.152 -17.132   3.185  0.00  0.00    +0.009 C 
ENDBRANCH  17  19
ENDBRANCH  16  17
ENDBRANCH  15  16
ENDBRANCH   9  15
ENDBRANCH   8   9
ENDBRANCH   1   8
BRANCH   1  21
ATOM     21  C   LIG    1       25.253 -20.721   7.249  0.00  0.00    +0.140 C 
BRANCH  21  22
ATOM     22  C   LIG    1       24.434 -20.347   6.014  0.00  0.00    -0.030 A 
ATOM     23  C   LIG    1       23.083 -19.961   6.092  0.00  0.00    +0.005 A 
ATOM     24  C   LIG    1       22.341 -19.645   4.957  0.00  0.00    +0.000 A 
ATOM     25  C   LIG    1       22.938 -19.659   3.710  0.00  0.00    +0.000 A 
ATOM     26  C   LIG    1       24.281 -20.035   3.593  0.00  0.00    +0.000 A 
ATOM     27  C   LIG    1       25.018 -20.390   4.737  0.00  0.00    +0.005 A 
ENDBRANCH  21  22
ENDBRANCH   1  21
TORSDOF 10
ENDMDL
MODEL 8
REMARK VINA RESULT:      -6.9      7.310     11.873
REMARK  Name = *****
REMARK                            x       y       z     vdW  Elec       q    Type
REMARK                         _______ _______ _______ _____ _____    ______ ____
ROOT
ATOM      1  N   LIG    1       25.268 -28.901   7.419  0.00  0.00    -0.324 N 
ENDROOT
BRANCH   1   2
ATOM      2  C   LIG    1       25.253 -27.645   6.796  0.00  0.00    +0.030 A 
ATOM      3  C   LIG    1       26.148 -26.632   7.163  0.00  0.00    +0.023 A 
ATOM      4  C   LIG    1       26.033 -25.322   6.654  0.00  0.00    +0.002 A 
ATOM      5  C   LIG    1       25.035 -25.014   5.734  0.00  0.00    +0.000 A 
ATOM      6  C   LIG    1       24.184 -26.014   5.295  0.00  0.00    +0.002 A 
ATOM      7  C   LIG    1       24.296 -27.304   5.820  0.00  0.00    +0.023 A 
ENDBRANCH   1   2
BRANCH   1   8
ATOM      8  C   LIG    1       26.093 -29.098   8.646  0.00  0.00    +0.126 C 
BRANCH   8   9
ATOM      9  C   LIG    1       25.406 -29.943   9.769  0.00  0.00    +0.100 C 
BRANCH   9  10
ATOM     10  N   LIG    1       25.906 -31.354   9.802  0.00  0.00    -0.296 NA
ATOM     11  C   LIG    1       26.929 -31.672   8.805  0.00  0.00    +0.085 C 
ATOM     12  C   LIG    1       26.997 -33.197   8.809  0.00  0.00    +0.017 C 
ATOM     13  C   LIG    1       25.716 -33.659   9.488  0.00  0.00    +0.017 C 
ATOM     14  C   LIG    1       24.889 -32.395   9.649  0.00  0.00    +0.085 C 
ENDBRANCH   9  10
BRANCH   9  15
ATOM     15  C   LIG    1       25.547 -29.177  11.115  0.00  0.00    +0.180 C 
BRANCH  15  16
ATOM     16  O   LIG    1       24.306 -29.150  11.839  0.00  0.00    -0.378 OA
BRANCH  16  17
ATOM     17  C   LIG    1       24.291 -28.148  12.848  0.00  0.00    +0.162 C 
BRANCH  17  19
ATOM     18  C   LIG    1       22.556 -26.400  13.320  0.00  0.00    +0.009 C 
ATOM     19  C   LIG    1       22.854 -27.898  13.327  0.00  0.00    +0.009 C 
ATOM     20  C   LIG    1       21.818 -28.642  12.479  0.00  0.00    +0.009 C 
ENDBRANCH  17  19
ENDBRANCH  16  17
ENDBRANCH  15  16
ENDBRANCH   9  15
ENDBRANCH   8   9
ENDBRANCH   1   8
BRANCH   1  21
ATOM     21  C   LIG    1       24.161 -29.847   7.163  0.00  0.00    +0.140 C 
BRANCH  21  22
ATOM     22  C   LIG    1       24.460 -31.015   6.223  0.00  0.00    -0.030 A 
ATOM     23  C   LIG    1       23.630 -32.147   6.136  0.00  0.00    +0.005 A 
ATOM     24  C   LIG    1       23.926 -33.215   5.293  0.00  0.00    +0.000 A 
ATOM     25  C   LIG    1       25.037 -33.166   4.474  0.00  0.00    +0.000 A 
ATOM     26  C   LIG    1       25.885 -32.054   4.529  0.00  0.00    +0.000 A 
ATOM     27  C   LIG    1       25.605 -30.994   5.409  0.00  0.00    +0.005 A 
ENDBRANCH  21  22
ENDBRANCH   1  21
TORSDOF 10
ENDMDL
MODEL 9
REMARK VINA RESULT:      -6.9      2.357      6.074
REMARK  Name = *****
REMARK                            x       y       z     vdW  Elec       q    Type
REMARK                         _______ _______ _______ _____ _____    ______ ____
ROOT
ATOM      1  N   LIG    1       26.994 -20.872   6.200  0.00  0.00    -0.324 N 
ENDROOT
BRANCH   1   2
ATOM      2  C   LIG    1       26.228 -20.097   5.317  0.00  0.00    +0.030 A 
ATOM      3  C   LIG    1       24.855 -20.321   5.145  0.00  0.00    +0.023 A 
ATOM      4  C   LIG    1       24.116 -19.655   4.147  0.00  0.00    +0.002 A 
ATOM      5  C   LIG    1       24.736 -18.719   3.323  0.00  0.00    +0.000 A 
ATOM      6  C   LIG    1       26.074 -18.422   3.521  0.00  0.00    +0.002 A 
ATOM      7  C   LIG    1       26.801 -19.102   4.502  0.00  0.00    +0.023 A 
ENDBRANCH   1   2
BRANCH   1   8
ATOM      8  C   LIG    1       28.469 -20.661   6.264  0.00  0.00    +0.126 C 
BRANCH   8   9
ATOM      9  C   LIG    1       28.945 -19.718   7.419  0.00  0.00    +0.100 C 
BRANCH   9  10
ATOM     10  N   LIG    1       29.831 -20.424   8.398  0.00  0.00    -0.296 NA
ATOM     11  C   LIG    1       31.262 -20.360   8.095  0.00  0.00    +0.085 C 
ATOM     12  C   LIG    1       31.885 -21.421   9.001  0.00  0.00    +0.017 C 
ATOM     13  C   LIG    1       30.730 -22.310   9.439  0.00  0.00    +0.017 C 
ATOM     14  C   LIG    1       29.550 -21.845   8.605  0.00  0.00    +0.085 C 
ENDBRANCH   9  10
BRANCH   9  15
ATOM     15  C   LIG    1       29.572 -18.444   6.785  0.00  0.00    +0.180 C 
BRANCH  15  16
ATOM     16  O   LIG    1       30.494 -17.807   7.683  0.00  0.00    -0.378 OA
BRANCH  16  17
ATOM     17  C   LIG    1       29.835 -17.161   8.766  0.00  0.00    +0.162 C 
BRANCH  17  19
ATOM     18  C   LIG    1       30.644 -17.696  11.078  0.00  0.00    +0.009 C 
ATOM     19  C   LIG    1       30.847 -16.795   9.861  0.00  0.00    +0.009 C 
ATOM     20  C   LIG    1       32.295 -16.892   9.374  0.00  0.00    +0.009 C 
ENDBRANCH  17  19
ENDBRANCH  16  17
ENDBRANCH  15  16
ENDBRANCH   9  15
ENDBRANCH   8   9
ENDBRANCH   1   8
BRANCH   1  21
ATOM     21  C   LIG    1       26.330 -21.526   7.348  0.00  0.00    +0.140 C 
BRANCH  21  22
ATOM     22  C   LIG    1       25.501 -22.772   7.043  0.00  0.00    -0.030 A 
ATOM     23  C   LIG    1       26.086 -24.015   6.740  0.00  0.00    +0.005 A 
ATOM     24  C   LIG    1       25.319 -25.138   6.441  0.00  0.00    +0.000 A 
ATOM     25  C   LIG    1       23.939 -25.067   6.482  0.00  0.00    +0.000 A 
ATOM     26  C   LIG    1       23.320 -23.849   6.784  0.00  0.00    +0.000 A 
ATOM     27  C   LIG    1       24.097 -22.707   7.048  0.00  0.00    +0.005 A 
ENDBRANCH  21  22
ENDBRANCH   1  21
TORSDOF 10
ENDMDL
