MODEL 1
REMARK VINA RESULT:      -4.8      0.000      0.000
REMARK  Name = *****
REMARK                            x       y       z     vdW  Elec       q    Type
REMARK                         _______ _______ _______ _____ _____    ______ ____
ROOT
ATOM      1  C   LIG    1       24.911 -18.664   4.080  0.00  0.00    +0.058 C 
ATOM      2  C   LIG    1       23.438 -18.735   3.625  0.00  0.00    +0.024 C 
ENDROOT
BRANCH   1   3
ATOM      3  N   LIG    1       25.495 -20.032   4.242  0.00  0.00    -0.292 NA
ATOM      4  C   LIG    1       26.585 -20.072   5.229  0.00  0.00    +0.106 C 
BRANCH   3   5
ATOM      5  C   LIG    1       24.497 -21.070   4.586  0.00  0.00    +0.173 C 
BRANCH   5   7
ATOM      6  C   LIG    1       23.515 -20.817   7.062  0.00  0.00    +0.005 C 
ATOM      7  C   LIG    1       23.968 -20.954   5.960  0.00  0.00    -0.090 C 
ENDBRANCH   5   7
ENDBRANCH   3   5
ENDBRANCH   1   3
BRANCH   1   8
ATOM      8  C   LIG    1       25.708 -17.780   3.071  0.00  0.00    +0.053 C 
BRANCH   8   9
ATOM      9  C   LIG    1       25.924 -16.344   3.506  0.00  0.00    -0.046 A 
ATOM     10  C   LIG    1       27.221 -15.839   3.686  0.00  0.00    +0.003 A 
ATOM     11  C   LIG    1       27.423 -14.499   4.024  0.00  0.00    +0.000 A 
ATOM     12  C   LIG    1       26.331 -13.648   4.182  0.00  0.00    +0.000 A 
ATOM     13  C   LIG    1       25.037 -14.140   4.022  0.00  0.00    +0.000 A 
ATOM     14  C   LIG    1       24.833 -15.481   3.687  0.00  0.00    +0.003 A 
ENDBRANCH   8   9
ENDBRANCH   1   8
TORSDOF 5
ENDMDL
MODEL 2
REMARK VINA RESULT:      -4.8      1.958      6.067
REMARK  Name = *****
REMARK                            x       y       z     vdW  Elec       q    Type
REMARK                         _______ _______ _______ _____ _____    ______ ____
ROOT
ATOM      1  C   LIG    1       25.882 -16.012   3.811  0.00  0.00    +0.058 C 
ATOM      2  C   LIG    1       27.372 -15.616   3.875  0.00  0.00    +0.024 C 
ENDROOT
BRANCH   1   3
ATOM      3  N   LIG    1       25.055 -14.919   3.211  0.00  0.00    -0.292 NA
ATOM      4  C   LIG    1       24.032 -14.406   4.135  0.00  0.00    +0.106 C 
BRANCH   3   5
ATOM      5  C   LIG    1       25.852 -13.782   2.697  0.00  0.00    +0.173 C 
BRANCH   5   7
ATOM      6  C   LIG    1       24.400 -11.688   1.885  0.00  0.00    +0.005 C 
ATOM      7  C   LIG    1       25.033 -12.643   2.235  0.00  0.00    -0.090 C 
ENDBRANCH   5   7
ENDBRANCH   3   5
ENDBRANCH   1   3
BRANCH   1   8
ATOM      8  C   LIG    1       25.753 -17.363   3.042  0.00  0.00    +0.053 C 
BRANCH   8   9
ATOM      9  C   LIG    1       24.829 -18.381   3.682  0.00  0.00    -0.046 A 
ATOM     10  C   LIG    1       25.327 -19.611   4.138  0.00  0.00    +0.003 A 
ATOM     11  C   LIG    1       24.490 -20.521   4.787  0.00  0.00    +0.000 A 
ATOM     12  C   LIG    1       23.147 -20.213   4.989  0.00  0.00    +0.000 A 
ATOM     13  C   LIG    1       22.635 -19.002   4.525  0.00  0.00    +0.000 A 
ATOM     14  C   LIG    1       23.470 -18.091   3.875  0.00  0.00    +0.003 A 
ENDBRANCH   8   9
ENDBRANCH   1   8
TORSDOF 5
ENDMDL
MODEL 3
REMARK VINA RESULT:      -4.8      1.984      6.212
REMARK  Name = *****
REMARK                            x       y       z     vdW  Elec       q    Type
REMARK                         _______ _______ _______ _____ _____    ______ ____
ROOT
ATOM      1  C   LIG    1       25.890 -15.949   3.811  0.00  0.00    +0.058 C 
ATOM      2  C   LIG    1       27.379 -15.550   3.859  0.00  0.00    +0.024 C 
ENDROOT
BRANCH   1   3
ATOM      3  N   LIG    1       25.053 -14.856   3.224  0.00  0.00    -0.292 NA
ATOM      4  C   LIG    1       24.031 -14.359   4.156  0.00  0.00    +0.106 C 
BRANCH   3   5
ATOM      5  C   LIG    1       25.841 -13.709   2.717  0.00  0.00    +0.173 C 
BRANCH   5   7
ATOM      6  C   LIG    1       24.381 -11.650   1.832  0.00  0.00    +0.005 C 
ATOM      7  C   LIG    1       25.012 -12.589   2.230  0.00  0.00    -0.090 C 
ENDBRANCH   5   7
ENDBRANCH   3   5
ENDBRANCH   1   3
BRANCH   1   8
ATOM      8  C   LIG    1       25.755 -17.298   3.037  0.00  0.00    +0.053 C 
BRANCH   8   9
ATOM      9  C   LIG    1       24.859 -18.329   3.696  0.00  0.00    -0.046 A 
ATOM     10  C   LIG    1       23.501 -18.057   3.921  0.00  0.00    +0.003 A 
ATOM     11  C   LIG    1       22.661 -19.030   4.467  0.00  0.00    +0.000 A 
ATOM     12  C   LIG    1       23.168 -20.286   4.794  0.00  0.00    +0.000 A 
ATOM     13  C   LIG    1       24.519 -20.563   4.592  0.00  0.00    +0.000 A 
ATOM     14  C   LIG    1       25.361 -19.591   4.047  0.00  0.00    +0.003 A 
ENDBRANCH   8   9
ENDBRANCH   1   8
TORSDOF 5
ENDMDL
MODEL 4
REMARK VINA RESULT:      -4.6      1.577      5.700
REMARK  Name = *****
REMARK                            x       y       z     vdW  Elec       q    Type
REMARK                         _______ _______ _______ _____ _____    ______ ____
ROOT
ATOM      1  C   LIG    1       26.208 -16.988   3.828  0.00  0.00    +0.058 C 
ATOM      2  C   LIG    1       27.704 -17.292   4.046  0.00  0.00    +0.024 C 
ENDROOT
BRANCH   1   3
ATOM      3  N   LIG    1       26.015 -15.670   3.146  0.00  0.00    -0.292 NA
ATOM      4  C   LIG    1       24.811 -14.962   3.606  0.00  0.00    +0.106 C 
BRANCH   3   5
ATOM      5  C   LIG    1       27.180 -14.763   3.260  0.00  0.00    +0.173 C 
BRANCH   5   7
ATOM      6  C   LIG    1       27.153 -13.276   5.484  0.00  0.00    +0.005 C 
ATOM      7  C   LIG    1       27.159 -13.920   4.472  0.00  0.00    -0.090 C 
ENDBRANCH   5   7
ENDBRANCH   3   5
ENDBRANCH   1   3
BRANCH   1   8
ATOM      8  C   LIG    1       25.561 -18.175   3.047  0.00  0.00    +0.053 C 
BRANCH   8   9
ATOM      9  C   LIG    1       24.551 -18.987   3.834  0.00  0.00    -0.046 A 
ATOM     10  C   LIG    1       24.933 -20.177   4.473  0.00  0.00    +0.003 A 
ATOM     11  C   LIG    1       24.020 -20.891   5.252  0.00  0.00    +0.000 A 
ATOM     12  C   LIG    1       22.717 -20.423   5.404  0.00  0.00    +0.000 A 
ATOM     13  C   LIG    1       22.320 -19.252   4.761  0.00  0.00    +0.000 A 
ATOM     14  C   LIG    1       23.231 -18.537   3.980  0.00  0.00    +0.003 A 
ENDBRANCH   8   9
ENDBRANCH   1   8
TORSDOF 5
ENDMDL
MODEL 5
REMARK VINA RESULT:      -4.5      1.589      5.848
REMARK  Name = *****
REMARK                            x       y       z     vdW  Elec       q    Type
REMARK                         _______ _______ _______ _____ _____    ______ ____
ROOT
ATOM      1  C   LIG    1       26.149 -16.984   3.810  0.00  0.00    +0.058 C 
ATOM      2  C   LIG    1       27.648 -17.294   4.006  0.00  0.00    +0.024 C 
ENDROOT
BRANCH   1   3
ATOM      3  N   LIG    1       25.951 -15.660   3.143  0.00  0.00    -0.292 NA
ATOM      4  C   LIG    1       24.755 -14.953   3.626  0.00  0.00    +0.106 C 
BRANCH   3   5
ATOM      5  C   LIG    1       27.120 -14.757   3.251  0.00  0.00    +0.173 C 
BRANCH   5   7
ATOM      6  C   LIG    1       27.148 -13.289   5.486  0.00  0.00    +0.005 C 
ATOM      7  C   LIG    1       27.119 -13.927   4.472  0.00  0.00    -0.090 C 
ENDBRANCH   5   7
ENDBRANCH   3   5
ENDBRANCH   1   3
BRANCH   1   8
ATOM      8  C   LIG    1       25.490 -18.162   3.027  0.00  0.00    +0.053 C 
BRANCH   8   9
ATOM      9  C   LIG    1       24.512 -18.999   3.829  0.00  0.00    -0.046 A 
ATOM     10  C   LIG    1       23.209 -18.539   4.071  0.00  0.00    +0.003 A 
ATOM     11  C   LIG    1       22.287 -19.337   4.753  0.00  0.00    +0.000 A 
ATOM     12  C   LIG    1       22.658 -20.604   5.199  0.00  0.00    +0.000 A 
ATOM     13  C   LIG    1       23.955 -21.066   4.981  0.00  0.00    +0.000 A 
ATOM     14  C   LIG    1       24.878 -20.268   4.301  0.00  0.00    +0.003 A 
ENDBRANCH   8   9
ENDBRANCH   1   8
TORSDOF 5
ENDMDL
MODEL 6
REMARK VINA RESULT:      -4.3      2.297      4.236
REMARK  Name = *****
REMARK                            x       y       z     vdW  Elec       q    Type
REMARK                         _______ _______ _______ _____ _____    ______ ____
ROOT
ATOM      1  C   LIG    1       24.617 -18.771   4.243  0.00  0.00    +0.058 C 
ATOM      2  C   LIG    1       24.463 -17.345   3.676  0.00  0.00    +0.024 C 
ENDROOT
BRANCH   1   3
ATOM      3  N   LIG    1       23.491 -19.654   3.806  0.00  0.00    -0.292 NA
ATOM      4  C   LIG    1       23.942 -20.995   3.405  0.00  0.00    +0.106 C 
BRANCH   3   5
ATOM      5  C   LIG    1       22.413 -19.789   4.812  0.00  0.00    +0.173 C 
BRANCH   5   7
ATOM      6  C   LIG    1       23.243 -20.987   7.056  0.00  0.00    +0.005 C 
ATOM      7  C   LIG    1       22.845 -20.455   6.058  0.00  0.00    -0.090 C 
ENDBRANCH   5   7
ENDBRANCH   3   5
ENDBRANCH   1   3
BRANCH   1   8
ATOM      8  C   LIG    1       26.017 -19.327   3.835  0.00  0.00    +0.053 C 
BRANCH   8   9
ATOM      9  C   LIG    1       26.957 -19.610   4.991  0.00  0.00    -0.046 A 
ATOM     10  C   LIG    1       26.589 -20.506   6.007  0.00  0.00    +0.003 A 
ATOM     11  C   LIG    1       27.480 -20.819   7.037  0.00  0.00    +0.000 A 
ATOM     12  C   LIG    1       28.747 -20.241   7.062  0.00  0.00    +0.000 A 
ATOM     13  C   LIG    1       29.118 -19.337   6.068  0.00  0.00    +0.000 A 
ATOM     14  C   LIG    1       28.228 -19.022   5.039  0.00  0.00    +0.003 A 
ENDBRANCH   8   9
ENDBRANCH   1   8
TORSDOF 5
ENDMDL
MODEL 7
REMARK VINA RESULT:      -4.3      1.200      1.899
REMARK  Name = *****
REMARK                            x       y       z     vdW  Elec       q    Type
REMARK                         _______ _______ _______ _____ _____    ______ ____
ROOT
ATOM      1  C   LIG    1       23.380 -19.182   4.700  0.00  0.00    +0.058 C 
ATOM      2  C   LIG    1       21.921 -18.883   4.300  0.00  0.00    +0.024 C 
ENDROOT
BRANCH   1   3
ATOM      3  N   LIG    1       23.558 -20.621   5.069  0.00  0.00    -0.292 NA
ATOM      4  C   LIG    1       24.360 -21.366   4.086  0.00  0.00    +0.106 C 
BRANCH   3   5
ATOM      5  C   LIG    1       24.139 -20.824   6.416  0.00  0.00    +0.173 C 
BRANCH   5   7
ATOM      6  C   LIG    1       26.780 -20.420   6.547  0.00  0.00    +0.005 C 
ATOM      7  C   LIG    1       25.600 -20.621   6.470  0.00  0.00    -0.090 C 
ENDBRANCH   5   7
ENDBRANCH   3   5
ENDBRANCH   1   3
BRANCH   1   8
ATOM      8  C   LIG    1       24.322 -18.732   3.541  0.00  0.00    +0.053 C 
BRANCH   8   9
ATOM      9  C   LIG    1       24.831 -17.307   3.642  0.00  0.00    -0.046 A 
ATOM     10  C   LIG    1       26.162 -16.999   3.321  0.00  0.00    +0.003 A 
ATOM     11  C   LIG    1       26.613 -15.677   3.352  0.00  0.00    +0.000 A 
ATOM     12  C   LIG    1       25.739 -14.649   3.700  0.00  0.00    +0.000 A 
ATOM     13  C   LIG    1       24.420 -14.944   4.037  0.00  0.00    +0.000 A 
ATOM     14  C   LIG    1       23.967 -16.265   4.010  0.00  0.00    +0.003 A 
ENDBRANCH   8   9
ENDBRANCH   1   8
TORSDOF 5
ENDMDL
MODEL 8
REMARK VINA RESULT:      -4.2      2.392      6.014
REMARK  Name = *****
REMARK                            x       y       z     vdW  Elec       q    Type
REMARK                         _______ _______ _______ _____ _____    ______ ____
ROOT
ATOM      1  C   LIG    1       24.357 -14.261   3.473  0.00  0.00    +0.058 C 
ATOM      2  C   LIG    1       24.004 -12.762   3.566  0.00  0.00    +0.024 C 
ENDROOT
BRANCH   1   3
ATOM      3  N   LIG    1       25.827 -14.484   3.639  0.00  0.00    -0.292 NA
ATOM      4  C   LIG    1       26.580 -14.267   2.394  0.00  0.00    +0.106 C 
BRANCH   3   5
ATOM      5  C   LIG    1       26.436 -13.671   4.717  0.00  0.00    +0.173 C 
BRANCH   5   7
ATOM      6  C   LIG    1       28.866 -12.713   4.143  0.00  0.00    +0.005 C 
ATOM      7  C   LIG    1       27.768 -13.134   4.376  0.00  0.00    -0.090 C 
ENDBRANCH   5   7
ENDBRANCH   3   5
ENDBRANCH   1   3
BRANCH   1   8
ATOM      8  C   LIG    1       23.503 -15.045   4.518  0.00  0.00    +0.053 C 
BRANCH   8   9
ATOM      9  C   LIG    1       23.408 -16.540   4.279  0.00  0.00    -0.046 A 
ATOM     10  C   LIG    1       24.497 -17.248   3.747  0.00  0.00    +0.003 A 
ATOM     11  C   LIG    1       24.433 -18.634   3.587  0.00  0.00    +0.000 A 
ATOM     12  C   LIG    1       23.283 -19.328   3.959  0.00  0.00    +0.000 A 
ATOM     13  C   LIG    1       22.189 -18.633   4.472  0.00  0.00    +0.000 A 
ATOM     14  C   LIG    1       22.250 -17.247   4.631  0.00  0.00    +0.003 A 
ENDBRANCH   8   9
ENDBRANCH   1   8
TORSDOF 5
ENDMDL
MODEL 9
REMARK VINA RESULT:      -4.2      1.243      1.886
REMARK  Name = *****
REMARK                            x       y       z     vdW  Elec       q    Type
REMARK                         _______ _______ _______ _____ _____    ______ ____
ROOT
ATOM      1  C   LIG    1       24.219 -19.043   3.686  0.00  0.00    +0.058 C 
ATOM      2  C   LIG    1       24.211 -20.174   2.638  0.00  0.00    +0.024 C 
ENDROOT
BRANCH   1   3
ATOM      3  N   LIG    1       24.146 -19.591   5.077  0.00  0.00    -0.292 NA
ATOM      4  C   LIG    1       22.769 -19.888   5.500  0.00  0.00    +0.106 C 
BRANCH   3   5
ATOM      5  C   LIG    1       24.985 -20.793   5.289  0.00  0.00    +0.173 C 
BRANCH   5   7
ATOM      6  C   LIG    1       26.994 -20.436   7.018  0.00  0.00    +0.005 C 
ATOM      7  C   LIG    1       26.075 -20.591   6.264  0.00  0.00    -0.090 C 
ENDBRANCH   5   7
ENDBRANCH   3   5
ENDBRANCH   1   3
BRANCH   1   8
ATOM      8  C   LIG    1       25.475 -18.148   3.453  0.00  0.00    +0.053 C 
BRANCH   8   9
ATOM      9  C   LIG    1       25.244 -16.659   3.627  0.00  0.00    -0.046 A 
ATOM     10  C   LIG    1       26.263 -15.739   3.334  0.00  0.00    +0.003 A 
ATOM     11  C   LIG    1       26.030 -14.365   3.431  0.00  0.00    +0.000 A 
ATOM     12  C   LIG    1       24.778 -13.895   3.819  0.00  0.00    +0.000 A 
ATOM     13  C   LIG    1       23.763 -14.799   4.129  0.00  0.00    +0.000 A 
ATOM     14  C   LIG    1       23.994 -16.173   4.035  0.00  0.00    +0.003 A 
ENDBRANCH   8   9
ENDBRANCH   1   8
TORSDOF 5
ENDMDL
