MODEL 1
REMARK VINA RESULT:      -0.7      0.000      0.000
REMARK  Name = *****
REMARK                            x       y       z     vdW  Elec       q    Type
REMARK                         _______ _______ _______ _____ _____    ______ ____
ROOT
ATOM      1  C   UNK A  0       25.407 -18.960   4.046  0.00  0.00    +0.246 C 
ATOM      2  N   UNK A  2       25.088 -17.618   4.090  0.00  0.00    -0.298 N 
ATOM      3  H   ACE A  1       24.497 -17.314   4.871  0.00  0.00    +0.150 HD
ATOM      4  O   UNK A  0       26.258 -19.414   3.278  0.00  0.00    -0.270 OA
ENDROOT
BRANCH   2   5
ATOM      5  C   UNK A  2       25.725 -16.593   3.214  0.00  0.00    +0.191 C 
ATOM      6  C   UNK A  2       25.194 -15.121   3.220  0.00  0.00    +0.169 C 
ATOM      7  N   UNK A  2       26.427 -14.751   3.893  0.00  0.00    -0.249 N 
ATOM      8  C   UNK A  2       26.705 -13.464   4.233  0.00  0.00    +0.119 C 
ATOM      9  C   UNK A  2       25.688 -12.601   4.419  0.00  0.00    +0.014 C 
ATOM     10  C   UNK A  2       24.219 -12.909   4.394  0.00  0.00    +0.100 C 
ATOM     11  S   UNK A  2       23.820 -14.684   4.314  0.00  0.00    -0.131 S 
ATOM     12  C   UNK A  2       27.038 -15.936   3.773  0.00  0.00    +0.244 C 
ATOM     13  O   UNK A  2       28.176 -16.252   4.089  0.00  0.00    -0.273 OA
BRANCH   8  14
ATOM     14  C   UNK A  2       28.096 -12.934   4.410  0.00  0.00    +0.351 C 
ATOM     15  O   UNK A  2       28.954 -13.053   3.544  0.00  0.00    -0.244 OA
BRANCH  14  16
ATOM     16  O   UNK A  2       28.356 -12.310   5.572  0.00  0.00    -0.476 OA
ATOM     17  H   UNK A  2       27.709 -12.439   6.300  0.00  0.00    +0.295 HD
ENDBRANCH  14  16
ENDBRANCH   8  14
ENDBRANCH   2   5
BRANCH   1  18
ATOM     18  C   UNK A  0       24.680 -19.857   5.033  0.00  0.00    +0.059 C 
ATOM     19  C   UNK A  0       25.251 -20.180   6.221  0.00  0.00    -0.001 C 
BRANCH  18  23
ATOM     20  C   UNK A  0       21.227 -19.972   4.117  0.00  0.00    +0.156 A 
ATOM     21  S   UNK A  0       21.145 -21.572   4.737  0.00  0.00    -0.060 S 
ATOM     22  C   UNK A  0       22.801 -21.489   5.135  0.00  0.00    +0.077 A 
ATOM     23  C   UNK A  0       23.318 -20.262   4.764  0.00  0.00    +0.085 A 
ATOM     24  N   UNK A  0       22.408 -19.398   4.175  0.00  0.00    -0.225 NA
BRANCH  20  25
ATOM     25  N   UNK A  0       20.129 -19.383   3.635  0.00  0.00    -0.338 N 
ATOM     26  H   UNK A  0       20.053 -19.189   2.644  0.00  0.00    +0.144 HD
ATOM     27  H   UNK A  0       19.542 -18.829   4.246  0.00  0.00    +0.144 HD
ENDBRANCH  20  25
ENDBRANCH  18  23
BRANCH  19  28
ATOM     28  C   UNK A  0       26.554 -19.787   6.854  0.00  0.00    +0.148 C 
BRANCH  28  29
ATOM     29  C   UNK A  0       27.691 -20.661   6.354  0.00  0.00    +0.308 C 
ATOM     30  O   UNK A  0       28.193 -21.568   7.004  0.00  0.00    -0.251 OA
BRANCH  29  31
ATOM     31  O   UNK A  0       28.137 -20.316   5.124  0.00  0.00    -0.480 OA
ATOM     32  H   UNK A  0       27.574 -20.668   4.395  0.00  0.00    +0.295 HD
ENDBRANCH  29  31
ENDBRANCH  28  29
ENDBRANCH  19  28
ENDBRANCH   1  18
TORSDOF 9
ENDMDL
MODEL 2
REMARK VINA RESULT:       0.0      2.497      3.958
REMARK  Name = *****
REMARK                            x       y       z     vdW  Elec       q    Type
REMARK                         _______ _______ _______ _____ _____    ______ ____
ROOT
ATOM      1  C   UNK A  0       24.720 -18.481   3.667  0.00  0.00    +0.246 C 
ATOM      2  N   UNK A  2       25.663 -17.540   4.026  0.00  0.00    -0.298 N 
ATOM      3  H   ACE A  1       26.191 -17.726   4.886  0.00  0.00    +0.150 HD
ATOM      4  O   UNK A  0       24.161 -18.474   2.569  0.00  0.00    -0.270 OA
ENDROOT
BRANCH   2   5
ATOM      5  C   UNK A  2       26.087 -16.422   3.137  0.00  0.00    +0.191 C 
ATOM      6  C   UNK A  2       25.332 -15.052   3.189  0.00  0.00    +0.169 C 
ATOM      7  N   UNK A  2       26.522 -14.496   3.808  0.00  0.00    -0.249 N 
ATOM      8  C   UNK A  2       26.610 -13.184   4.153  0.00  0.00    +0.119 C 
ATOM      9  C   UNK A  2       25.481 -12.494   4.399  0.00  0.00    +0.014 C 
ATOM     10  C   UNK A  2       24.079 -13.030   4.439  0.00  0.00    +0.100 C 
ATOM     11  S   UNK A  2       23.961 -14.845   4.352  0.00  0.00    -0.131 S 
ATOM     12  C   UNK A  2       27.306 -15.569   3.642  0.00  0.00    +0.244 C 
ATOM     13  O   UNK A  2       28.493 -15.704   3.900  0.00  0.00    -0.273 OA
BRANCH   8  14
ATOM     14  C   UNK A  2       27.907 -12.442   4.272  0.00  0.00    +0.351 C 
ATOM     15  O   UNK A  2       28.649 -12.266   3.312  0.00  0.00    -0.244 OA
BRANCH  14  16
ATOM     16  O   UNK A  2       28.217 -11.968   5.492  0.00  0.00    -0.476 OA
ATOM     17  H   UNK A  2       29.117 -12.171   5.831  0.00  0.00    +0.295 HD
ENDBRANCH  14  16
ENDBRANCH   8  14
ENDBRANCH   2   5
BRANCH   1  18
ATOM     18  C   UNK A  0       24.432 -19.570   4.688  0.00  0.00    +0.059 C 
ATOM     19  C   UNK A  0       23.198 -20.127   4.774  0.00  0.00    -0.001 C 
BRANCH  18  23
ATOM     20  C   UNK A  0       27.616 -20.360   6.106  0.00  0.00    +0.156 A 
ATOM     21  S   UNK A  0       26.859 -21.570   7.061  0.00  0.00    -0.060 S 
ATOM     22  C   UNK A  0       25.354 -21.147   6.382  0.00  0.00    +0.077 A 
ATOM     23  C   UNK A  0       25.513 -20.107   5.484  0.00  0.00    +0.085 A 
ATOM     24  N   UNK A  0       26.817 -19.658   5.335  0.00  0.00    -0.225 NA
BRANCH  20  25
ATOM     25  N   UNK A  0       28.941 -20.193   6.162  0.00  0.00    -0.338 N 
ATOM     26  H   UNK A  0       29.328 -19.275   6.344  0.00  0.00    +0.144 HD
ATOM     27  H   UNK A  0       29.555 -20.853   5.703  0.00  0.00    +0.144 HD
ENDBRANCH  20  25
ENDBRANCH  18  23
BRANCH  19  28
ATOM     28  C   UNK A  0       21.937 -19.910   3.988  0.00  0.00    +0.148 C 
BRANCH  28  29
ATOM     29  C   UNK A  0       21.429 -18.488   4.150  0.00  0.00    +0.308 C 
ATOM     30  O   UNK A  0       21.846 -17.706   4.994  0.00  0.00    -0.251 OA
BRANCH  29  31
ATOM     31  O   UNK A  0       20.429 -18.171   3.295  0.00  0.00    -0.480 OA
ATOM     32  H   UNK A  0       20.504 -17.256   2.933  0.00  0.00    +0.295 HD
ENDBRANCH  29  31
ENDBRANCH  28  29
ENDBRANCH  19  28
ENDBRANCH   1  18
TORSDOF 9
ENDMDL
MODEL 3
REMARK VINA RESULT:       0.9      2.709      6.903
REMARK  Name = *****
REMARK                            x       y       z     vdW  Elec       q    Type
REMARK                         _______ _______ _______ _____ _____    ______ ____
ROOT
ATOM      1  C   UNK A  0       26.202 -17.569   3.682  0.00  0.00    +0.246 C 
ATOM      2  N   UNK A  2       26.621 -18.884   3.672  0.00  0.00    -0.298 N 
ATOM      3  H   ACE A  1       27.565 -19.066   4.028  0.00  0.00    +0.150 HD
ATOM      4  O   UNK A  0       25.034 -17.243   3.465  0.00  0.00    -0.270 OA
ENDROOT
BRANCH   2   5
ATOM      5  C   UNK A  2       25.713 -20.032   3.388  0.00  0.00    +0.191 C 
ATOM      6  C   UNK A  2       25.249 -20.969   4.552  0.00  0.00    +0.169 C 
ATOM      7  N   UNK A  2       23.927 -20.387   4.404  0.00  0.00    -0.249 N 
ATOM      8  C   UNK A  2       22.873 -20.786   5.165  0.00  0.00    +0.119 C 
ATOM      9  C   UNK A  2       23.108 -21.335   6.372  0.00  0.00    +0.014 C 
ATOM     10  C   UNK A  2       24.434 -21.483   7.061  0.00  0.00    +0.100 C 
ATOM     11  S   UNK A  2       25.814 -20.626   6.237  0.00  0.00    -0.131 S 
ATOM     12  C   UNK A  2       24.183 -19.686   3.292  0.00  0.00    +0.244 C 
ATOM     13  O   UNK A  2       23.420 -19.020   2.607  0.00  0.00    -0.273 OA
BRANCH   8  14
ATOM     14  C   UNK A  2       21.443 -20.658   4.736  0.00  0.00    +0.351 C 
ATOM     15  O   UNK A  2       20.633 -21.565   4.886  0.00  0.00    -0.244 OA
BRANCH  14  16
ATOM     16  O   UNK A  2       21.086 -19.487   4.181  0.00  0.00    -0.476 OA
ATOM     17  H   UNK A  2       21.486 -18.674   4.562  0.00  0.00    +0.295 HD
ENDBRANCH  14  16
ENDBRANCH   8  14
ENDBRANCH   2   5
BRANCH   1  18
ATOM     18  C   UNK A  0       27.258 -16.530   4.022  0.00  0.00    +0.059 C 
ATOM     19  C   UNK A  0       28.450 -16.905   4.550  0.00  0.00    -0.001 C 
BRANCH  18  23
ATOM     20  C   UNK A  0       26.009 -13.468   2.666  0.00  0.00    +0.156 A 
ATOM     21  S   UNK A  0       27.402 -12.666   3.269  0.00  0.00    -0.060 S 
ATOM     22  C   UNK A  0       27.952 -14.140   3.925  0.00  0.00    +0.077 A 
ATOM     23  C   UNK A  0       27.043 -15.147   3.659  0.00  0.00    +0.085 A 
ATOM     24  N   UNK A  0       25.926 -14.751   2.939  0.00  0.00    -0.225 NA
BRANCH  20  25
ATOM     25  N   UNK A  0       25.103 -12.794   1.951  0.00  0.00    -0.338 N 
ATOM     26  H   UNK A  0       24.438 -12.189   2.420  0.00  0.00    +0.144 HD
ATOM     27  H   UNK A  0       24.839 -13.119   1.031  0.00  0.00    +0.144 HD
ENDBRANCH  20  25
ENDBRANCH  18  23
BRANCH  19  28
ATOM     28  C   UNK A  0       29.030 -18.251   4.877  0.00  0.00    +0.148 C 
BRANCH  28  29
ATOM     29  C   UNK A  0       29.155 -18.442   6.379  0.00  0.00    +0.308 C 
ATOM     30  O   UNK A  0       28.952 -19.505   6.951  0.00  0.00    -0.251 OA
BRANCH  29  31
ATOM     31  O   UNK A  0       29.473 -17.308   7.043  0.00  0.00    -0.480 OA
ATOM     32  H   UNK A  0       29.991 -16.671   6.497  0.00  0.00    +0.295 HD
ENDBRANCH  29  31
ENDBRANCH  28  29
ENDBRANCH  19  28
ENDBRANCH   1  18
TORSDOF 9
ENDMDL
MODEL 4
REMARK VINA RESULT:       2.3      3.241      7.739
REMARK  Name = *****
REMARK                            x       y       z     vdW  Elec       q    Type
REMARK                         _______ _______ _______ _____ _____    ______ ____
ROOT
ATOM      1  C   UNK A  0       25.576 -15.277   3.078  0.00  0.00    +0.246 C 
ATOM      2  N   UNK A  2       26.186 -16.334   3.723  0.00  0.00    -0.298 N 
ATOM      3  H   ACE A  1       26.594 -16.134   4.642  0.00  0.00    +0.150 HD
ATOM      4  O   UNK A  0       24.886 -15.426   2.068  0.00  0.00    -0.270 OA
ENDROOT
BRANCH   2   5
ATOM      5  C   UNK A  2       26.084 -17.747   3.260  0.00  0.00    +0.191 C 
ATOM      6  C   UNK A  2       26.787 -18.887   4.069  0.00  0.00    +0.169 C 
ATOM      7  N   UNK A  2       25.463 -19.329   4.468  0.00  0.00    -0.249 N 
ATOM      8  C   UNK A  2       25.274 -20.421   5.256  0.00  0.00    +0.119 C 
ATOM      9  C   UNK A  2       26.263 -20.814   6.079  0.00  0.00    +0.014 C 
ATOM     10  C   UNK A  2       27.572 -20.119   6.325  0.00  0.00    +0.100 C 
ATOM     11  S   UNK A  2       27.701 -18.465   5.573  0.00  0.00    -0.131 S 
ATOM     12  C   UNK A  2       24.771 -18.508   3.668  0.00  0.00    +0.244 C 
ATOM     13  O   UNK A  2       23.565 -18.448   3.483  0.00  0.00    -0.273 OA
BRANCH   8  14
ATOM     14  C   UNK A  2       24.014 -21.233   5.260  0.00  0.00    +0.351 C 
ATOM     15  O   UNK A  2       23.460 -21.571   6.300  0.00  0.00    -0.244 OA
BRANCH  14  16
ATOM     16  O   UNK A  2       23.514 -21.571   4.059  0.00  0.00    -0.476 OA
ATOM     17  H   UNK A  2       22.536 -21.651   3.991  0.00  0.00    +0.295 HD
ENDBRANCH  14  16
ENDBRANCH   8  14
ENDBRANCH   2   5
BRANCH   1  18
ATOM     18  C   UNK A  0       25.761 -13.906   3.708  0.00  0.00    +0.059 C 
ATOM     19  C   UNK A  0       24.691 -13.204   4.158  0.00  0.00    -0.001 C 
BRANCH  18  23
ATOM     20  C   UNK A  0       28.694 -12.429   5.118  0.00  0.00    +0.156 A 
ATOM     21  S   UNK A  0       29.475 -12.597   3.598  0.00  0.00    -0.060 S 
ATOM     22  C   UNK A  0       28.067 -13.322   2.968  0.00  0.00    +0.077 A 
ATOM     23  C   UNK A  0       27.096 -13.405   3.949  0.00  0.00    +0.085 A 
ATOM     24  N   UNK A  0       27.466 -12.893   5.183  0.00  0.00    -0.225 NA
BRANCH  20  25
ATOM     25  N   UNK A  0       29.327 -11.838   6.136  0.00  0.00    -0.338 N 
ATOM     26  H   UNK A  0       29.687 -10.897   6.029  0.00  0.00    +0.144 HD
ATOM     27  H   UNK A  0       29.752 -12.399   6.862  0.00  0.00    +0.144 HD
ENDBRANCH  20  25
ENDBRANCH  18  23
BRANCH  19  28
ATOM     28  C   UNK A  0       23.225 -13.520   4.206  0.00  0.00    +0.148 C 
BRANCH  28  29
ATOM     29  C   UNK A  0       22.962 -14.775   5.023  0.00  0.00    +0.308 C 
ATOM     30  O   UNK A  0       22.669 -14.767   6.211  0.00  0.00    -0.251 OA
BRANCH  29  31
ATOM     31  O   UNK A  0       23.126 -15.920   4.321  0.00  0.00    -0.480 OA
ATOM     32  H   UNK A  0       24.013 -15.991   3.897  0.00  0.00    +0.295 HD
ENDBRANCH  29  31
ENDBRANCH  28  29
ENDBRANCH  19  28
ENDBRANCH   1  18
TORSDOF 9
ENDMDL
