MODEL 1
REMARK VINA RESULT:      -4.7      0.000      0.000
REMARK  Name = *****
REMARK                            x       y       z     vdW  Elec       q    Type
REMARK                         _______ _______ _______ _____ _____    ______ ____
ROOT
ATOM      1 CL   LIG    1       23.092 -21.572   6.579  0.00  0.00    -0.082 Cl
ATOM      2  C   LIG    1       23.939 -20.518   5.505  0.00  0.00    +0.061 A 
ATOM      3  C   LIG    1       23.283 -19.726   4.558  0.00  0.00    +0.063 A 
ATOM      4 CL   LIG    1       21.563 -19.730   4.383  0.00  0.00    -0.082 Cl
ATOM      5  C   LIG    1       24.017 -18.887   3.709  0.00  0.00    +0.068 A 
ATOM      6  C   LIG    1       25.412 -18.828   3.801  0.00  0.00    +0.142 A 
ATOM      7  C   LIG    1       26.060 -19.629   4.757  0.00  0.00    +0.084 A 
ATOM      8 CL   LIG    1       27.780 -19.610   4.931  0.00  0.00    -0.080 Cl
ATOM      9  C   LIG    1       25.329 -20.469   5.603  0.00  0.00    +0.045 A 
ENDROOT
BRANCH   6  10
ATOM     10  O   LIG    1       26.209 -18.033   3.019  0.00  0.00    -0.478 OA
BRANCH  10  11
ATOM     11  C   LIG    1       26.900 -16.954   3.645  0.00  0.00    +0.318 C 
BRANCH  11  12
ATOM     12  C   LIG    1       26.118 -15.724   3.489  0.00  0.00    -0.050 C 
ATOM     13  C   LIG    1       25.470 -14.718   3.386  0.00  0.00    -0.027 C 
ATOM     14  I   LIG    1       24.346 -12.980   3.235  0.00  0.00    +0.018 I 
ENDBRANCH  11  12
ENDBRANCH  10  11
ENDBRANCH   6  10
TORSDOF 3
ENDMDL
MODEL 2
REMARK VINA RESULT:      -4.5      1.117      2.545
REMARK  Name = *****
REMARK                            x       y       z     vdW  Elec       q    Type
REMARK                         _______ _______ _______ _____ _____    ______ ____
ROOT
ATOM      1 CL   LIG    1       23.113 -21.572   7.061  0.00  0.00    -0.082 Cl
ATOM      2  C   LIG    1       23.838 -20.555   5.868  0.00  0.00    +0.061 A 
ATOM      3  C   LIG    1       25.214 -20.552   5.620  0.00  0.00    +0.063 A 
ATOM      4 CL   LIG    1       26.310 -21.570   6.487  0.00  0.00    -0.082 Cl
ATOM      5  C   LIG    1       25.752 -19.707   4.641  0.00  0.00    +0.068 A 
ATOM      6  C   LIG    1       24.922 -18.863   3.896  0.00  0.00    +0.142 A 
ATOM      7  C   LIG    1       23.541 -18.875   4.154  0.00  0.00    +0.084 A 
ATOM      8 CL   LIG    1       22.452 -17.860   3.275  0.00  0.00    -0.080 Cl
ATOM      9  C   LIG    1       23.001 -19.714   5.133  0.00  0.00    +0.045 A 
ENDROOT
BRANCH   6  10
ATOM     10  O   LIG    1       25.360 -18.011   2.915  0.00  0.00    -0.478 OA
BRANCH  10  11
ATOM     11  C   LIG    1       26.344 -17.039   3.261  0.00  0.00    +0.318 C 
BRANCH  11  12
ATOM     12  C   LIG    1       25.694 -15.742   3.465  0.00  0.00    -0.050 C 
ATOM     13  C   LIG    1       25.175 -14.668   3.613  0.00  0.00    -0.027 C 
ATOM     14  I   LIG    1       24.294 -12.804   3.849  0.00  0.00    +0.018 I 
ENDBRANCH  11  12
ENDBRANCH  10  11
ENDBRANCH   6  10
TORSDOF 3
ENDMDL
MODEL 3
REMARK VINA RESULT:      -3.9      3.359      5.265
REMARK  Name = *****
REMARK                            x       y       z     vdW  Elec       q    Type
REMARK                         _______ _______ _______ _____ _____    ______ ____
ROOT
ATOM      1 CL   LIG    1       23.268 -15.140   4.055  0.00  0.00    -0.082 Cl
ATOM      2  C   LIG    1       23.668 -16.819   4.022  0.00  0.00    +0.061 A 
ATOM      3  C   LIG    1       24.943 -17.281   3.682  0.00  0.00    +0.063 A 
ATOM      4 CL   LIG    1       26.233 -16.208   3.266  0.00  0.00    -0.082 Cl
ATOM      5  C   LIG    1       25.216 -18.656   3.670  0.00  0.00    +0.068 A 
ATOM      6  C   LIG    1       24.221 -19.580   4.003  0.00  0.00    +0.142 A 
ATOM      7  C   LIG    1       22.943 -19.104   4.344  0.00  0.00    +0.084 A 
ATOM      8 CL   LIG    1       21.663 -20.186   4.768  0.00  0.00    -0.080 Cl
ATOM      9  C   LIG    1       22.668 -17.733   4.353  0.00  0.00    +0.045 A 
ENDROOT
BRANCH   6  10
ATOM     10  O   LIG    1       24.399 -20.939   4.025  0.00  0.00    -0.478 OA
BRANCH  10  11
ATOM     11  C   LIG    1       24.574 -21.572   5.291  0.00  0.00    +0.318 C 
BRANCH  11  12
ATOM     12  C   LIG    1       25.857 -21.157   5.866  0.00  0.00    -0.050 C 
ATOM     13  C   LIG    1       26.918 -20.814   6.314  0.00  0.00    -0.027 C 
ATOM     14  I   LIG    1       28.760 -20.219   7.062  0.00  0.00    +0.018 I 
ENDBRANCH  11  12
ENDBRANCH  10  11
ENDBRANCH   6  10
TORSDOF 3
ENDMDL
MODEL 4
REMARK VINA RESULT:      -3.8      3.879      5.871
REMARK  Name = *****
REMARK                            x       y       z     vdW  Elec       q    Type
REMARK                         _______ _______ _______ _____ _____    ______ ____
ROOT
ATOM      1 CL   LIG    1       24.354 -12.599   4.697  0.00  0.00    -0.082 Cl
ATOM      2  C   LIG    1       24.639 -14.232   4.213  0.00  0.00    +0.061 A 
ATOM      3  C   LIG    1       25.844 -14.645   3.638  0.00  0.00    +0.063 A 
ATOM      4 CL   LIG    1       27.157 -13.554   3.363  0.00  0.00    -0.082 Cl
ATOM      5  C   LIG    1       26.025 -15.982   3.262  0.00  0.00    +0.068 A 
ATOM      6  C   LIG    1       25.006 -16.920   3.462  0.00  0.00    +0.142 A 
ATOM      7  C   LIG    1       23.799 -16.493   4.042  0.00  0.00    +0.084 A 
ATOM      8 CL   LIG    1       22.496 -17.594   4.321  0.00  0.00    -0.080 Cl
ATOM      9  C   LIG    1       23.616 -15.158   4.414  0.00  0.00    +0.045 A 
ENDROOT
BRANCH   6  10
ATOM     10  O   LIG    1       25.097 -18.248   3.133  0.00  0.00    -0.478 OA
BRANCH  10  11
ATOM     11  C   LIG    1       25.993 -19.065   3.883  0.00  0.00    +0.318 C 
BRANCH  11  12
ATOM     12  C   LIG    1       25.228 -19.863   4.846  0.00  0.00    -0.050 C 
ATOM     13  C   LIG    1       24.589 -20.495   5.643  0.00  0.00    -0.027 C 
ATOM     14  I   LIG    1       23.471 -21.565   7.027  0.00  0.00    +0.018 I 
ENDBRANCH  11  12
ENDBRANCH  10  11
ENDBRANCH   6  10
TORSDOF 3
ENDMDL
MODEL 5
REMARK VINA RESULT:      -3.3      1.807      2.169
REMARK  Name = *****
REMARK                            x       y       z     vdW  Elec       q    Type
REMARK                         _______ _______ _______ _____ _____    ______ ____
ROOT
ATOM      1 CL   LIG    1       22.866 -21.448   6.663  0.00  0.00    -0.082 Cl
ATOM      2  C   LIG    1       24.363 -20.865   6.031  0.00  0.00    +0.061 A 
ATOM      3  C   LIG    1       24.432 -20.035   4.909  0.00  0.00    +0.063 A 
ATOM      4 CL   LIG    1       23.020 -19.517   4.055  0.00  0.00    -0.082 Cl
ATOM      5  C   LIG    1       25.673 -19.589   4.435  0.00  0.00    +0.068 A 
ATOM      6  C   LIG    1       26.856 -19.963   5.081  0.00  0.00    +0.142 A 
ATOM      7  C   LIG    1       26.774 -20.798   6.210  0.00  0.00    +0.084 A 
ATOM      8 CL   LIG    1       28.192 -21.302   7.061  0.00  0.00    -0.080 Cl
ATOM      9  C   LIG    1       25.537 -21.246   6.681  0.00  0.00    +0.045 A 
ENDROOT
BRANCH   6  10
ATOM     10  O   LIG    1       28.111 -19.570   4.695  0.00  0.00    -0.478 OA
BRANCH  10  11
ATOM     11  C   LIG    1       28.650 -18.384   5.273  0.00  0.00    +0.318 C 
BRANCH  11  12
ATOM     12  C   LIG    1       28.062 -17.213   4.616  0.00  0.00    -0.050 C 
ATOM     13  C   LIG    1       27.576 -16.244   4.100  0.00  0.00    -0.027 C 
ATOM     14  I   LIG    1       26.734 -14.556   3.233  0.00  0.00    +0.018 I 
ENDBRANCH  11  12
ENDBRANCH  10  11
ENDBRANCH   6  10
TORSDOF 3
ENDMDL
MODEL 6
REMARK VINA RESULT:      -3.2      2.218      3.041
REMARK  Name = *****
REMARK                            x       y       z     vdW  Elec       q    Type
REMARK                         _______ _______ _______ _____ _____    ______ ____
ROOT
ATOM      1 CL   LIG    1       21.529 -21.107   4.858  0.00  0.00    -0.082 Cl
ATOM      2  C   LIG    1       22.582 -19.797   4.460  0.00  0.00    +0.061 A 
ATOM      3  C   LIG    1       23.845 -19.995   3.895  0.00  0.00    +0.063 A 
ATOM      4 CL   LIG    1       24.463 -21.571   3.544  0.00  0.00    -0.082 Cl
ATOM      5  C   LIG    1       24.662 -18.898   3.592  0.00  0.00    +0.068 A 
ATOM      6  C   LIG    1       24.223 -17.594   3.843  0.00  0.00    +0.142 A 
ATOM      7  C   LIG    1       22.950 -17.408   4.410  0.00  0.00    +0.084 A 
ATOM      8 CL   LIG    1       22.338 -15.827   4.749  0.00  0.00    -0.080 Cl
ATOM      9  C   LIG    1       22.135 -18.501   4.718  0.00  0.00    +0.045 A 
ENDROOT
BRANCH   6  10
ATOM     10  O   LIG    1       24.949 -16.463   3.571  0.00  0.00    -0.478 OA
BRANCH  10  11
ATOM     11  C   LIG    1       26.330 -16.614   3.253  0.00  0.00    +0.318 C 
BRANCH  11  12
ATOM     12  C   LIG    1       27.023 -15.344   3.491  0.00  0.00    -0.050 C 
ATOM     13  C   LIG    1       27.614 -14.316   3.684  0.00  0.00    -0.027 C 
ATOM     14  I   LIG    1       28.657 -12.553   4.015  0.00  0.00    +0.018 I 
ENDBRANCH  11  12
ENDBRANCH  10  11
ENDBRANCH   6  10
TORSDOF 3
ENDMDL
MODEL 7
REMARK VINA RESULT:      -3.0      4.325      6.626
REMARK  Name = *****
REMARK                            x       y       z     vdW  Elec       q    Type
REMARK                         _______ _______ _______ _____ _____    ______ ____
ROOT
ATOM      1 CL   LIG    1       28.931 -13.282   3.636  0.00  0.00    -0.082 Cl
ATOM      2  C   LIG    1       27.280 -13.785   3.661  0.00  0.00    +0.061 A 
ATOM      3  C   LIG    1       26.902 -15.112   3.889  0.00  0.00    +0.063 A 
ATOM      4 CL   LIG    1       28.060 -16.366   4.167  0.00  0.00    -0.082 Cl
ATOM      5  C   LIG    1       25.547 -15.469   3.899  0.00  0.00    +0.068 A 
ATOM      6  C   LIG    1       24.557 -14.503   3.688  0.00  0.00    +0.142 A 
ATOM      7  C   LIG    1       24.949 -13.173   3.461  0.00  0.00    +0.084 A 
ATOM      8 CL   LIG    1       23.783 -11.924   3.193  0.00  0.00    -0.080 Cl
ATOM      9  C   LIG    1       26.300 -12.815   3.447  0.00  0.00    +0.045 A 
ENDROOT
BRANCH   6  10
ATOM     10  O   LIG    1       23.210 -14.759   3.688  0.00  0.00    -0.478 OA
BRANCH  10  11
ATOM     11  C   LIG    1       22.627 -15.282   4.879  0.00  0.00    +0.318 C 
BRANCH  11  12
ATOM     12  C   LIG    1       22.519 -16.740   4.765  0.00  0.00    -0.050 C 
ATOM     13  C   LIG    1       22.453 -17.936   4.684  0.00  0.00    -0.027 C 
ATOM     14  I   LIG    1       22.361 -20.006   4.559  0.00  0.00    +0.018 I 
ENDBRANCH  11  12
ENDBRANCH  10  11
ENDBRANCH   6  10
TORSDOF 3
ENDMDL
MODEL 8
REMARK VINA RESULT:      -2.6      1.788      1.946
REMARK  Name = *****
REMARK                            x       y       z     vdW  Elec       q    Type
REMARK                         _______ _______ _______ _____ _____    ______ ____
ROOT
ATOM      1 CL   LIG    1       25.507 -21.569   6.954  0.00  0.00    -0.082 Cl
ATOM      2  C   LIG    1       25.693 -20.357   5.737  0.00  0.00    +0.061 A 
ATOM      3  C   LIG    1       24.665 -20.018   4.852  0.00  0.00    +0.063 A 
ATOM      4 CL   LIG    1       23.115 -20.782   4.901  0.00  0.00    -0.082 Cl
ATOM      5  C   LIG    1       24.868 -19.028   3.882  0.00  0.00    +0.068 A 
ATOM      6  C   LIG    1       26.095 -18.363   3.790  0.00  0.00    +0.142 A 
ATOM      7  C   LIG    1       27.120 -18.713   4.686  0.00  0.00    +0.084 A 
ATOM      8 CL   LIG    1       28.664 -17.935   4.635  0.00  0.00    -0.080 Cl
ATOM      9  C   LIG    1       26.922 -19.703   5.653  0.00  0.00    +0.045 A 
ENDROOT
BRANCH   6  10
ATOM     10  O   LIG    1       26.379 -17.378   2.880  0.00  0.00    -0.478 OA
BRANCH  10  11
ATOM     11  C   LIG    1       25.683 -16.140   2.993  0.00  0.00    +0.318 C 
BRANCH  11  12
ATOM     12  C   LIG    1       26.633 -15.081   3.347  0.00  0.00    -0.050 C 
ATOM     13  C   LIG    1       27.404 -14.200   3.616  0.00  0.00    -0.027 C 
ATOM     14  I   LIG    1       28.729 -12.665   4.058  0.00  0.00    +0.018 I 
ENDBRANCH  11  12
ENDBRANCH  10  11
ENDBRANCH   6  10
TORSDOF 3
ENDMDL
MODEL 9
REMARK VINA RESULT:      -2.5      4.800      6.311
REMARK  Name = *****
REMARK                            x       y       z     vdW  Elec       q    Type
REMARK                         _______ _______ _______ _____ _____    ______ ____
ROOT
ATOM      1 CL   LIG    1       23.679 -11.721   3.216  0.00  0.00    -0.082 Cl
ATOM      2  C   LIG    1       24.844 -12.959   3.518  0.00  0.00    +0.061 A 
ATOM      3  C   LIG    1       24.482 -14.247   3.925  0.00  0.00    +0.063 A 
ATOM      4 CL   LIG    1       22.833 -14.712   4.160  0.00  0.00    -0.082 Cl
ATOM      5  C   LIG    1       25.467 -15.216   4.158  0.00  0.00    +0.068 A 
ATOM      6  C   LIG    1       26.820 -14.911   3.981  0.00  0.00    +0.142 A 
ATOM      7  C   LIG    1       27.171 -13.613   3.570  0.00  0.00    +0.084 A 
ATOM      8 CL   LIG    1       28.823 -13.161   3.330  0.00  0.00    -0.080 Cl
ATOM      9  C   LIG    1       26.191 -12.643   3.341  0.00  0.00    +0.045 A 
ENDROOT
BRANCH   6  10
ATOM     10  O   LIG    1       27.849 -15.795   4.177  0.00  0.00    -0.478 OA
BRANCH  10  11
ATOM     11  C   LIG    1       27.648 -17.153   3.793  0.00  0.00    +0.318 C 
BRANCH  11  12
ATOM     12  C   LIG    1       28.200 -18.036   4.825  0.00  0.00    -0.050 C 
ATOM     13  C   LIG    1       28.663 -18.773   5.652  0.00  0.00    -0.027 C 
ATOM     14  I   LIG    1       29.475 -20.062   7.062  0.00  0.00    +0.018 I 
ENDBRANCH  11  12
ENDBRANCH  10  11
ENDBRANCH   6  10
TORSDOF 3
ENDMDL
