MODEL 1
REMARK VINA RESULT:       3.5      0.000      0.000
REMARK  Name = *****
REMARK                            x       y       z     vdW  Elec       q    Type
REMARK                         _______ _______ _______ _____ _____    ______ ____
ROOT
ATOM      1  N   LIG    1       23.873 -11.944   4.994  0.00  0.00    -0.295 NA
ATOM      2  C   LIG    1       24.192 -13.254   5.596  0.00  0.00    +0.069 C 
ATOM      3  C   LIG    1       25.640 -13.705   5.204  0.00  0.00    +0.043 C 
ATOM      4  C   LIG    1       25.562 -14.065   3.715  0.00  0.00    +0.048 C 
ATOM      5  C   LIG    1       26.867 -14.534   3.031  0.00  0.00    +0.217 C 
ATOM      6  O   LIG    1       26.819 -15.993   2.822  0.00  0.00    -0.481 OA
ATOM      7  C   LIG    1       25.564 -16.375   3.213  0.00  0.00    +0.166 A 
ATOM      8  C   LIG    1       25.066 -17.658   3.235  0.00  0.00    +0.159 A 
ATOM      9  C   LIG    1       23.827 -17.896   3.834  0.00  0.00    +0.049 A 
ATOM     10  C   LIG    1       23.131 -16.850   4.472  0.00  0.00    +0.008 A 
ATOM     11  C   LIG    1       23.664 -15.561   4.473  0.00  0.00    -0.038 A 
ATOM     12  C   LIG    1       28.151 -14.122   3.802  0.00  0.00    +0.178 C 
ATOM     13  C   LIG    1       27.970 -13.015   4.813  0.00  0.00    +0.004 C 
ATOM     14  C   LIG    1       24.826 -15.351   3.747  0.00  0.00    +0.012 A 
ATOM     15  C   LIG    1       24.793 -13.007   2.878  0.00  0.00    +0.031 C 
ATOM     16  C   LIG    1       26.809 -12.791   5.452  0.00  0.00    -0.023 C 
ATOM     17  C   LIG    1       23.136 -14.412   5.296  0.00  0.00    +0.055 C 
ATOM     18  C   LIG    1       24.428 -11.734   3.655  0.00  0.00    +0.086 C 
ENDROOT
BRANCH   8  19
ATOM     19  O   LIG    1       25.774 -18.701   2.721  0.00  0.00    -0.503 OA
ATOM     20  H   LIG    1       25.766 -18.575   1.753  0.00  0.00    +0.292 HD
ENDBRANCH   8  19
BRANCH  12  21
ATOM     21  O   LIG    1       29.138 -13.673   2.867  0.00  0.00    -0.384 OA
ATOM     22  H   LIG    1       28.999 -12.721   2.727  0.00  0.00    +0.210 HD
ENDBRANCH  12  21
BRANCH   1  23
ATOM     23  C   LIG    1       22.501 -11.453   5.121  0.00  0.00    +0.111 C 
BRANCH  23  25
ATOM     24  C   LIG    1       20.682 -11.484   6.857  0.00  0.00    +0.005 C 
ATOM     25  C   LIG    1       21.980 -11.447   6.533  0.00  0.00    -0.019 C 
ENDBRANCH  23  25
ENDBRANCH   1  23
TORSDOF 4
ENDMDL
MODEL 2
REMARK VINA RESULT:       3.8      1.797      2.413
REMARK  Name = *****
REMARK                            x       y       z     vdW  Elec       q    Type
REMARK                         _______ _______ _______ _____ _____    ______ ____
ROOT
ATOM      1  N   LIG    1       25.264 -13.109   3.432  0.00  0.00    -0.295 NA
ATOM      2  C   LIG    1       24.775 -14.033   4.474  0.00  0.00    +0.069 C 
ATOM      3  C   LIG    1       25.848 -15.132   4.786  0.00  0.00    +0.043 C 
ATOM      4  C   LIG    1       25.865 -16.044   3.553  0.00  0.00    +0.048 C 
ATOM      5  C   LIG    1       26.858 -17.228   3.563  0.00  0.00    +0.217 C 
ATOM      6  O   LIG    1       26.126 -18.486   3.801  0.00  0.00    -0.481 OA
ATOM      7  C   LIG    1       24.801 -18.139   3.807  0.00  0.00    +0.166 A 
ATOM      8  C   LIG    1       23.735 -18.979   4.033  0.00  0.00    +0.159 A 
ATOM      9  C   LIG    1       22.459 -18.431   4.186  0.00  0.00    +0.049 A 
ATOM     10  C   LIG    1       22.278 -17.034   4.183  0.00  0.00    +0.008 A 
ATOM     11  C   LIG    1       23.374 -16.193   3.988  0.00  0.00    -0.038 A 
ATOM     12  C   LIG    1       28.017 -17.055   4.583  0.00  0.00    +0.178 C 
ATOM     13  C   LIG    1       28.237 -15.644   5.076  0.00  0.00    +0.004 C 
ATOM     14  C   LIG    1       24.592 -16.789   3.704  0.00  0.00    +0.012 A 
ATOM     15  C   LIG    1       25.888 -15.251   2.218  0.00  0.00    +0.031 C 
ATOM     16  C   LIG    1       27.251 -14.734   5.152  0.00  0.00    -0.023 C 
ATOM     17  C   LIG    1       23.354 -14.696   4.176  0.00  0.00    +0.055 C 
ATOM     18  C   LIG    1       26.076 -13.737   2.388  0.00  0.00    +0.086 C 
ENDROOT
BRANCH   8  19
ATOM     19  O   LIG    1       23.905 -20.324   4.151  0.00  0.00    -0.503 OA
ATOM     20  H   LIG    1       23.025 -20.717   3.999  0.00  0.00    +0.292 HD
ENDBRANCH   8  19
BRANCH  12  21
ATOM     21  O   LIG    1       29.243 -17.480   3.978  0.00  0.00    -0.384 OA
ATOM     22  H   LIG    1       29.924 -16.823   4.202  0.00  0.00    +0.210 HD
ENDBRANCH  12  21
BRANCH   1  23
ATOM     23  C   LIG    1       24.323 -12.123   2.900  0.00  0.00    +0.111 C 
BRANCH  23  25
ATOM     24  C   LIG    1       23.774 -11.447   5.259  0.00  0.00    +0.005 C 
ATOM     25  C   LIG    1       23.485 -11.447   3.952  0.00  0.00    -0.019 C 
ENDBRANCH  23  25
ENDBRANCH   1  23
TORSDOF 4
ENDMDL
MODEL 3
REMARK VINA RESULT:       5.6      3.362      6.066
REMARK  Name = *****
REMARK                            x       y       z     vdW  Elec       q    Type
REMARK                         _______ _______ _______ _____ _____    ______ ____
ROOT
ATOM      1  N   LIG    1       25.238 -16.288   3.028  0.00  0.00    -0.295 NA
ATOM      2  C   LIG    1       26.304 -17.296   2.865  0.00  0.00    +0.069 C 
ATOM      3  C   LIG    1       25.737 -18.740   3.083  0.00  0.00    +0.043 C 
ATOM      4  C   LIG    1       25.449 -18.840   4.586  0.00  0.00    +0.048 C 
ATOM      5  C   LIG    1       24.852 -20.168   5.105  0.00  0.00    +0.217 C 
ATOM      6  O   LIG    1       25.894 -20.935   5.813  0.00  0.00    -0.481 OA
ATOM      7  C   LIG    1       26.989 -20.114   5.848  0.00  0.00    +0.166 A 
ATOM      8  C   LIG    1       28.224 -20.415   6.376  0.00  0.00    +0.159 A 
ATOM      9  C   LIG    1       29.286 -19.533   6.167  0.00  0.00    +0.049 A 
ATOM     10  C   LIG    1       29.114 -18.388   5.362  0.00  0.00    +0.008 A 
ATOM     11  C   LIG    1       27.866 -18.114   4.804  0.00  0.00    -0.038 A 
ATOM     12  C   LIG    1       24.188 -21.024   3.992  0.00  0.00    +0.178 C 
ATOM     13  C   LIG    1       23.854 -20.282   2.720  0.00  0.00    +0.004 C 
ATOM     14  C   LIG    1       26.814 -18.945   5.155  0.00  0.00    +0.012 A 
ATOM     15  C   LIG    1       24.710 -17.592   5.142  0.00  0.00    +0.031 C 
ATOM     16  C   LIG    1       24.543 -19.209   2.297  0.00  0.00    -0.023 C 
ATOM     17  C   LIG    1       27.603 -17.056   3.761  0.00  0.00    +0.055 C 
ATOM     18  C   LIG    1       24.252 -16.600   4.065  0.00  0.00    +0.086 C 
ENDROOT
BRANCH   8  19
ATOM     19  O   LIG    1       28.438 -21.571   7.062  0.00  0.00    -0.503 OA
ATOM     20  H   LIG    1       28.178 -21.384   7.984  0.00  0.00    +0.292 HD
ENDBRANCH   8  19
BRANCH  12  21
ATOM     21  O   LIG    1       22.961 -21.572   4.488  0.00  0.00    -0.384 OA
ATOM     22  H   LIG    1       23.093 -22.527   4.610  0.00  0.00    +0.210 HD
ENDBRANCH  12  21
BRANCH   1  23
ATOM     23  C   LIG    1       25.628 -14.878   3.023  0.00  0.00    +0.111 C 
BRANCH  23  25
ATOM     24  C   LIG    1       26.056 -13.440   5.041  0.00  0.00    +0.005 C 
ATOM     25  C   LIG    1       25.213 -14.124   4.259  0.00  0.00    -0.019 C 
ENDBRANCH  23  25
ENDBRANCH   1  23
TORSDOF 4
ENDMDL
MODEL 4
REMARK VINA RESULT:       5.8      2.865      4.932
REMARK  Name = *****
REMARK                            x       y       z     vdW  Elec       q    Type
REMARK                         _______ _______ _______ _____ _____    ______ ____
ROOT
ATOM      1  N   LIG    1       27.957 -15.316   3.983  0.00  0.00    -0.295 NA
ATOM      2  C   LIG    1       26.983 -15.974   3.090  0.00  0.00    +0.069 C 
ATOM      3  C   LIG    1       25.804 -15.001   2.746  0.00  0.00    +0.043 C 
ATOM      4  C   LIG    1       24.993 -14.876   4.042  0.00  0.00    +0.048 C 
ATOM      5  C   LIG    1       23.756 -13.949   4.016  0.00  0.00    +0.217 C 
ATOM      6  O   LIG    1       22.527 -14.763   3.974  0.00  0.00    -0.481 OA
ATOM      7  C   LIG    1       22.948 -16.060   4.096  0.00  0.00    +0.166 A 
ATOM      8  C   LIG    1       22.155 -17.185   4.071  0.00  0.00    +0.159 A 
ATOM      9  C   LIG    1       22.762 -18.443   4.025  0.00  0.00    +0.049 A 
ATOM     10  C   LIG    1       24.164 -18.555   3.930  0.00  0.00    +0.008 A 
ATOM     11  C   LIG    1       24.952 -17.405   3.922  0.00  0.00    -0.038 A 
ATOM     12  C   LIG    1       23.782 -12.917   2.854  0.00  0.00    +0.178 C 
ATOM     13  C   LIG    1       25.134 -12.693   2.220  0.00  0.00    +0.004 C 
ATOM     14  C   LIG    1       24.312 -16.191   4.108  0.00  0.00    +0.012 A 
ATOM     15  C   LIG    1       25.885 -14.650   5.293  0.00  0.00    +0.031 C 
ATOM     16  C   LIG    1       26.090 -13.636   2.184  0.00  0.00    -0.023 C 
ATOM     17  C   LIG    1       26.429 -17.377   3.610  0.00  0.00    +0.055 C 
ATOM     18  C   LIG    1       27.368 -14.412   4.973  0.00  0.00    +0.086 C 
ENDROOT
BRANCH   8  19
ATOM     19  O   LIG    1       20.798 -17.095   4.049  0.00  0.00    -0.503 OA
ATOM     20  H   LIG    1       20.497 -17.421   4.918  0.00  0.00    +0.292 HD
ENDBRANCH   8  19
BRANCH  12  21
ATOM     21  O   LIG    1       23.336 -11.647   3.342  0.00  0.00    -0.384 OA
ATOM     22  H   LIG    1       24.097 -11.209   3.759  0.00  0.00    +0.210 HD
ENDBRANCH  12  21
BRANCH   1  23
ATOM     23  C   LIG    1       29.035 -16.136   4.537  0.00  0.00    +0.111 C 
BRANCH  23  25
ATOM     24  C   LIG    1       29.338 -18.386   5.618  0.00  0.00    +0.005 C 
ATOM     25  C   LIG    1       28.629 -17.553   4.847  0.00  0.00    -0.019 C 
ENDBRANCH  23  25
ENDBRANCH   1  23
TORSDOF 4
ENDMDL
