MODEL 1
REMARK VINA RESULT:      -9.1      0.000      0.000
REMARK  Name = *****
REMARK                            x       y       z     vdW  Elec       q    Type
REMARK                         _______ _______ _______ _____ _____    ______ ____
ROOT
ATOM      1  C   LIG    1       24.798 -33.658   5.909  0.00  0.00    +0.016 C 
ATOM      2  C   LIG    1       26.068 -32.871   6.300  0.00  0.00    -0.009 C 
ATOM      3  C   LIG    1       25.694 -31.388   6.428  0.00  0.00    -0.038 A 
ATOM      4  C   LIG    1       25.502 -30.772   7.686  0.00  0.00    -0.036 A 
ATOM      5  C   LIG    1       25.168 -29.400   7.725  0.00  0.00    +0.027 A 
ATOM      6  C   LIG    1       25.000 -28.637   6.570  0.00  0.00    +0.034 A 
ATOM      7  C   LIG    1       25.132 -29.262   5.335  0.00  0.00    +0.023 A 
ATOM      8  C   LIG    1       25.713 -31.510   9.016  0.00  0.00    -0.009 C 
ATOM      9  C   LIG    1       27.027 -30.994   9.646  0.00  0.00    +0.016 C 
ATOM     10  C   LIG    1       24.559 -31.252  10.014  0.00  0.00    +0.016 C 
ATOM     11  C   LIG    1       25.790 -33.038   8.820  0.00  0.00    +0.012 C 
ATOM     12  C   LIG    1       25.482 -30.615   5.267  0.00  0.00    +0.006 A 
ATOM     13  C   LIG    1       26.648 -33.417   7.625  0.00  0.00    +0.012 C 
ATOM     14  C   LIG    1       27.144 -33.122   5.218  0.00  0.00    +0.016 C 
ENDROOT
BRANCH   6  15
ATOM     15  N   LIG    1       24.692 -27.260   6.597  0.00  0.00    -0.281 N 
ATOM     16  H   LIG    1       23.709 -27.028   6.652  0.00  0.00    +0.155 HD
ATOM     17  C   LIG    1       25.586 -26.228   6.359  0.00  0.00    +0.248 C 
ATOM     18  O   LIG    1       26.752 -26.340   5.998  0.00  0.00    -0.270 OA
BRANCH  17  19
ATOM     19  C   LIG    1       25.029 -24.853   6.479  0.00  0.00    +0.037 A 
ATOM     20  C   LIG    1       25.848 -23.719   6.523  0.00  0.00    +0.014 A 
ATOM     21  C   LIG    1       25.271 -22.449   6.641  0.00  0.00    +0.015 A 
ATOM     22  C   LIG    1       23.877 -22.308   6.708  0.00  0.00    +0.059 A 
ATOM     23  C   LIG    1       23.057 -23.437   6.608  0.00  0.00    +0.015 A 
ATOM     24  C   LIG    1       23.634 -24.705   6.501  0.00  0.00    +0.014 A 
BRANCH  22  25
ATOM     25  C   LIG    1       23.318 -20.938   6.839  0.00  0.00    +0.337 C 
ATOM     26  O   LIG    1       22.694 -20.393   5.948  0.00  0.00    -0.245 OA
BRANCH  25  27
ATOM     27  O   LIG    1       23.620 -20.336   8.009  0.00  0.00    -0.477 OA
ATOM     28  H   LIG    1       23.863 -19.396   7.948  0.00  0.00    +0.295 HD
ENDBRANCH  25  27
ENDBRANCH  22  25
ENDBRANCH  17  19
ENDBRANCH   6  15
TORSDOF 4
ENDMDL
MODEL 2
REMARK VINA RESULT:      -8.0      1.317      1.769
REMARK  Name = *****
REMARK                            x       y       z     vdW  Elec       q    Type
REMARK                         _______ _______ _______ _____ _____    ______ ____
ROOT
ATOM      1  C   LIG    1       24.007 -33.323   4.974  0.00  0.00    +0.016 C 
ATOM      2  C   LIG    1       25.273 -32.974   5.787  0.00  0.00    -0.009 C 
ATOM      3  C   LIG    1       25.239 -31.474   6.109  0.00  0.00    -0.038 A 
ATOM      4  C   LIG    1       24.866 -30.992   7.386  0.00  0.00    -0.036 A 
ATOM      5  C   LIG    1       24.867 -29.598   7.610  0.00  0.00    +0.027 A 
ATOM      6  C   LIG    1       25.201 -28.679   6.617  0.00  0.00    +0.034 A 
ATOM      7  C   LIG    1       25.511 -29.156   5.348  0.00  0.00    +0.023 A 
ATOM      8  C   LIG    1       24.530 -31.921   8.561  0.00  0.00    -0.009 C 
ATOM      9  C   LIG    1       25.709 -31.874   9.560  0.00  0.00    +0.016 C 
ATOM     10  C   LIG    1       23.244 -31.482   9.301  0.00  0.00    +0.016 C 
ATOM     11  C   LIG    1       24.295 -33.374   8.098  0.00  0.00    +0.012 C 
ATOM     12  C   LIG    1       25.537 -30.533   5.102  0.00  0.00    +0.006 A 
ATOM     13  C   LIG    1       25.329 -33.822   7.078  0.00  0.00    +0.012 C 
ATOM     14  C   LIG    1       26.511 -33.375   4.950  0.00  0.00    +0.016 C 
ENDROOT
BRANCH   6  15
ATOM     15  N   LIG    1       25.231 -27.286   6.837  0.00  0.00    -0.281 N 
ATOM     16  H   LIG    1       25.747 -26.977   7.650  0.00  0.00    +0.155 HD
ATOM     17  C   LIG    1       24.467 -26.345   6.165  0.00  0.00    +0.248 C 
ATOM     18  O   LIG    1       23.583 -26.572   5.346  0.00  0.00    -0.270 OA
BRANCH  17  19
ATOM     19  C   LIG    1       24.702 -24.928   6.552  0.00  0.00    +0.037 A 
ATOM     20  C   LIG    1       23.667 -23.987   6.601  0.00  0.00    +0.014 A 
ATOM     21  C   LIG    1       23.946 -22.665   6.968  0.00  0.00    +0.015 A 
ATOM     22  C   LIG    1       25.255 -22.281   7.293  0.00  0.00    +0.059 A 
ATOM     23  C   LIG    1       26.280 -23.233   7.296  0.00  0.00    +0.015 A 
ATOM     24  C   LIG    1       26.003 -24.550   6.920  0.00  0.00    +0.014 A 
BRANCH  22  25
ATOM     25  C   LIG    1       25.496 -20.865   7.669  0.00  0.00    +0.337 C 
ATOM     26  O   LIG    1       25.286 -20.435   8.787  0.00  0.00    -0.245 OA
BRANCH  25  27
ATOM     27  O   LIG    1       25.909 -20.091   6.642  0.00  0.00    -0.477 OA
ATOM     28  H   LIG    1       26.831 -20.220   6.362  0.00  0.00    +0.295 HD
ENDBRANCH  25  27
ENDBRANCH  22  25
ENDBRANCH  17  19
ENDBRANCH   6  15
TORSDOF 4
ENDMDL
MODEL 3
REMARK VINA RESULT:      -7.5      2.648      9.222
REMARK  Name = *****
REMARK                            x       y       z     vdW  Elec       q    Type
REMARK                         _______ _______ _______ _____ _____    ______ ____
ROOT
ATOM      1  C   LIG    1       24.505 -21.191   3.971  0.00  0.00    +0.016 C 
ATOM      2  C   LIG    1       24.008 -21.407   5.418  0.00  0.00    -0.009 C 
ATOM      3  C   LIG    1       24.463 -22.797   5.880  0.00  0.00    -0.038 A 
ATOM      4  C   LIG    1       25.571 -22.973   6.741  0.00  0.00    -0.036 A 
ATOM      5  C   LIG    1       25.924 -24.284   7.131  0.00  0.00    +0.027 A 
ATOM      6  C   LIG    1       25.236 -25.410   6.683  0.00  0.00    +0.034 A 
ATOM      7  C   LIG    1       24.184 -25.235   5.791  0.00  0.00    +0.023 A 
ATOM      8  C   LIG    1       26.362 -21.798   7.331  0.00  0.00    -0.009 C 
ATOM      9  C   LIG    1       25.993 -21.674   8.827  0.00  0.00    +0.016 C 
ATOM     10  C   LIG    1       27.891 -22.011   7.221  0.00  0.00    +0.016 C 
ATOM     11  C   LIG    1       26.051 -20.473   6.605  0.00  0.00    +0.012 C 
ATOM     12  C   LIG    1       23.799 -23.947   5.403  0.00  0.00    +0.006 A 
ATOM     13  C   LIG    1       24.564 -20.300   6.343  0.00  0.00    +0.012 C 
ATOM     14  C   LIG    1       22.469 -21.249   5.428  0.00  0.00    +0.016 C 
ENDROOT
BRANCH   6  15
ATOM     15  N   LIG    1       25.563 -26.722   7.087  0.00  0.00    -0.281 N 
ATOM     16  H   LIG    1       26.430 -26.824   7.598  0.00  0.00    +0.155 HD
ATOM     17  C   LIG    1       24.916 -27.878   6.679  0.00  0.00    +0.248 C 
ATOM     18  O   LIG    1       24.026 -27.960   5.840  0.00  0.00    -0.270 OA
BRANCH  17  19
ATOM     19  C   LIG    1       25.425 -29.145   7.272  0.00  0.00    +0.037 A 
ATOM     20  C   LIG    1       25.417 -30.353   6.566  0.00  0.00    +0.014 A 
ATOM     21  C   LIG    1       25.905 -31.516   7.174  0.00  0.00    +0.015 A 
ATOM     22  C   LIG    1       26.406 -31.474   8.483  0.00  0.00    +0.059 A 
ATOM     23  C   LIG    1       26.464 -30.257   9.168  0.00  0.00    +0.015 A 
ATOM     24  C   LIG    1       25.968 -29.098   8.565  0.00  0.00    +0.014 A 
BRANCH  22  25
ATOM     25  C   LIG    1       26.905 -32.739   9.082  0.00  0.00    +0.337 C 
ATOM     26  O   LIG    1       27.719 -33.453   8.530  0.00  0.00    -0.245 OA
BRANCH  25  27
ATOM     27  O   LIG    1       26.324 -33.050  10.261  0.00  0.00    -0.477 OA
ATOM     28  H   LIG    1       25.451 -33.475  10.201  0.00  0.00    +0.295 HD
ENDBRANCH  25  27
ENDBRANCH  22  25
ENDBRANCH  17  19
ENDBRANCH   6  15
TORSDOF 4
ENDMDL
MODEL 4
REMARK VINA RESULT:      -7.4      0.886      2.664
REMARK  Name = *****
REMARK                            x       y       z     vdW  Elec       q    Type
REMARK                         _______ _______ _______ _____ _____    ______ ____
ROOT
ATOM      1  C   LIG    1       27.987 -32.919   8.210  0.00  0.00    +0.016 C 
ATOM      2  C   LIG    1       26.451 -32.824   8.340  0.00  0.00    -0.009 C 
ATOM      3  C   LIG    1       26.030 -31.382   8.029  0.00  0.00    -0.038 A 
ATOM      4  C   LIG    1       25.470 -31.019   6.782  0.00  0.00    -0.036 A 
ATOM      5  C   LIG    1       25.098 -29.672   6.573  0.00  0.00    +0.027 A 
ATOM      6  C   LIG    1       25.282 -28.685   7.539  0.00  0.00    +0.034 A 
ATOM      7  C   LIG    1       25.887 -29.036   8.741  0.00  0.00    +0.023 A 
ATOM      8  C   LIG    1       25.179 -32.038   5.672  0.00  0.00    -0.009 C 
ATOM      9  C   LIG    1       23.649 -32.253   5.608  0.00  0.00    +0.016 C 
ATOM     10  C   LIG    1       25.660 -31.543   4.287  0.00  0.00    +0.016 C 
ATOM     11  C   LIG    1       25.886 -33.385   5.927  0.00  0.00    +0.012 C 
ATOM     12  C   LIG    1       26.247 -30.366   8.984  0.00  0.00    +0.006 A 
ATOM     13  C   LIG    1       25.771 -33.824   7.377  0.00  0.00    +0.012 C 
ATOM     14  C   LIG    1       26.059 -33.263   9.771  0.00  0.00    +0.016 C 
ENDROOT
BRANCH   6  15
ATOM     15  N   LIG    1       24.891 -27.342   7.351  0.00  0.00    -0.281 N 
ATOM     16  H   LIG    1       23.949 -27.112   7.636  0.00  0.00    +0.155 HD
ATOM     17  C   LIG    1       25.601 -26.387   6.642  0.00  0.00    +0.248 C 
ATOM     18  O   LIG    1       26.624 -26.569   5.992  0.00  0.00    -0.270 OA
BRANCH  17  19
ATOM     19  C   LIG    1       24.999 -25.026   6.613  0.00  0.00    +0.037 A 
ATOM     20  C   LIG    1       23.614 -24.824   6.573  0.00  0.00    +0.014 A 
ATOM     21  C   LIG    1       23.102 -23.522   6.543  0.00  0.00    +0.015 A 
ATOM     22  C   LIG    1       23.968 -22.420   6.560  0.00  0.00    +0.059 A 
ATOM     23  C   LIG    1       25.349 -22.620   6.655  0.00  0.00    +0.015 A 
ATOM     24  C   LIG    1       25.861 -23.920   6.675  0.00  0.00    +0.014 A 
BRANCH  22  25
ATOM     25  C   LIG    1       23.371 -21.060   6.520  0.00  0.00    +0.337 C 
ATOM     26  O   LIG    1       22.825 -20.609   5.532  0.00  0.00    -0.245 OA
BRANCH  25  27
ATOM     27  O   LIG    1       23.548 -20.354   7.658  0.00  0.00    -0.477 OA
ATOM     28  H   LIG    1       23.197 -20.765   8.466  0.00  0.00    +0.295 HD
ENDBRANCH  25  27
ENDBRANCH  22  25
ENDBRANCH  17  19
ENDBRANCH   6  15
TORSDOF 4
ENDMDL
MODEL 5
REMARK VINA RESULT:      -7.0      3.043      9.336
REMARK  Name = *****
REMARK                            x       y       z     vdW  Elec       q    Type
REMARK                         _______ _______ _______ _____ _____    ______ ____
ROOT
ATOM      1  C   LIG    1       25.698 -20.330   8.181  0.00  0.00    +0.016 C 
ATOM      2  C   LIG    1       26.085 -20.804   6.762  0.00  0.00    -0.009 C 
ATOM      3  C   LIG    1       25.724 -22.290   6.636  0.00  0.00    -0.038 A 
ATOM      4  C   LIG    1       24.566 -22.722   5.948  0.00  0.00    -0.036 A 
ATOM      5  C   LIG    1       24.304 -24.108   5.866  0.00  0.00    +0.027 A 
ATOM      6  C   LIG    1       25.131 -25.063   6.455  0.00  0.00    +0.034 A 
ATOM      7  C   LIG    1       26.235 -24.629   7.180  0.00  0.00    +0.023 A 
ATOM      8  C   LIG    1       23.620 -21.756   5.222  0.00  0.00    -0.009 C 
ATOM      9  C   LIG    1       23.844 -21.919   3.701  0.00  0.00    +0.016 C 
ATOM     10  C   LIG    1       22.133 -22.054   5.531  0.00  0.00    +0.016 C 
ATOM     11  C   LIG    1       23.868 -20.290   5.632  0.00  0.00    +0.012 C 
ATOM     12  C   LIG    1       26.531 -23.264   7.261  0.00  0.00    +0.006 A 
ATOM     13  C   LIG    1       25.350 -19.958   5.698  0.00  0.00    +0.012 C 
ATOM     14  C   LIG    1       27.596 -20.540   6.560  0.00  0.00    +0.016 C 
ENDROOT
BRANCH   6  15
ATOM     15  N   LIG    1       24.894 -26.450   6.358  0.00  0.00    -0.281 N 
ATOM     16  H   LIG    1       24.248 -26.837   7.033  0.00  0.00    +0.155 HD
ATOM     17  C   LIG    1       25.604 -27.337   5.565  0.00  0.00    +0.248 C 
ATOM     18  O   LIG    1       26.602 -27.085   4.898  0.00  0.00    -0.270 OA
BRANCH  17  19
ATOM     19  C   LIG    1       25.141 -28.751   5.606  0.00  0.00    +0.037 A 
ATOM     20  C   LIG    1       25.808 -29.774   4.921  0.00  0.00    +0.014 A 
ATOM     21  C   LIG    1       25.326 -31.086   4.991  0.00  0.00    +0.015 A 
ATOM     22  C   LIG    1       24.184 -31.382   5.749  0.00  0.00    +0.059 A 
ATOM     23  C   LIG    1       23.550 -30.370   6.477  0.00  0.00    +0.015 A 
ATOM     24  C   LIG    1       24.025 -29.058   6.399  0.00  0.00    +0.014 A 
BRANCH  22  25
ATOM     25  C   LIG    1       23.712 -32.790   5.783  0.00  0.00    +0.337 C 
ATOM     26  O   LIG    1       24.271 -33.656   6.428  0.00  0.00    -0.245 OA
BRANCH  25  27
ATOM     27  O   LIG    1       22.648 -33.028   4.986  0.00  0.00    -0.477 OA
ATOM     28  H   LIG    1       21.951 -32.350   5.002  0.00  0.00    +0.295 HD
ENDBRANCH  25  27
ENDBRANCH  22  25
ENDBRANCH  17  19
ENDBRANCH   6  15
TORSDOF 4
ENDMDL
MODEL 6
REMARK VINA RESULT:      -6.4      5.591      8.463
REMARK  Name = *****
REMARK                            x       y       z     vdW  Elec       q    Type
REMARK                         _______ _______ _______ _____ _____    ______ ____
ROOT
ATOM      1  C   LIG    1       22.479 -27.239  13.241  0.00  0.00    +0.016 C 
ATOM      2  C   LIG    1       23.261 -28.543  13.515  0.00  0.00    -0.009 C 
ATOM      3  C   LIG    1       23.770 -29.089  12.175  0.00  0.00    -0.038 A 
ATOM      4  C   LIG    1       25.114 -28.931  11.766  0.00  0.00    -0.036 A 
ATOM      5  C   LIG    1       25.511 -29.470  10.521  0.00  0.00    +0.027 A 
ATOM      6  C   LIG    1       24.624 -30.132   9.674  0.00  0.00    +0.034 A 
ATOM      7  C   LIG    1       23.291 -30.233  10.056  0.00  0.00    +0.023 A 
ATOM      8  C   LIG    1       26.180 -28.265  12.646  0.00  0.00    -0.009 C 
ATOM      9  C   LIG    1       27.114 -29.371  13.188  0.00  0.00    +0.016 C 
ATOM     10  C   LIG    1       27.037 -27.248  11.854  0.00  0.00    +0.016 C 
ATOM     11  C   LIG    1       25.552 -27.488  13.821  0.00  0.00    +0.012 C 
ATOM     12  C   LIG    1       22.874 -29.726  11.292  0.00  0.00    +0.006 A 
ATOM     13  C   LIG    1       24.432 -28.268  14.488  0.00  0.00    +0.012 C 
ATOM     14  C   LIG    1       22.316 -29.530  14.241  0.00  0.00    +0.016 C 
ENDROOT
BRANCH   6  15
ATOM     15  N   LIG    1       25.015 -30.697   8.442  0.00  0.00    -0.281 N 
ATOM     16  H   LIG    1       24.423 -30.484   7.650  0.00  0.00    +0.155 HD
ATOM     17  C   LIG    1       26.001 -31.655   8.269  0.00  0.00    +0.248 C 
ATOM     18  O   LIG    1       26.623 -32.232   9.154  0.00  0.00    -0.270 OA
BRANCH  17  19
ATOM     19  C   LIG    1       26.257 -32.071   6.863  0.00  0.00    +0.037 A 
ATOM     20  C   LIG    1       27.232 -33.018   6.531  0.00  0.00    +0.014 A 
ATOM     21  C   LIG    1       27.433 -33.369   5.192  0.00  0.00    +0.015 A 
ATOM     22  C   LIG    1       26.658 -32.781   4.182  0.00  0.00    +0.059 A 
ATOM     23  C   LIG    1       25.646 -31.876   4.517  0.00  0.00    +0.015 A 
ATOM     24  C   LIG    1       25.452 -31.518   5.854  0.00  0.00    +0.014 A 
BRANCH  22  25
ATOM     25  C   LIG    1       26.917 -33.185   2.776  0.00  0.00    +0.337 C 
ATOM     26  O   LIG    1       27.930 -33.765   2.433  0.00  0.00    -0.245 OA
BRANCH  25  27
ATOM     27  O   LIG    1       25.957 -32.795   1.910  0.00  0.00    -0.477 OA
ATOM     28  H   LIG    1       25.516 -33.510   1.420  0.00  0.00    +0.295 HD
ENDBRANCH  25  27
ENDBRANCH  22  25
ENDBRANCH  17  19
ENDBRANCH   6  15
TORSDOF 4
ENDMDL
