MODEL 1
REMARK VINA RESULT:      -5.2      0.000      0.000
REMARK  Name = *****
REMARK                            x       y       z     vdW  Elec       q    Type
REMARK                         _______ _______ _______ _____ _____    ______ ____
ROOT
ATOM      1  CA  VAL A  1       30.885 -20.262   8.885  0.00  0.00    +0.163 C 
ENDROOT
BRANCH   1   3
ATOM      2  CG1 VAL A  1       29.998 -18.682   7.066  0.00  0.00    +0.009 C 
ATOM      3  CB  VAL A  1       30.313 -20.133   7.450  0.00  0.00    +0.011 C 
ATOM      4  CG2 VAL A  1       29.049 -20.985   7.258  0.00  0.00    +0.009 C 
ENDBRANCH   1   3
BRANCH   1   5
ATOM      5  N   VAL A  1       32.028 -19.349   9.092  0.00  0.00    -0.318 NA
ATOM      6  H1  VAL A  1       32.697 -19.684   9.779  0.00  0.00    +0.119 HD
ATOM      7  H2  VAL A  1       32.444 -19.021   8.225  0.00  0.00    +0.119 HD
ENDBRANCH   1   5
BRANCH   1   8
ATOM      8  C   VAL A  1       31.262 -21.723   9.222  0.00  0.00    +0.322 C 
ATOM      9  O   VAL A  1       30.764 -22.374  10.131  0.00  0.00    -0.249 OA
BRANCH   8  10
ATOM     10  OXT VAL A  1       32.215 -22.241   8.415  0.00  0.00    -0.479 OA
ATOM     11  HXT VAL A  1       33.101 -22.054   8.770  0.00  0.00    +0.295 HD
ENDBRANCH   8  10
ENDBRANCH   1   8
TORSDOF 4
ENDMDL
MODEL 2
REMARK VINA RESULT:      -5.1      2.642      3.073
REMARK  Name = *****
REMARK                            x       y       z     vdW  Elec       q    Type
REMARK                         _______ _______ _______ _____ _____    ______ ____
ROOT
ATOM      1  CA  VAL A  1       31.293 -19.111   7.527  0.00  0.00    +0.163 C 
ENDROOT
BRANCH   1   3
ATOM      2  CG1 VAL A  1       28.855 -19.889   7.737  0.00  0.00    +0.009 C 
ATOM      3  CB  VAL A  1       29.802 -18.777   7.268  0.00  0.00    +0.011 C 
ATOM      4  CG2 VAL A  1       29.530 -18.486   5.784  0.00  0.00    +0.009 C 
ENDBRANCH   1   3
BRANCH   1   5
ATOM      5  N   VAL A  1       31.488 -20.559   7.748  0.00  0.00    -0.318 NA
ATOM      6  H1  VAL A  1       30.802 -20.971   8.373  0.00  0.00    +0.119 HD
ATOM      7  H2  VAL A  1       31.643 -21.080   6.890  0.00  0.00    +0.119 HD
ENDBRANCH   1   5
BRANCH   1   8
ATOM      8  C   VAL A  1       31.870 -18.280   8.696  0.00  0.00    +0.322 C 
ATOM      9  O   VAL A  1       31.945 -18.671   9.853  0.00  0.00    -0.249 OA
BRANCH   8  10
ATOM     10  OXT VAL A  1       32.295 -17.049   8.333  0.00  0.00    -0.479 OA
ATOM     11  HXT VAL A  1       33.264 -17.034   8.247  0.00  0.00    +0.295 HD
ENDBRANCH   8  10
ENDBRANCH   1   8
TORSDOF 4
ENDMDL
MODEL 3
REMARK VINA RESULT:      -4.9      2.938      3.620
REMARK  Name = *****
REMARK                            x       y       z     vdW  Elec       q    Type
REMARK                         _______ _______ _______ _____ _____    ______ ____
ROOT
ATOM      1  CA  VAL A  1       30.825 -18.890   8.887  0.00  0.00    +0.163 C 
ENDROOT
BRANCH   1   3
ATOM      2  CG1 VAL A  1       32.143 -16.717   9.256  0.00  0.00    +0.009 C 
ATOM      3  CB  VAL A  1       30.798 -17.435   9.422  0.00  0.00    +0.011 C 
ATOM      4  CG2 VAL A  1       30.381 -17.376  10.899  0.00  0.00    +0.009 C 
ENDBRANCH   1   3
BRANCH   1   5
ATOM      5  N   VAL A  1       31.982 -19.637   9.423  0.00  0.00    -0.318 NA
ATOM      6  H1  VAL A  1       31.863 -20.645   9.394  0.00  0.00    +0.119 HD
ATOM      7  H2  VAL A  1       32.875 -19.308   9.066  0.00  0.00    +0.119 HD
ENDBRANCH   1   5
BRANCH   1   8
ATOM      8  C   VAL A  1       30.793 -18.932   7.342  0.00  0.00    +0.322 C 
ATOM      9  O   VAL A  1       30.053 -18.248   6.647  0.00  0.00    -0.249 OA
BRANCH   8  10
ATOM     10  OXT VAL A  1       31.666 -19.811   6.801  0.00  0.00    -0.479 OA
ATOM     11  HXT VAL A  1       31.869 -19.568   5.881  0.00  0.00    +0.295 HD
ENDBRANCH   8  10
ENDBRANCH   1   8
TORSDOF 4
ENDMDL
MODEL 4
REMARK VINA RESULT:      -4.9      1.574      1.798
REMARK  Name = *****
REMARK                            x       y       z     vdW  Elec       q    Type
REMARK                         _______ _______ _______ _____ _____    ______ ____
ROOT
ATOM      1  CA  VAL A  1       30.220 -21.103   8.061  0.00  0.00    +0.163 C 
ENDROOT
BRANCH   1   3
ATOM      2  CG1 VAL A  1       30.248 -18.669   8.877  0.00  0.00    +0.009 C 
ATOM      3  CB  VAL A  1       30.757 -19.667   7.831  0.00  0.00    +0.011 C 
ATOM      4  CG2 VAL A  1       30.406 -19.142   6.430  0.00  0.00    +0.009 C 
ENDBRANCH   1   3
BRANCH   1   5
ATOM      5  N   VAL A  1       28.789 -21.088   8.429  0.00  0.00    -0.318 NA
ATOM      6  H1  VAL A  1       28.585 -20.521   9.247  0.00  0.00    +0.119 HD
ATOM      7  H2  VAL A  1       28.171 -20.924   7.639  0.00  0.00    +0.119 HD
ENDBRANCH   1   5
BRANCH   1   8
ATOM      8  C   VAL A  1       31.063 -21.868   9.108  0.00  0.00    +0.322 C 
ATOM      9  O   VAL A  1       30.730 -22.038  10.273  0.00  0.00    -0.249 OA
BRANCH   8  10
ATOM     10  OXT VAL A  1       32.232 -22.344   8.625  0.00  0.00    -0.479 OA
ATOM     11  HXT VAL A  1       32.646 -22.947   9.266  0.00  0.00    +0.295 HD
ENDBRANCH   8  10
ENDBRANCH   1   8
TORSDOF 4
ENDMDL
MODEL 5
REMARK VINA RESULT:      -4.8      7.012      7.939
REMARK  Name = *****
REMARK                            x       y       z     vdW  Elec       q    Type
REMARK                         _______ _______ _______ _____ _____    ______ ____
ROOT
ATOM      1  CA  VAL A  1       24.385 -22.994   6.336  0.00  0.00    +0.163 C 
ENDROOT
BRANCH   1   3
ATOM      2  CG1 VAL A  1       23.269 -20.693   6.116  0.00  0.00    +0.009 C 
ATOM      3  CB  VAL A  1       23.907 -21.714   7.066  0.00  0.00    +0.011 C 
ATOM      4  CG2 VAL A  1       25.049 -21.032   7.835  0.00  0.00    +0.009 C 
ENDBRANCH   1   3
BRANCH   1   5
ATOM      5  N   VAL A  1       24.640 -22.731   4.904  0.00  0.00    -0.318 NA
ATOM      6  H1  VAL A  1       24.602 -21.746   4.658  0.00  0.00    +0.119 HD
ATOM      7  H2  VAL A  1       25.451 -23.224   4.542  0.00  0.00    +0.119 HD
ENDBRANCH   1   5
BRANCH   1   8
ATOM      8  C   VAL A  1       23.394 -24.166   6.526  0.00  0.00    +0.322 C 
ATOM      9  O   VAL A  1       23.709 -25.348   6.506  0.00  0.00    -0.249 OA
BRANCH   8  10
ATOM     10  OXT VAL A  1       22.115 -23.773   6.717  0.00  0.00    -0.479 OA
ATOM     11  HXT VAL A  1       21.898 -23.024   6.136  0.00  0.00    +0.295 HD
ENDBRANCH   8  10
ENDBRANCH   1   8
TORSDOF 4
ENDMDL
MODEL 6
REMARK VINA RESULT:      -4.7      5.326      6.268
REMARK  Name = *****
REMARK                            x       y       z     vdW  Elec       q    Type
REMARK                         _______ _______ _______ _____ _____    ______ ____
ROOT
ATOM      1  CA  VAL A  1       25.324 -20.785   6.993  0.00  0.00    +0.163 C 
ENDROOT
BRANCH   1   3
ATOM      2  CG1 VAL A  1       23.364 -22.441   7.095  0.00  0.00    +0.009 C 
ATOM      3  CB  VAL A  1       23.790 -20.968   7.125  0.00  0.00    +0.011 C 
ATOM      4  CG2 VAL A  1       23.026 -20.206   6.032  0.00  0.00    +0.009 C 
ENDBRANCH   1   3
BRANCH   1   5
ATOM      5  N   VAL A  1       25.911 -21.807   6.102  0.00  0.00    -0.318 NA
ATOM      6  H1  VAL A  1       25.608 -22.754   6.314  0.00  0.00    +0.119 HD
ATOM      7  H2  VAL A  1       25.863 -21.561   5.118  0.00  0.00    +0.119 HD
ENDBRANCH   1   5
BRANCH   1   8
ATOM      8  C   VAL A  1       26.020 -20.773   8.373  0.00  0.00    +0.322 C 
ATOM      9  O   VAL A  1       25.534 -21.235   9.397  0.00  0.00    -0.249 OA
BRANCH   8  10
ATOM     10  OXT VAL A  1       27.240 -20.191   8.364  0.00  0.00    -0.479 OA
ATOM     11  HXT VAL A  1       27.271 -19.472   7.709  0.00  0.00    +0.295 HD
ENDBRANCH   8  10
ENDBRANCH   1   8
TORSDOF 4
ENDMDL
MODEL 7
REMARK VINA RESULT:      -4.6      2.277      2.807
REMARK  Name = *****
REMARK                            x       y       z     vdW  Elec       q    Type
REMARK                         _______ _______ _______ _____ _____    ______ ____
ROOT
ATOM      1  CA  VAL A  1       30.292 -20.270   7.725  0.00  0.00    +0.163 C 
ENDROOT
BRANCH   1   3
ATOM      2  CG1 VAL A  1       27.725 -20.327   7.754  0.00  0.00    +0.009 C 
ATOM      3  CB  VAL A  1       28.978 -19.543   7.343  0.00  0.00    +0.011 C 
ATOM      4  CG2 VAL A  1       28.905 -19.243   5.838  0.00  0.00    +0.009 C 
ENDBRANCH   1   3
BRANCH   1   5
ATOM      5  N   VAL A  1       30.042 -21.355   8.696  0.00  0.00    -0.318 NA
ATOM      6  H1  VAL A  1       30.837 -21.555   9.297  0.00  0.00    +0.119 HD
ATOM      7  H2  VAL A  1       29.158 -21.261   9.188  0.00  0.00    +0.119 HD
ENDBRANCH   1   5
BRANCH   1   8
ATOM      8  C   VAL A  1       31.362 -19.282   8.245  0.00  0.00    +0.322 C 
ATOM      9  O   VAL A  1       31.555 -18.165   7.783  0.00  0.00    -0.249 OA
BRANCH   8  10
ATOM     10  OXT VAL A  1       32.094 -19.763   9.275  0.00  0.00    -0.479 OA
ATOM     11  HXT VAL A  1       32.449 -19.033   9.810  0.00  0.00    +0.295 HD
ENDBRANCH   8  10
ENDBRANCH   1   8
TORSDOF 4
ENDMDL
MODEL 8
REMARK VINA RESULT:      -4.6      6.894      7.825
REMARK  Name = *****
REMARK                            x       y       z     vdW  Elec       q    Type
REMARK                         _______ _______ _______ _____ _____    ______ ____
ROOT
ATOM      1  CA  VAL A  1       23.245 -21.640   6.917  0.00  0.00    +0.163 C 
ENDROOT
BRANCH   1   3
ATOM      2  CG1 VAL A  1       24.971 -20.583   5.338  0.00  0.00    +0.009 C 
ATOM      3  CB  VAL A  1       23.500 -20.964   5.546  0.00  0.00    +0.011 C 
ATOM      4  CG2 VAL A  1       22.630 -19.713   5.352  0.00  0.00    +0.009 C 
ENDBRANCH   1   3
BRANCH   1   5
ATOM      5  N   VAL A  1       24.146 -21.100   7.957  0.00  0.00    -0.318 NA
ATOM      6  H1  VAL A  1       23.735 -21.090   8.886  0.00  0.00    +0.119 HD
ATOM      7  H2  VAL A  1       25.085 -21.486   7.917  0.00  0.00    +0.119 HD
ENDBRANCH   1   5
BRANCH   1   8
ATOM      8  C   VAL A  1       23.348 -23.180   6.825  0.00  0.00    +0.322 C 
ATOM      9  O   VAL A  1       24.395 -23.809   6.903  0.00  0.00    -0.249 OA
BRANCH   8  10
ATOM     10  OXT VAL A  1       22.160 -23.796   6.641  0.00  0.00    -0.479 OA
ATOM     11  HXT VAL A  1       22.209 -24.725   6.927  0.00  0.00    +0.295 HD
ENDBRANCH   8  10
ENDBRANCH   1   8
TORSDOF 4
ENDMDL
MODEL 9
REMARK VINA RESULT:      -4.6      6.192      7.077
REMARK  Name = *****
REMARK                            x       y       z     vdW  Elec       q    Type
REMARK                         _______ _______ _______ _____ _____    ______ ____
ROOT
ATOM      1  CA  VAL A  1       24.813 -20.892   5.098  0.00  0.00    +0.163 C 
ENDROOT
BRANCH   1   3
ATOM      2  CG1 VAL A  1       23.070 -21.638   6.829  0.00  0.00    +0.009 C 
ATOM      3  CB  VAL A  1       23.626 -20.472   6.002  0.00  0.00    +0.011 C 
ATOM      4  CG2 VAL A  1       22.481 -19.848   5.190  0.00  0.00    +0.009 C 
ENDBRANCH   1   3
BRANCH   1   5
ATOM      5  N   VAL A  1       24.786 -22.342   4.814  0.00  0.00    -0.318 NA
ATOM      6  H1  VAL A  1       25.320 -22.605   3.991  0.00  0.00    +0.119 HD
ATOM      7  H2  VAL A  1       24.963 -22.916   5.633  0.00  0.00    +0.119 HD
ENDBRANCH   1   5
BRANCH   1   8
ATOM      8  C   VAL A  1       26.171 -20.460   5.699  0.00  0.00    +0.322 C 
ATOM      9  O   VAL A  1       26.393 -20.353   6.898  0.00  0.00    -0.249 OA
BRANCH   8  10
ATOM     10  OXT VAL A  1       27.119 -20.197   4.773  0.00  0.00    -0.479 OA
ATOM     11  HXT VAL A  1       27.374 -19.259   4.803  0.00  0.00    +0.295 HD
ENDBRANCH   8  10
ENDBRANCH   1   8
TORSDOF 4
ENDMDL
