MODEL 1
REMARK VINA RESULT:      -3.7      0.000      0.000
REMARK  Name = *****
REMARK                            x       y       z     vdW  Elec       q    Type
REMARK                         _______ _______ _______ _____ _____    ______ ____
ROOT
ATOM      1  C   LIG    1       23.818 -15.869   4.047  0.00  0.00    +0.265 C 
ATOM      2  N   LIG    1       24.517 -16.991   3.653  0.00  0.00    -0.307 N 
ATOM      3  H   LIG    1       25.303 -16.818   3.032  0.00  0.00    +0.149 HD
ATOM      4  O   LIG    1       22.791 -15.918   4.713  0.00  0.00    -0.268 OA
ENDROOT
BRANCH   1  12
ATOM      5  C   LIG    1       24.170 -11.447   2.096  0.00  0.00    +0.173 C 
ATOM      6  N   LIG    1       24.596 -12.661   2.754  0.00  0.00    -0.266 N 
ATOM      7  C   LIG    1       25.886 -12.986   3.092  0.00  0.00    +0.069 A 
ATOM      8  C   LIG    1       25.808 -14.275   3.611  0.00  0.00    +0.032 A 
ATOM      9  C   LIG    1       26.989 -14.916   4.031  0.00  0.00    +0.012 A 
ATOM     10  C   LIG    1       28.205 -14.228   3.951  0.00  0.00    +0.001 A 
ATOM     11  C   LIG    1       28.254 -12.931   3.442  0.00  0.00    +0.002 A 
ATOM     12  C   LIG    1       24.424 -14.609   3.583  0.00  0.00    +0.155 A 
ATOM     13  C   LIG    1       27.096 -12.286   2.990  0.00  0.00    +0.028 A 
ATOM     14  N   LIG    1       23.682 -13.598   3.081  0.00  0.00    -0.166 NA
ENDBRANCH   1  12
BRANCH   2  15
ATOM     15  C   LIG    1       24.073 -18.344   3.951  0.00  0.00    +0.076 C 
ATOM     16  C   LIG    1       25.215 -19.218   4.484  0.00  0.00    +0.041 C 
ATOM     17  C   LIG    1       24.742 -20.547   5.108  0.00  0.00    +0.058 C 
ATOM     18  N   LIG    1       23.737 -20.232   6.134  0.00  0.00    -0.299 NA
ATOM     19  C   LIG    1       22.526 -19.687   5.506  0.00  0.00    +0.058 C 
ATOM     20  C   LIG    1       21.892 -20.653   4.488  0.00  0.00    +0.019 C 
ATOM     21  C   LIG    1       22.867 -21.247   3.473  0.00  0.00    +0.003 C 
ATOM     22  C   LIG    1       23.464 -21.345   7.039  0.00  0.00    +0.105 C 
ATOM     23  C   LIG    1       24.232 -21.571   4.075  0.00  0.00    +0.019 C 
ATOM     24  C   LIG    1       22.883 -18.313   4.913  0.00  0.00    +0.041 C 
ENDBRANCH   2  15
TORSDOF 2
ENDMDL
MODEL 2
REMARK VINA RESULT:      -3.0      1.682      2.523
REMARK  Name = *****
REMARK                            x       y       z     vdW  Elec       q    Type
REMARK                         _______ _______ _______ _____ _____    ______ ____
ROOT
ATOM      1  C   LIG    1       26.382 -16.735   3.610  0.00  0.00    +0.265 C 
ATOM      2  N   LIG    1       25.030 -17.003   3.651  0.00  0.00    -0.307 N 
ATOM      3  H   LIG    1       24.425 -16.185   3.666  0.00  0.00    +0.149 HD
ATOM      4  O   LIG    1       27.241 -17.606   3.685  0.00  0.00    -0.268 OA
ENDROOT
BRANCH   1  12
ATOM      5  C   LIG    1       28.911 -12.604   3.742  0.00  0.00    +0.173 C 
ATOM      6  N   LIG    1       27.790 -13.483   3.503  0.00  0.00    -0.266 N 
ATOM      7  C   LIG    1       26.540 -13.102   3.085  0.00  0.00    +0.069 A 
ATOM      8  C   LIG    1       25.787 -14.272   3.088  0.00  0.00    +0.032 A 
ATOM      9  C   LIG    1       24.427 -14.212   2.727  0.00  0.00    +0.012 A 
ATOM     10  C   LIG    1       23.877 -12.986   2.341  0.00  0.00    +0.001 A 
ATOM     11  C   LIG    1       24.657 -11.831   2.331  0.00  0.00    +0.002 A 
ATOM     12  C   LIG    1       26.692 -15.302   3.475  0.00  0.00    +0.155 A 
ATOM     13  C   LIG    1       26.003 -11.862   2.715  0.00  0.00    +0.028 A 
ATOM     14  N   LIG    1       27.930 -14.810   3.700  0.00  0.00    -0.166 NA
ENDBRANCH   1  12
BRANCH   2  15
ATOM     15  C   LIG    1       24.494 -18.342   3.835  0.00  0.00    +0.076 C 
ATOM     16  C   LIG    1       25.448 -19.237   4.637  0.00  0.00    +0.041 C 
ATOM     17  C   LIG    1       24.805 -20.549   5.129  0.00  0.00    +0.058 C 
ATOM     18  N   LIG    1       23.585 -20.202   5.874  0.00  0.00    -0.299 NA
ATOM     19  C   LIG    1       22.580 -19.636   4.964  0.00  0.00    +0.058 C 
ATOM     20  C   LIG    1       22.194 -20.598   3.824  0.00  0.00    +0.019 C 
ATOM     21  C   LIG    1       23.376 -21.222   3.084  0.00  0.00    +0.003 C 
ATOM     22  C   LIG    1       23.070 -21.300   6.687  0.00  0.00    +0.105 C 
ATOM     23  C   LIG    1       24.542 -21.571   4.006  0.00  0.00    +0.019 C 
ATOM     24  C   LIG    1       23.105 -18.276   4.473  0.00  0.00    +0.041 C 
ENDBRANCH   2  15
TORSDOF 2
ENDMDL
