MODEL 1
REMARK VINA RESULT:       0.7      0.000      0.000
REMARK  Name = *****
REMARK                            x       y       z     vdW  Elec       q    Type
REMARK                         _______ _______ _______ _____ _____    ______ ____
ROOT
ATOM      1  C   LIG    1       24.541 -17.843   3.764  0.00  0.00    +0.155 C 
ATOM      2  N   LIG    1       24.742 -19.289   3.702  0.00  0.00    -0.198 N 
ATOM      3  C   LIG    1       26.114 -19.840   3.599  0.00  0.00    +0.158 C 
ATOM      4  S   LIG    1       23.761 -20.169   4.786  0.00  0.00    +0.075 S 
ATOM      5  O   LIG    1       23.829 -21.572   4.426  0.00  0.00    -0.150 OA
ATOM      6  O   LIG    1       24.011 -19.718   6.136  0.00  0.00    -0.150 OA
ATOM      7  C   LIG    1       22.166 -19.596   4.327  0.00  0.00    +0.119 A 
ATOM      8  C   LIG    1       22.074 -18.279   3.883  0.00  0.00    +0.045 A 
ATOM      9  C   LIG    1       20.819 -17.828   3.443  0.00  0.00    +0.013 A 
ATOM     10  C   LIG    1       19.705 -18.675   3.465  0.00  0.00    +0.001 A 
ATOM     11  C   LIG    1       19.829 -19.989   3.915  0.00  0.00    +0.002 A 
ATOM     12  C   LIG    1       21.068 -20.460   4.340  0.00  0.00    +0.029 A 
ATOM     13  C   LIG    1       23.264 -17.400   3.879  0.00  0.00    +0.153 C 
ENDROOT
BRANCH   1  16
ATOM     14  N   LIG    1       25.397 -15.569   3.538  0.00  0.00    -0.260 N 
ATOM     15  H   LIG    1       24.431 -15.292   3.666  0.00  0.00    +0.157 HD
ATOM     16  C   LIG    1       25.737 -16.892   3.674  0.00  0.00    +0.269 C 
ATOM     17  O   LIG    1       26.885 -17.324   3.729  0.00  0.00    -0.268 OA
BRANCH  14  21
ATOM     18  C   LIG    1       28.878 -12.080   4.923  0.00  0.00    +0.053 C 
ATOM     19  C   LIG    1       27.933 -12.930   4.158  0.00  0.00    +0.008 A 
ATOM     20  S   LIG    1       26.797 -13.936   4.960  0.00  0.00    -0.057 S 
ATOM     21  C   LIG    1       26.314 -14.566   3.446  0.00  0.00    +0.165 A 
ATOM     22  N   LIG    1       26.872 -14.034   2.391  0.00  0.00    -0.233 NA
ATOM     23  C   LIG    1       27.793 -13.086   2.793  0.00  0.00    +0.123 A 
ENDBRANCH  14  21
ENDBRANCH   1  16
BRANCH  13  24
ATOM     24  O   LIG    1       22.975 -16.047   4.025  0.00  0.00    -0.504 OA
ATOM     25  H   LIG    1       22.200 -15.974   4.618  0.00  0.00    +0.292 HD
ENDBRANCH  13  24
TORSDOF 3
ENDMDL
MODEL 2
REMARK VINA RESULT:       2.9      2.001      2.979
REMARK  Name = *****
REMARK                            x       y       z     vdW  Elec       q    Type
REMARK                         _______ _______ _______ _____ _____    ______ ____
ROOT
ATOM      1  C   LIG    1       24.790 -17.431   4.050  0.00  0.00    +0.155 C 
ATOM      2  N   LIG    1       23.366 -17.127   4.171  0.00  0.00    -0.198 N 
ATOM      3  C   LIG    1       22.848 -15.817   3.709  0.00  0.00    +0.158 C 
ATOM      4  S   LIG    1       22.346 -18.426   3.739  0.00  0.00    +0.075 S 
ATOM      5  O   LIG    1       21.000 -18.112   4.179  0.00  0.00    -0.150 OA
ATOM      6  O   LIG    1       22.627 -18.827   2.380  0.00  0.00    -0.150 OA
ATOM      7  C   LIG    1       22.953 -19.688   4.797  0.00  0.00    +0.119 A 
ATOM      8  C   LIG    1       24.314 -19.662   5.092  0.00  0.00    +0.045 A 
ATOM      9  C   LIG    1       24.802 -20.621   5.994  0.00  0.00    +0.013 A 
ATOM     10  C   LIG    1       23.946 -21.571   6.562  0.00  0.00    +0.001 A 
ATOM     11  C   LIG    1       22.588 -21.572   6.248  0.00  0.00    +0.002 A 
ATOM     12  C   LIG    1       22.082 -20.620   5.367  0.00  0.00    +0.029 A 
ATOM     13  C   LIG    1       25.200 -18.654   4.470  0.00  0.00    +0.153 C 
ENDROOT
BRANCH   1  16
ATOM     14  N   LIG    1       25.640 -15.144   4.072  0.00  0.00    -0.260 N 
ATOM     15  H   LIG    1       25.069 -15.037   4.901  0.00  0.00    +0.157 HD
ATOM     16  C   LIG    1       25.759 -16.384   3.495  0.00  0.00    +0.269 C 
ATOM     17  O   LIG    1       26.559 -16.677   2.612  0.00  0.00    -0.268 OA
BRANCH  14  21
ATOM     18  C   LIG    1       29.473 -11.749   4.113  0.00  0.00    +0.053 C 
ATOM     19  C   LIG    1       28.232 -12.499   3.799  0.00  0.00    +0.008 A 
ATOM     20  S   LIG    1       27.646 -13.722   4.851  0.00  0.00    -0.057 S 
ATOM     21  C   LIG    1       26.413 -14.078   3.721  0.00  0.00    +0.165 A 
ATOM     22  N   LIG    1       26.355 -13.310   2.665  0.00  0.00    -0.233 NA
ATOM     23  C   LIG    1       27.389 -12.395   2.711  0.00  0.00    +0.123 A 
ENDBRANCH  14  21
ENDBRANCH   1  16
BRANCH  13  24
ATOM     24  O   LIG    1       26.521 -19.067   4.324  0.00  0.00    -0.504 OA
ATOM     25  H   LIG    1       27.094 -18.326   4.607  0.00  0.00    +0.292 HD
ENDBRANCH  13  24
TORSDOF 3
ENDMDL
