MODEL 1
REMARK VINA RESULT:      -7.9      0.000      0.000
REMARK  Name = *****
REMARK                            x       y       z     vdW  Elec       q    Type
REMARK                         _______ _______ _______ _____ _____    ______ ____
ROOT
ATOM      1  O   LIG    1       27.963 -20.903   6.920  0.00  0.00    -0.459 OA
ENDROOT
BRANCH   1   6
ATOM      2  C   LIG    1       23.277 -20.473   6.826  0.00  0.00    +0.192 C 
ATOM      3  N   LIG    1       24.055 -21.790   6.896  0.00  0.00    +0.243 N 
ATOM      4  C   LIG    1       25.019 -21.916   8.086  0.00  0.00    +0.070 C 
ATOM      5  C   LIG    1       25.896 -20.662   8.172  0.00  0.00    +0.099 C 
ATOM      6  C   LIG    1       26.640 -20.323   6.865  0.00  0.00    +0.187 C 
ATOM      7  C   LIG    1       25.954 -20.801   5.569  0.00  0.00    +0.099 C 
ATOM      8  C   LIG    1       25.860 -23.155   7.733  0.00  0.00    +0.060 C 
ATOM      9  C   LIG    1       25.851 -23.239   6.206  0.00  0.00    +0.060 C 
ATOM     10  C   LIG    1       25.040 -22.025   5.737  0.00  0.00    +0.070 C 
ATOM     11  C   LIG    1       22.969 -22.885   6.950  0.00  0.00    +0.192 C 
ENDBRANCH   1   6
BRANCH   1  12
ATOM     12  C   LIG    1       28.992 -19.992   6.965  0.00  0.00    +0.341 C 
ATOM     13  O   LIG    1       29.150 -19.098   6.136  0.00  0.00    -0.247 OA
BRANCH  12  14
ATOM     14  C   LIG    1       29.894 -20.235   8.188  0.00  0.00    +0.253 C 
BRANCH  14  15
ATOM     15  C   LIG    1       30.490 -18.940   8.715  0.00  0.00    -0.008 A 
ATOM     16  C   LIG    1       31.776 -18.518   8.331  0.00  0.00    +0.007 A 
ATOM     17  C   LIG    1       32.320 -17.333   8.830  0.00  0.00    +0.000 A 
ATOM     18  C   LIG    1       31.589 -16.550   9.718  0.00  0.00    +0.000 A 
ATOM     19  C   LIG    1       30.312 -16.950  10.106  0.00  0.00    +0.000 A 
ATOM     20  C   LIG    1       29.765 -18.137   9.611  0.00  0.00    +0.007 A 
ENDBRANCH  14  15
BRANCH  14  21
ATOM     21  O   LIG    1       30.931 -21.163   7.876  0.00  0.00    -0.376 OA
ATOM     22  H   LIG    1       30.943 -21.285   6.911  0.00  0.00    +0.211 HD
ENDBRANCH  14  21
ENDBRANCH  12  14
ENDBRANCH   1  12
TORSDOF 5
ENDMDL
MODEL 2
REMARK VINA RESULT:      -7.7      0.908      1.683
REMARK  Name = *****
REMARK                            x       y       z     vdW  Elec       q    Type
REMARK                         _______ _______ _______ _____ _____    ______ ____
ROOT
ATOM      1  O   LIG    1       27.998 -19.962   7.426  0.00  0.00    -0.459 OA
ENDROOT
BRANCH   1   6
ATOM      2  C   LIG    1       25.130 -23.050   5.331  0.00  0.00    +0.192 C 
ATOM      3  N   LIG    1       24.864 -22.339   6.660  0.00  0.00    +0.243 N 
ATOM      4  C   LIG    1       24.891 -20.803   6.595  0.00  0.00    +0.070 C 
ATOM      5  C   LIG    1       26.165 -20.342   5.880  0.00  0.00    +0.099 C 
ATOM      6  C   LIG    1       27.466 -20.914   6.477  0.00  0.00    +0.187 C 
ATOM      7  C   LIG    1       27.327 -22.277   7.183  0.00  0.00    +0.099 C 
ATOM      8  C   LIG    1       24.907 -20.386   8.076  0.00  0.00    +0.060 C 
ATOM      9  C   LIG    1       25.559 -21.547   8.827  0.00  0.00    +0.060 C 
ATOM     10  C   LIG    1       25.929 -22.572   7.747  0.00  0.00    +0.070 C 
ATOM     11  C   LIG    1       23.476 -22.845   7.105  0.00  0.00    +0.192 C 
ENDBRANCH   1   6
BRANCH   1  12
ATOM     12  C   LIG    1       29.205 -19.405   7.072  0.00  0.00    +0.341 C 
ATOM     13  O   LIG    1       29.365 -18.694   6.081  0.00  0.00    -0.247 OA
BRANCH  12  14
ATOM     14  C   LIG    1       30.305 -19.778   8.082  0.00  0.00    +0.253 C 
BRANCH  14  15
ATOM     15  C   LIG    1       30.766 -18.571   8.882  0.00  0.00    -0.008 A 
ATOM     16  C   LIG    1       31.968 -17.907   8.576  0.00  0.00    +0.007 A 
ATOM     17  C   LIG    1       32.390 -16.807   9.325  0.00  0.00    +0.000 A 
ATOM     18  C   LIG    1       31.619 -16.351  10.390  0.00  0.00    +0.000 A 
ATOM     19  C   LIG    1       30.423 -16.994  10.706  0.00  0.00    +0.000 A 
ATOM     20  C   LIG    1       29.999 -18.097   9.959  0.00  0.00    +0.007 A 
ENDBRANCH  14  15
BRANCH  14  21
ATOM     21  O   LIG    1       31.413 -20.383   7.421  0.00  0.00    -0.376 OA
ATOM     22  H   LIG    1       31.388 -20.117   6.486  0.00  0.00    +0.211 HD
ENDBRANCH  14  21
ENDBRANCH  12  14
ENDBRANCH   1  12
TORSDOF 5
ENDMDL
MODEL 3
REMARK VINA RESULT:      -7.5      0.673      1.579
REMARK  Name = *****
REMARK                            x       y       z     vdW  Elec       q    Type
REMARK                         _______ _______ _______ _____ _____    ______ ____
ROOT
ATOM      1  O   LIG    1       28.003 -21.313   6.722  0.00  0.00    -0.459 OA
ENDROOT
BRANCH   1   6
ATOM      2  C   LIG    1       23.398 -20.506   7.256  0.00  0.00    +0.192 C 
ATOM      3  N   LIG    1       24.044 -21.869   6.999  0.00  0.00    +0.243 N 
ATOM      4  C   LIG    1       25.107 -22.292   8.026  0.00  0.00    +0.070 C 
ATOM      5  C   LIG    1       26.108 -21.149   8.230  0.00  0.00    +0.099 C 
ATOM      6  C   LIG    1       26.745 -20.631   6.926  0.00  0.00    +0.187 C 
ATOM      7  C   LIG    1       25.888 -20.801   5.656  0.00  0.00    +0.099 C 
ATOM      8  C   LIG    1       25.780 -23.505   7.362  0.00  0.00    +0.060 C 
ATOM      9  C   LIG    1       25.610 -23.300   5.857  0.00  0.00    +0.060 C 
ATOM     10  C   LIG    1       24.880 -21.959   5.709  0.00  0.00    +0.070 C 
ATOM     11  C   LIG    1       22.866 -22.866   6.985  0.00  0.00    +0.192 C 
ENDBRANCH   1   6
BRANCH   1  12
ATOM     12  C   LIG    1       29.017 -20.921   7.564  0.00  0.00    +0.341 C 
ATOM     13  O   LIG    1       29.213 -21.414   8.674  0.00  0.00    -0.247 OA
BRANCH  12  14
ATOM     14  C   LIG    1       29.869 -19.809   6.926  0.00  0.00    +0.253 C 
BRANCH  14  15
ATOM     15  C   LIG    1       30.415 -18.849   7.970  0.00  0.00    -0.008 A 
ATOM     16  C   LIG    1       29.570 -18.241   8.917  0.00  0.00    +0.007 A 
ATOM     17  C   LIG    1       30.079 -17.351   9.864  0.00  0.00    +0.000 A 
ATOM     18  C   LIG    1       31.438 -17.054   9.883  0.00  0.00    +0.000 A 
ATOM     19  C   LIG    1       32.291 -17.650   8.955  0.00  0.00    +0.000 A 
ATOM     20  C   LIG    1       31.785 -18.540   8.004  0.00  0.00    +0.007 A 
ENDBRANCH  14  15
BRANCH  14  21
ATOM     21  O   LIG    1       29.118 -19.096   5.946  0.00  0.00    -0.376 OA
ATOM     22  H   LIG    1       29.678 -18.380   5.602  0.00  0.00    +0.211 HD
ENDBRANCH  14  21
ENDBRANCH  12  14
ENDBRANCH   1  12
TORSDOF 5
ENDMDL
MODEL 4
REMARK VINA RESULT:      -7.2      1.658      2.218
REMARK  Name = *****
REMARK                            x       y       z     vdW  Elec       q    Type
REMARK                         _______ _______ _______ _____ _____    ______ ____
ROOT
ATOM      1  O   LIG    1       26.588 -21.623   6.650  0.00  0.00    -0.459 OA
ENDROOT
BRANCH   1   6
ATOM      2  C   LIG    1       22.596 -19.431   5.467  0.00  0.00    +0.192 C 
ATOM      3  N   LIG    1       22.862 -20.933   5.349  0.00  0.00    +0.243 N 
ATOM      4  C   LIG    1       23.264 -21.630   6.659  0.00  0.00    +0.070 C 
ATOM      5  C   LIG    1       24.393 -20.844   7.333  0.00  0.00    +0.099 C 
ATOM      6  C   LIG    1       25.610 -20.584   6.424  0.00  0.00    +0.187 C 
ATOM      7  C   LIG    1       25.308 -20.521   4.914  0.00  0.00    +0.099 C 
ATOM      8  C   LIG    1       23.756 -23.010   6.190  0.00  0.00    +0.060 C 
ATOM      9  C   LIG    1       24.255 -22.808   4.759  0.00  0.00    +0.060 C 
ATOM     10  C   LIG    1       24.068 -21.313   4.471  0.00  0.00    +0.070 C 
ATOM     11  C   LIG    1       21.547 -21.522   4.795  0.00  0.00    +0.192 C 
ENDBRANCH   1   6
BRANCH   1  12
ATOM     12  C   LIG    1       27.570 -21.307   7.559  0.00  0.00    +0.341 C 
ATOM     13  O   LIG    1       27.395 -21.290   8.777  0.00  0.00    -0.247 OA
BRANCH  12  14
ATOM     14  C   LIG    1       28.902 -20.997   6.852  0.00  0.00    +0.253 C 
BRANCH  14  15
ATOM     15  C   LIG    1       29.790 -20.095   7.693  0.00  0.00    -0.008 A 
ATOM     16  C   LIG    1       30.839 -20.621   8.470  0.00  0.00    +0.007 A 
ATOM     17  C   LIG    1       31.641 -19.786   9.249  0.00  0.00    +0.000 A 
ATOM     18  C   LIG    1       31.411 -18.413   9.265  0.00  0.00    +0.000 A 
ATOM     19  C   LIG    1       30.379 -17.874   8.500  0.00  0.00    +0.000 A 
ATOM     20  C   LIG    1       29.572 -18.708   7.720  0.00  0.00    +0.007 A 
ENDBRANCH  14  15
BRANCH  14  21
ATOM     21  O   LIG    1       28.671 -20.408   5.575  0.00  0.00    -0.376 OA
ATOM     22  H   LIG    1       27.716 -20.245   5.487  0.00  0.00    +0.211 HD
ENDBRANCH  14  21
ENDBRANCH  12  14
ENDBRANCH   1  12
TORSDOF 5
ENDMDL
MODEL 5
REMARK VINA RESULT:      -7.2      1.274      2.474
REMARK  Name = *****
REMARK                            x       y       z     vdW  Elec       q    Type
REMARK                         _______ _______ _______ _____ _____    ______ ____
ROOT
ATOM      1  O   LIG    1       26.699 -20.709   6.779  0.00  0.00    -0.459 OA
ENDROOT
BRANCH   1   6
ATOM      2  C   LIG    1       22.627 -23.066   6.869  0.00  0.00    +0.192 C 
ATOM      3  N   LIG    1       22.990 -21.941   5.895  0.00  0.00    +0.243 N 
ATOM      4  C   LIG    1       24.261 -22.182   5.065  0.00  0.00    +0.070 C 
ATOM      5  C   LIG    1       25.406 -22.607   5.991  0.00  0.00    +0.099 C 
ATOM      6  C   LIG    1       25.661 -21.639   7.162  0.00  0.00    +0.187 C 
ATOM      7  C   LIG    1       24.435 -20.831   7.634  0.00  0.00    +0.099 C 
ATOM      8  C   LIG    1       24.540 -20.806   4.437  0.00  0.00    +0.060 C 
ATOM      9  C   LIG    1       23.932 -19.782   5.395  0.00  0.00    +0.060 C 
ATOM     10  C   LIG    1       23.361 -20.603   6.559  0.00  0.00    +0.070 C 
ATOM     11  C   LIG    1       21.755 -21.800   4.981  0.00  0.00    +0.192 C 
ENDBRANCH   1   6
BRANCH   1  12
ATOM     12  C   LIG    1       27.928 -20.947   7.348  0.00  0.00    +0.341 C 
ATOM     13  O   LIG    1       28.095 -21.635   8.354  0.00  0.00    -0.247 OA
BRANCH  12  14
ATOM     14  C   LIG    1       29.050 -20.255   6.552  0.00  0.00    +0.253 C 
BRANCH  14  15
ATOM     15  C   LIG    1       29.897 -19.356   7.438  0.00  0.00    -0.008 A 
ATOM     16  C   LIG    1       31.283 -19.228   7.236  0.00  0.00    +0.007 A 
ATOM     17  C   LIG    1       32.055 -18.409   8.062  0.00  0.00    +0.000 A 
ATOM     18  C   LIG    1       31.455 -17.705   9.102  0.00  0.00    +0.000 A 
ATOM     19  C   LIG    1       30.083 -17.817   9.315  0.00  0.00    +0.000 A 
ATOM     20  C   LIG    1       29.307 -18.637   8.491  0.00  0.00    +0.007 A 
ENDBRANCH  14  15
BRANCH  14  21
ATOM     21  O   LIG    1       28.512 -19.508   5.464  0.00  0.00    -0.376 OA
ATOM     22  H   LIG    1       27.797 -20.033   5.064  0.00  0.00    +0.211 HD
ENDBRANCH  14  21
ENDBRANCH  12  14
ENDBRANCH   1  12
TORSDOF 5
ENDMDL
MODEL 6
REMARK VINA RESULT:      -7.1      2.303      7.175
REMARK  Name = *****
REMARK                            x       y       z     vdW  Elec       q    Type
REMARK                         _______ _______ _______ _____ _____    ______ ____
ROOT
ATOM      1  O   LIG    1       28.516 -21.261   7.097  0.00  0.00    -0.459 OA
ENDROOT
BRANCH   1   6
ATOM      2  C   LIG    1       30.935 -18.795  10.294  0.00  0.00    +0.192 C 
ATOM      3  N   LIG    1       30.982 -18.586   8.778  0.00  0.00    +0.243 N 
ATOM      4  C   LIG    1       29.624 -18.297   8.117  0.00  0.00    +0.070 C 
ATOM      5  C   LIG    1       28.597 -19.338   8.577  0.00  0.00    +0.099 C 
ATOM      6  C   LIG    1       29.041 -20.798   8.362  0.00  0.00    +0.187 C 
ATOM      7  C   LIG    1       30.564 -21.036   8.372  0.00  0.00    +0.099 C 
ATOM      8  C   LIG    1       29.922 -18.442   6.615  0.00  0.00    +0.060 C 
ATOM      9  C   LIG    1       31.100 -19.412   6.518  0.00  0.00    +0.060 C 
ATOM     10  C   LIG    1       31.410 -19.820   7.964  0.00  0.00    +0.070 C 
ATOM     11  C   LIG    1       31.954 -17.404   8.575  0.00  0.00    +0.192 C 
ENDBRANCH   1   6
BRANCH   1  12
ATOM     12  C   LIG    1       27.148 -21.193   6.978  0.00  0.00    +0.341 C 
ATOM     13  O   LIG    1       26.568 -20.529   6.120  0.00  0.00    -0.247 OA
BRANCH  12  14
ATOM     14  C   LIG    1       26.456 -22.065   8.041  0.00  0.00    +0.253 C 
BRANCH  14  15
ATOM     15  C   LIG    1       25.506 -23.071   7.412  0.00  0.00    -0.008 A 
ATOM     16  C   LIG    1       24.135 -22.789   7.266  0.00  0.00    +0.007 A 
ATOM     17  C   LIG    1       23.268 -23.725   6.698  0.00  0.00    +0.000 A 
ATOM     18  C   LIG    1       23.755 -24.955   6.268  0.00  0.00    +0.000 A 
ATOM     19  C   LIG    1       25.110 -25.250   6.401  0.00  0.00    +0.000 A 
ATOM     20  C   LIG    1       25.981 -24.317   6.971  0.00  0.00    +0.007 A 
ENDBRANCH  14  15
BRANCH  14  21
ATOM     21  O   LIG    1       25.760 -21.254   8.984  0.00  0.00    -0.376 OA
ATOM     22  H   LIG    1       25.600 -20.387   8.575  0.00  0.00    +0.211 HD
ENDBRANCH  14  21
ENDBRANCH  12  14
ENDBRANCH   1  12
TORSDOF 5
ENDMDL
MODEL 7
REMARK VINA RESULT:      -7.1      5.150      6.819
REMARK  Name = *****
REMARK                            x       y       z     vdW  Elec       q    Type
REMARK                         _______ _______ _______ _____ _____    ______ ____
ROOT
ATOM      1  O   LIG    1       25.513 -24.121   5.910  0.00  0.00    -0.459 OA
ENDROOT
BRANCH   1   6
ATOM      2  C   LIG    1       24.237 -28.437   7.287  0.00  0.00    +0.192 C 
ATOM      3  N   LIG    1       25.114 -28.105   6.076  0.00  0.00    +0.243 N 
ATOM      4  C   LIG    1       26.381 -27.294   6.391  0.00  0.00    +0.070 C 
ATOM      5  C   LIG    1       26.014 -26.081   7.252  0.00  0.00    +0.099 C 
ATOM      6  C   LIG    1       24.901 -25.198   6.655  0.00  0.00    +0.187 C 
ATOM      7  C   LIG    1       23.904 -25.923   5.730  0.00  0.00    +0.099 C 
ATOM      8  C   LIG    1       26.876 -26.856   5.002  0.00  0.00    +0.060 C 
ATOM      9  C   LIG    1       25.630 -26.804   4.116  0.00  0.00    +0.060 C 
ATOM     10  C   LIG    1       24.461 -27.176   5.037  0.00  0.00    +0.070 C 
ATOM     11  C   LIG    1       25.476 -29.476   5.467  0.00  0.00    +0.192 C 
ENDBRANCH   1   6
BRANCH   1  12
ATOM     12  C   LIG    1       25.557 -22.914   6.567  0.00  0.00    +0.341 C 
ATOM     13  O   LIG    1       26.595 -22.398   6.978  0.00  0.00    -0.247 OA
BRANCH  12  14
ATOM     14  C   LIG    1       24.151 -22.303   6.698  0.00  0.00    +0.253 C 
BRANCH  14  15
ATOM     15  C   LIG    1       23.922 -21.194   5.684  0.00  0.00    -0.008 A 
ATOM     16  C   LIG    1       24.782 -21.021   4.584  0.00  0.00    +0.007 A 
ATOM     17  C   LIG    1       24.571 -19.992   3.664  0.00  0.00    +0.000 A 
ATOM     18  C   LIG    1       23.498 -19.121   3.827  0.00  0.00    +0.000 A 
ATOM     19  C   LIG    1       22.634 -19.279   4.908  0.00  0.00    +0.000 A 
ATOM     20  C   LIG    1       22.844 -20.307   5.832  0.00  0.00    +0.007 A 
ENDBRANCH  14  15
BRANCH  14  21
ATOM     21  O   LIG    1       23.934 -21.814   8.019  0.00  0.00    -0.376 OA
ATOM     22  H   LIG    1       23.349 -21.039   7.960  0.00  0.00    +0.211 HD
ENDBRANCH  14  21
ENDBRANCH  12  14
ENDBRANCH   1  12
TORSDOF 5
ENDMDL
MODEL 8
REMARK VINA RESULT:      -7.0      4.712      8.253
REMARK  Name = *****
REMARK                            x       y       z     vdW  Elec       q    Type
REMARK                         _______ _______ _______ _____ _____    ______ ____
ROOT
ATOM      1  O   LIG    1       25.468 -24.452   7.117  0.00  0.00    -0.459 OA
ENDROOT
BRANCH   1   6
ATOM      2  C   LIG    1       25.251 -20.214   5.082  0.00  0.00    +0.192 C 
ATOM      3  N   LIG    1       24.113 -20.903   5.839  0.00  0.00    +0.243 N 
ATOM      4  C   LIG    1       24.439 -21.295   7.290  0.00  0.00    +0.070 C 
ATOM      5  C   LIG    1       25.771 -22.052   7.331  0.00  0.00    +0.099 C 
ATOM      6  C   LIG    1       25.836 -23.264   6.381  0.00  0.00    +0.187 C 
ATOM      7  C   LIG    1       24.942 -23.173   5.128  0.00  0.00    +0.099 C 
ATOM      8  C   LIG    1       23.269 -22.215   7.680  0.00  0.00    +0.060 C 
ATOM      9  C   LIG    1       22.775 -22.833   6.372  0.00  0.00    +0.060 C 
ATOM     10  C   LIG    1       23.702 -22.279   5.284  0.00  0.00    +0.070 C 
ATOM     11  C   LIG    1       22.944 -19.897   5.792  0.00  0.00    +0.192 C 
ENDBRANCH   1   6
BRANCH   1  12
ATOM     12  C   LIG    1       25.691 -25.636   6.455  0.00  0.00    +0.341 C 
ATOM     13  O   LIG    1       26.773 -25.950   5.961  0.00  0.00    -0.247 OA
BRANCH  12  14
ATOM     14  C   LIG    1       24.422 -26.506   6.433  0.00  0.00    +0.253 C 
BRANCH  14  15
ATOM     15  C   LIG    1       24.755 -27.989   6.446  0.00  0.00    -0.008 A 
ATOM     16  C   LIG    1       24.832 -28.731   5.253  0.00  0.00    +0.007 A 
ATOM     17  C   LIG    1       25.126 -30.096   5.276  0.00  0.00    +0.000 A 
ATOM     18  C   LIG    1       25.351 -30.740   6.488  0.00  0.00    +0.000 A 
ATOM     19  C   LIG    1       25.284 -30.020   7.680  0.00  0.00    +0.000 A 
ATOM     20  C   LIG    1       24.987 -28.655   7.661  0.00  0.00    +0.007 A 
ENDBRANCH  14  15
BRANCH  14  21
ATOM     21  O   LIG    1       23.614 -26.194   5.301  0.00  0.00    -0.376 OA
ATOM     22  H   LIG    1       24.154 -25.675   4.681  0.00  0.00    +0.211 HD
ENDBRANCH  14  21
ENDBRANCH  12  14
ENDBRANCH   1  12
TORSDOF 5
ENDMDL
MODEL 9
REMARK VINA RESULT:      -7.0      6.726      9.512
REMARK  Name = *****
REMARK                            x       y       z     vdW  Elec       q    Type
REMARK                         _______ _______ _______ _____ _____    ______ ____
ROOT
ATOM      1  O   LIG    1       25.057 -28.548   7.485  0.00  0.00    -0.459 OA
ENDROOT
BRANCH   1   6
ATOM      2  C   LIG    1       24.030 -32.985   8.673  0.00  0.00    +0.192 C 
ATOM      3  N   LIG    1       25.041 -32.079   9.380  0.00  0.00    +0.243 N 
ATOM      4  C   LIG    1       24.472 -30.751   9.905  0.00  0.00    +0.070 C 
ATOM      5  C   LIG    1       23.677 -30.058   8.794  0.00  0.00    +0.099 C 
ATOM      6  C   LIG    1       24.463 -29.866   7.483  0.00  0.00    +0.187 C 
ATOM      7  C   LIG    1       25.577 -30.900   7.220  0.00  0.00    +0.099 C 
ATOM      8  C   LIG    1       25.731 -29.945  10.269  0.00  0.00    +0.060 C 
ATOM      9  C   LIG    1       26.840 -30.478   9.362  0.00  0.00    +0.060 C 
ATOM     10  C   LIG    1       26.171 -31.542   8.483  0.00  0.00    +0.070 C 
ATOM     11  C   LIG    1       25.593 -32.937  10.539  0.00  0.00    +0.192 C 
ENDBRANCH   1   6
BRANCH   1  12
ATOM     12  C   LIG    1       25.092 -27.927   6.259  0.00  0.00    +0.341 C 
ATOM     13  O   LIG    1       24.425 -28.288   5.290  0.00  0.00    -0.247 OA
BRANCH  12  14
ATOM     14  C   LIG    1       26.053 -26.725   6.274  0.00  0.00    +0.253 C 
BRANCH  14  15
ATOM     15  C   LIG    1       25.318 -25.418   6.522  0.00  0.00    -0.008 A 
ATOM     16  C   LIG    1       26.004 -24.261   6.933  0.00  0.00    +0.007 A 
ATOM     17  C   LIG    1       25.318 -23.068   7.170  0.00  0.00    +0.000 A 
ATOM     18  C   LIG    1       23.938 -23.011   7.000  0.00  0.00    +0.000 A 
ATOM     19  C   LIG    1       23.243 -24.147   6.590  0.00  0.00    +0.000 A 
ATOM     20  C   LIG    1       23.926 -25.343   6.353  0.00  0.00    +0.007 A 
ENDBRANCH  14  15
BRANCH  14  21
ATOM     21  O   LIG    1       26.790 -26.652   5.056  0.00  0.00    -0.376 OA
ATOM     22  H   LIG    1       26.810 -25.722   4.773  0.00  0.00    +0.211 HD
ENDBRANCH  14  21
ENDBRANCH  12  14
ENDBRANCH   1  12
TORSDOF 5
ENDMDL
