MODEL 1
REMARK VINA RESULT:      -8.5      0.000      0.000
REMARK  Name = *****
REMARK                            x       y       z     vdW  Elec       q    Type
REMARK                         _______ _______ _______ _____ _____    ______ ____
ROOT
ATOM      1  C   LIG    1       25.352 -22.245   7.462  0.00  0.00    +0.167 C 
ATOM      2  O   LIG    1       24.792 -21.840   8.486  0.00  0.00    -0.292 OA
ENDROOT
BRANCH   1   7
ATOM      3  C   LIG    1       24.448 -27.668   5.634  0.00  0.00    +0.044 C 
ATOM      4  C   LIG    1       24.674 -26.259   6.101  0.00  0.00    -0.050 A 
ATOM      5  C   LIG    1       23.596 -25.380   6.249  0.00  0.00    +0.004 A 
ATOM      6  C   LIG    1       23.805 -24.071   6.685  0.00  0.00    +0.012 A 
ATOM      7  C   LIG    1       25.097 -23.634   7.004  0.00  0.00    +0.018 A 
ATOM      8  C   LIG    1       26.176 -24.512   6.867  0.00  0.00    +0.012 A 
ATOM      9  C   LIG    1       25.964 -25.821   6.423  0.00  0.00    +0.004 A 
ENDBRANCH   1   7
BRANCH   1  10
ATOM     10  C   LIG    1       26.306 -21.371   6.661  0.00  0.00    +0.071 C 
ATOM     11  C   LIG    1       27.313 -20.726   7.623  0.00  0.00    +0.017 C 
BRANCH  10  12
ATOM     12  C   LIG    1       25.503 -20.309   5.888  0.00  0.00    +0.095 C 
BRANCH  12  13
ATOM     13  N   LIG    1       24.665 -20.810   4.775  0.00  0.00    -0.302 NA
ATOM     14  C   LIG    1       23.253 -20.914   5.188  0.00  0.00    +0.084 C 
ATOM     15  C   LIG    1       22.552 -19.558   5.331  0.00  0.00    +0.015 C 
ATOM     16  C   LIG    1       22.711 -18.698   4.080  0.00  0.00    +0.002 C 
ATOM     17  C   LIG    1       24.163 -18.650   3.612  0.00  0.00    +0.015 C 
ATOM     18  C   LIG    1       24.751 -20.057   3.517  0.00  0.00    +0.084 C 
ENDBRANCH  12  13
ENDBRANCH  10  12
ENDBRANCH   1  10
TORSDOF 4
ENDMDL
MODEL 2
REMARK VINA RESULT:      -8.3      1.742      5.790
REMARK  Name = *****
REMARK                            x       y       z     vdW  Elec       q    Type
REMARK                         _______ _______ _______ _____ _____    ______ ____
ROOT
ATOM      1  C   LIG    1       25.083 -20.764   6.917  0.00  0.00    +0.167 C 
ATOM      2  O   LIG    1       24.460 -20.660   7.979  0.00  0.00    -0.292 OA
ENDROOT
BRANCH   1   7
ATOM      3  C   LIG    1       30.678 -19.277   6.685  0.00  0.00    +0.044 C 
ATOM      4  C   LIG    1       29.231 -19.670   6.753  0.00  0.00    -0.050 A 
ATOM      5  C   LIG    1       28.657 -20.053   7.969  0.00  0.00    +0.004 A 
ATOM      6  C   LIG    1       27.311 -20.417   8.034  0.00  0.00    +0.012 A 
ATOM      7  C   LIG    1       26.516 -20.375   6.882  0.00  0.00    +0.018 A 
ATOM      8  C   LIG    1       27.082 -19.983   5.666  0.00  0.00    +0.012 A 
ATOM      9  C   LIG    1       28.433 -19.626   5.603  0.00  0.00    +0.004 A 
ENDBRANCH   1   7
BRANCH   1  10
ATOM     10  C   LIG    1       24.427 -21.265   5.638  0.00  0.00    +0.071 C 
ATOM     11  C   LIG    1       22.925 -20.955   5.698  0.00  0.00    +0.017 C 
BRANCH  10  12
ATOM     12  C   LIG    1       24.686 -22.775   5.486  0.00  0.00    +0.095 C 
BRANCH  12  13
ATOM     13  N   LIG    1       24.580 -23.582   6.722  0.00  0.00    -0.302 NA
ATOM     14  C   LIG    1       23.508 -24.589   6.601  0.00  0.00    +0.084 C 
ATOM     15  C   LIG    1       23.861 -25.753   5.668  0.00  0.00    +0.015 C 
ATOM     16  C   LIG    1       25.198 -26.394   6.036  0.00  0.00    +0.002 C 
ATOM     17  C   LIG    1       26.288 -25.345   6.232  0.00  0.00    +0.015 C 
ATOM     18  C   LIG    1       25.815 -24.236   7.171  0.00  0.00    +0.084 C 
ENDBRANCH  12  13
ENDBRANCH  10  12
ENDBRANCH   1  10
TORSDOF 4
ENDMDL
MODEL 3
REMARK VINA RESULT:      -8.1      2.140      4.185
REMARK  Name = *****
REMARK                            x       y       z     vdW  Elec       q    Type
REMARK                         _______ _______ _______ _____ _____    ______ ____
ROOT
ATOM      1  C   LIG    1       25.477 -21.603   8.216  0.00  0.00    +0.167 C 
ATOM      2  O   LIG    1       25.424 -21.558   9.449  0.00  0.00    -0.292 OA
ENDROOT
BRANCH   1   7
ATOM      3  C   LIG    1       24.152 -26.536   5.480  0.00  0.00    +0.044 C 
ATOM      4  C   LIG    1       24.487 -25.253   6.183  0.00  0.00    -0.050 A 
ATOM      5  C   LIG    1       23.477 -24.349   6.529  0.00  0.00    +0.004 A 
ATOM      6  C   LIG    1       23.787 -23.157   7.184  0.00  0.00    +0.012 A 
ATOM      7  C   LIG    1       25.115 -22.867   7.525  0.00  0.00    +0.018 A 
ATOM      8  C   LIG    1       26.127 -23.772   7.191  0.00  0.00    +0.012 A 
ATOM      9  C   LIG    1       25.813 -24.962   6.528  0.00  0.00    +0.004 A 
ENDBRANCH   1   7
BRANCH   1  10
ATOM     10  C   LIG    1       25.916 -20.410   7.379  0.00  0.00    +0.071 C 
ATOM     11  C   LIG    1       25.744 -20.756   5.894  0.00  0.00    +0.017 C 
BRANCH  10  12
ATOM     12  C   LIG    1       27.377 -20.058   7.712  0.00  0.00    +0.095 C 
BRANCH  12  13
ATOM     13  N   LIG    1       28.413 -20.775   6.935  0.00  0.00    -0.302 NA
ATOM     14  C   LIG    1       28.938 -19.924   5.851  0.00  0.00    +0.084 C 
ATOM     15  C   LIG    1       29.848 -18.792   6.344  0.00  0.00    +0.015 C 
ATOM     16  C   LIG    1       30.966 -19.311   7.245  0.00  0.00    +0.002 C 
ATOM     17  C   LIG    1       30.429 -20.249   8.322  0.00  0.00    +0.015 C 
ATOM     18  C   LIG    1       29.532 -21.324   7.710  0.00  0.00    +0.084 C 
ENDBRANCH  12  13
ENDBRANCH  10  12
ENDBRANCH   1  10
TORSDOF 4
ENDMDL
MODEL 4
REMARK VINA RESULT:      -8.0      4.598      7.388
REMARK  Name = *****
REMARK                            x       y       z     vdW  Elec       q    Type
REMARK                         _______ _______ _______ _____ _____    ______ ____
ROOT
ATOM      1  C   LIG    1       29.114 -20.298   8.037  0.00  0.00    +0.167 C 
ATOM      2  O   LIG    1       29.643 -21.268   8.591  0.00  0.00    -0.292 OA
ENDROOT
BRANCH   1   7
ATOM      3  C   LIG    1       23.598 -20.791   6.335  0.00  0.00    +0.044 C 
ATOM      4  C   LIG    1       25.030 -20.668   6.766  0.00  0.00    -0.050 A 
ATOM      5  C   LIG    1       26.037 -20.438   5.823  0.00  0.00    +0.004 A 
ATOM      6  C   LIG    1       27.369 -20.322   6.224  0.00  0.00    +0.012 A 
ATOM      7  C   LIG    1       27.705 -20.409   7.581  0.00  0.00    +0.018 A 
ATOM      8  C   LIG    1       26.701 -20.629   8.528  0.00  0.00    +0.012 A 
ATOM      9  C   LIG    1       25.369 -20.752   8.123  0.00  0.00    +0.004 A 
ENDBRANCH   1   7
BRANCH   1  10
ATOM     10  C   LIG    1       29.864 -18.996   7.794  0.00  0.00    +0.071 C 
ATOM     11  C   LIG    1       30.806 -19.182   6.597  0.00  0.00    +0.017 C 
BRANCH  10  12
ATOM     12  C   LIG    1       30.637 -18.603   9.066  0.00  0.00    +0.095 C 
BRANCH  12  13
ATOM     13  N   LIG    1       30.530 -17.186   9.481  0.00  0.00    -0.302 NA
ATOM     14  C   LIG    1       30.203 -17.083  10.916  0.00  0.00    +0.084 C 
ATOM     15  C   LIG    1       31.372 -17.444  11.840  0.00  0.00    +0.015 C 
ATOM     16  C   LIG    1       32.637 -16.662  11.493  0.00  0.00    +0.002 C 
ATOM     17  C   LIG    1       32.933 -16.710   9.997  0.00  0.00    +0.015 C 
ATOM     18  C   LIG    1       31.693 -16.341   9.184  0.00  0.00    +0.084 C 
ENDBRANCH  12  13
ENDBRANCH  10  12
ENDBRANCH   1  10
TORSDOF 4
ENDMDL
MODEL 5
REMARK VINA RESULT:      -8.0      4.351      7.141
REMARK  Name = *****
REMARK                            x       y       z     vdW  Elec       q    Type
REMARK                         _______ _______ _______ _____ _____    ______ ____
ROOT
ATOM      1  C   LIG    1       28.821 -20.188   7.784  0.00  0.00    +0.167 C 
ATOM      2  O   LIG    1       29.398 -21.040   8.468  0.00  0.00    -0.292 OA
ENDROOT
BRANCH   1   7
ATOM      3  C   LIG    1       23.264 -20.933   6.327  0.00  0.00    +0.044 C 
ATOM      4  C   LIG    1       24.700 -20.735   6.714  0.00  0.00    -0.050 A 
ATOM      5  C   LIG    1       25.087 -20.791   8.057  0.00  0.00    +0.004 A 
ATOM      6  C   LIG    1       26.422 -20.609   8.417  0.00  0.00    +0.012 A 
ATOM      7  C   LIG    1       27.393 -20.393   7.431  0.00  0.00    +0.018 A 
ATOM      8  C   LIG    1       27.013 -20.346   6.087  0.00  0.00    +0.012 A 
ATOM      9  C   LIG    1       25.673 -20.522   5.730  0.00  0.00    +0.004 A 
ENDBRANCH   1   7
BRANCH   1  10
ATOM     10  C   LIG    1       29.530 -18.940   7.279  0.00  0.00    +0.071 C 
ATOM     11  C   LIG    1       30.792 -19.361   6.514  0.00  0.00    +0.017 C 
BRANCH  10  12
ATOM     12  C   LIG    1       29.870 -18.025   8.470  0.00  0.00    +0.095 C 
BRANCH  12  13
ATOM     13  N   LIG    1       31.014 -18.448   9.309  0.00  0.00    -0.302 NA
ATOM     14  C   LIG    1       32.244 -17.734   8.918  0.00  0.00    +0.084 C 
ATOM     15  C   LIG    1       32.259 -16.260   9.340  0.00  0.00    +0.015 C 
ATOM     16  C   LIG    1       31.956 -16.088  10.827  0.00  0.00    +0.002 C 
ATOM     17  C   LIG    1       30.725 -16.886  11.244  0.00  0.00    +0.015 C 
ATOM     18  C   LIG    1       30.822 -18.332  10.760  0.00  0.00    +0.084 C 
ENDBRANCH  12  13
ENDBRANCH  10  12
ENDBRANCH   1  10
TORSDOF 4
ENDMDL
MODEL 6
REMARK VINA RESULT:      -8.0      1.490      1.952
REMARK  Name = *****
REMARK                            x       y       z     vdW  Elec       q    Type
REMARK                         _______ _______ _______ _____ _____    ______ ____
ROOT
ATOM      1  C   LIG    1       25.398 -23.024   6.832  0.00  0.00    +0.167 C 
ATOM      2  O   LIG    1       26.466 -22.406   6.905  0.00  0.00    -0.292 OA
ENDROOT
BRANCH   1   7
ATOM      3  C   LIG    1       25.522 -28.539   5.061  0.00  0.00    +0.044 C 
ATOM      4  C   LIG    1       25.493 -27.107   5.509  0.00  0.00    -0.050 A 
ATOM      5  C   LIG    1       25.129 -26.092   4.618  0.00  0.00    +0.004 A 
ATOM      6  C   LIG    1       25.100 -24.761   5.035  0.00  0.00    +0.012 A 
ATOM      7  C   LIG    1       25.412 -24.432   6.361  0.00  0.00    +0.018 A 
ATOM      8  C   LIG    1       25.766 -25.444   7.257  0.00  0.00    +0.012 A 
ATOM      9  C   LIG    1       25.801 -26.776   6.835  0.00  0.00    +0.004 A 
ENDBRANCH   1   7
BRANCH   1  10
ATOM     10  C   LIG    1       24.065 -22.385   7.196  0.00  0.00    +0.071 C 
ATOM     11  C   LIG    1       22.940 -23.387   6.906  0.00  0.00    +0.017 C 
BRANCH  10  12
ATOM     12  C   LIG    1       23.884 -21.083   6.394  0.00  0.00    +0.095 C 
BRANCH  12  13
ATOM     13  N   LIG    1       23.324 -21.231   5.032  0.00  0.00    -0.302 NA
ATOM     14  C   LIG    1       22.125 -20.389   4.863  0.00  0.00    +0.084 C 
ATOM     15  C   LIG    1       22.435 -18.891   4.758  0.00  0.00    +0.015 C 
ATOM     16  C   LIG    1       23.484 -18.599   3.687  0.00  0.00    +0.002 C 
ATOM     17  C   LIG    1       24.693 -19.520   3.820  0.00  0.00    +0.015 C 
ATOM     18  C   LIG    1       24.256 -20.981   3.925  0.00  0.00    +0.084 C 
ENDBRANCH  12  13
ENDBRANCH  10  12
ENDBRANCH   1  10
TORSDOF 4
ENDMDL
MODEL 7
REMARK VINA RESULT:      -8.0      2.201      5.965
REMARK  Name = *****
REMARK                            x       y       z     vdW  Elec       q    Type
REMARK                         _______ _______ _______ _____ _____    ______ ____
ROOT
ATOM      1  C   LIG    1       24.623 -21.646   7.234  0.00  0.00    +0.167 C 
ATOM      2  O   LIG    1       23.820 -21.096   7.996  0.00  0.00    -0.292 OA
ENDROOT
BRANCH   1   7
ATOM      3  C   LIG    1       29.794 -19.156   6.443  0.00  0.00    +0.044 C 
ATOM      4  C   LIG    1       28.450 -19.793   6.641  0.00  0.00    -0.050 A 
ATOM      5  C   LIG    1       27.537 -19.864   5.584  0.00  0.00    +0.004 A 
ATOM      6  C   LIG    1       26.288 -20.458   5.767  0.00  0.00    +0.012 A 
ATOM      7  C   LIG    1       25.948 -21.014   7.007  0.00  0.00    +0.018 A 
ATOM      8  C   LIG    1       26.861 -20.954   8.064  0.00  0.00    +0.012 A 
ATOM      9  C   LIG    1       28.109 -20.352   7.879  0.00  0.00    +0.004 A 
ENDBRANCH   1   7
BRANCH   1  10
ATOM     10  C   LIG    1       24.295 -22.944   6.511  0.00  0.00    +0.071 C 
ATOM     11  C   LIG    1       22.843 -23.332   6.822  0.00  0.00    +0.017 C 
BRANCH  10  12
ATOM     12  C   LIG    1       25.281 -24.041   6.952  0.00  0.00    +0.095 C 
BRANCH  12  13
ATOM     13  N   LIG    1       25.908 -24.828   5.867  0.00  0.00    -0.302 NA
ATOM     14  C   LIG    1       26.670 -25.965   6.416  0.00  0.00    +0.084 C 
ATOM     15  C   LIG    1       25.786 -27.095   6.957  0.00  0.00    +0.015 C 
ATOM     16  C   LIG    1       24.754 -27.553   5.929  0.00  0.00    +0.002 C 
ATOM     17  C   LIG    1       24.016 -26.371   5.309  0.00  0.00    +0.015 C 
ATOM     18  C   LIG    1       25.001 -25.311   4.817  0.00  0.00    +0.084 C 
ENDBRANCH  12  13
ENDBRANCH  10  12
ENDBRANCH   1  10
TORSDOF 4
ENDMDL
MODEL 8
REMARK VINA RESULT:      -7.9      1.941      3.285
REMARK  Name = *****
REMARK                            x       y       z     vdW  Elec       q    Type
REMARK                         _______ _______ _______ _____ _____    ______ ____
ROOT
ATOM      1  C   LIG    1       24.996 -25.023   5.337  0.00  0.00    +0.167 C 
ATOM      2  O   LIG    1       25.227 -24.987   4.124  0.00  0.00    -0.292 OA
ENDROOT
BRANCH   1   7
ATOM      3  C   LIG    1       25.311 -30.103   8.106  0.00  0.00    +0.044 C 
ATOM      4  C   LIG    1       25.232 -28.781   7.399  0.00  0.00    -0.050 A 
ATOM      5  C   LIG    1       26.073 -27.727   7.769  0.00  0.00    +0.004 A 
ATOM      6  C   LIG    1       26.001 -26.499   7.111  0.00  0.00    +0.012 A 
ATOM      7  C   LIG    1       25.101 -26.320   6.052  0.00  0.00    +0.018 A 
ATOM      8  C   LIG    1       24.266 -27.375   5.671  0.00  0.00    +0.012 A 
ATOM      9  C   LIG    1       24.335 -28.601   6.338  0.00  0.00    +0.004 A 
ENDBRANCH   1   7
BRANCH   1  10
ATOM     10  C   LIG    1       24.593 -23.783   6.122  0.00  0.00    +0.071 C 
ATOM     11  C   LIG    1       23.211 -24.020   6.748  0.00  0.00    +0.017 C 
BRANCH  10  12
ATOM     12  C   LIG    1       24.586 -22.562   5.185  0.00  0.00    +0.095 C 
BRANCH  12  13
ATOM     13  N   LIG    1       24.747 -21.241   5.835  0.00  0.00    -0.302 NA
ATOM     14  C   LIG    1       25.490 -20.314   4.962  0.00  0.00    +0.084 C 
ATOM     15  C   LIG    1       24.677 -19.814   3.762  0.00  0.00    +0.015 C 
ATOM     16  C   LIG    1       23.331 -19.231   4.188  0.00  0.00    +0.002 C 
ATOM     17  C   LIG    1       22.596 -20.161   5.149  0.00  0.00    +0.015 C 
ATOM     18  C   LIG    1       23.511 -20.596   6.293  0.00  0.00    +0.084 C 
ENDBRANCH  12  13
ENDBRANCH  10  12
ENDBRANCH   1  10
TORSDOF 4
ENDMDL
MODEL 9
REMARK VINA RESULT:      -7.9      2.739      5.724
REMARK  Name = *****
REMARK                            x       y       z     vdW  Elec       q    Type
REMARK                         _______ _______ _______ _____ _____    ______ ____
ROOT
ATOM      1  C   LIG    1       25.588 -22.064   6.484  0.00  0.00    +0.167 C 
ATOM      2  O   LIG    1       25.546 -23.246   6.125  0.00  0.00    -0.292 OA
ENDROOT
BRANCH   1   7
ATOM      3  C   LIG    1       21.994 -18.275   3.975  0.00  0.00    +0.044 C 
ATOM      4  C   LIG    1       22.928 -19.260   4.614  0.00  0.00    -0.050 A 
ATOM      5  C   LIG    1       24.165 -19.549   4.028  0.00  0.00    +0.004 A 
ATOM      6  C   LIG    1       25.035 -20.463   4.623  0.00  0.00    +0.012 A 
ATOM      7  C   LIG    1       24.687 -21.081   5.831  0.00  0.00    +0.018 A 
ATOM      8  C   LIG    1       23.457 -20.788   6.427  0.00  0.00    +0.012 A 
ATOM      9  C   LIG    1       22.584 -19.877   5.824  0.00  0.00    +0.004 A 
ENDBRANCH   1   7
BRANCH   1  10
ATOM     10  C   LIG    1       26.542 -21.579   7.566  0.00  0.00    +0.071 C 
ATOM     11  C   LIG    1       25.723 -21.140   8.788  0.00  0.00    +0.017 C 
BRANCH  10  12
ATOM     12  C   LIG    1       27.399 -20.425   7.015  0.00  0.00    +0.095 C 
BRANCH  12  13
ATOM     13  N   LIG    1       28.805 -20.756   6.690  0.00  0.00    -0.302 NA
ATOM     14  C   LIG    1       29.335 -19.840   5.662  0.00  0.00    +0.084 C 
ATOM     15  C   LIG    1       29.610 -18.424   6.183  0.00  0.00    +0.015 C 
ATOM     16  C   LIG    1       30.487 -18.437   7.433  0.00  0.00    +0.002 C 
ATOM     17  C   LIG    1       29.977 -19.438   8.466  0.00  0.00    +0.015 C 
ATOM     18  C   LIG    1       29.733 -20.804   7.826  0.00  0.00    +0.084 C 
ENDBRANCH  12  13
ENDBRANCH  10  12
ENDBRANCH   1  10
TORSDOF 4
ENDMDL
