MODEL 1
REMARK VINA RESULT:      -6.6      0.000      0.000
REMARK  Name = *****
REMARK                            x       y       z     vdW  Elec       q    Type
REMARK                         _______ _______ _______ _____ _____    ______ ____
ROOT
ATOM      1  C   LIG    1       22.869 -30.246  11.965  0.00  0.00    +0.015 C 
ATOM      2  C   LIG    1       22.006 -31.427  12.503  0.00  0.00    +0.018 C 
ATOM      3  C   LIG    1       22.355 -28.907  12.618  0.00  0.00    +0.128 C 
ATOM      4  C   LIG    1       22.851 -28.696  14.081  0.00  0.00    +0.022 C 
ATOM      5  C   LIG    1       21.695 -28.440  15.076  0.00  0.00    +0.010 C 
ATOM      6  C   LIG    1       24.019 -27.637  14.230  0.00  0.00    -0.014 C 
ATOM      7  C   LIG    1       24.998 -27.467  13.014  0.00  0.00    +0.071 C 
ATOM      8  C   LIG    1       25.453 -26.006  13.199  0.00  0.00    +0.138 C 
ATOM      9  O   LIG    1       26.354 -25.449  12.583  0.00  0.00    -0.297 OA
ATOM     10  C   LIG    1       24.577 -25.242  14.149  0.00  0.00    +0.075 C 
ATOM     11  C   LIG    1       26.082 -28.582  12.798  0.00  0.00    +0.018 C 
ATOM     12  C   LIG    1       27.307 -27.982  12.019  0.00  0.00    +0.016 C 
ATOM     13  C   LIG    1       26.685 -29.097  14.165  0.00  0.00    -0.004 C 
ATOM     14  C   LIG    1       27.506 -30.392  14.088  0.00  0.00    +0.008 C 
ATOM     15  C   LIG    1       25.705 -29.214  15.337  0.00  0.00    +0.004 C 
ATOM     16  C   LIG    1       25.487 -29.679  11.800  0.00  0.00    +0.184 C 
ATOM     17  C   LIG    1       24.853 -27.966  15.499  0.00  0.00    +0.008 C 
ATOM     18  C   LIG    1       23.428 -26.210  14.365  0.00  0.00    +0.015 C 
ATOM     19  C   LIG    1       24.360 -30.611  12.283  0.00  0.00    +0.058 C 
ENDROOT
BRANCH   1  21
ATOM     20  C   LIG    1       22.502 -31.116   9.558  0.00  0.00    +0.004 C 
ATOM     21  C   LIG    1       22.699 -30.126  10.442  0.00  0.00    -0.025 C 
ENDBRANCH   1  21
BRANCH   3  22
ATOM     22  O   LIG    1       20.921 -28.888  12.563  0.00  0.00    -0.391 OA
ATOM     23  H   LIG    1       20.580 -29.222  13.410  0.00  0.00    +0.210 HD
ENDBRANCH   3  22
BRANCH  16  24
ATOM     24  O   LIG    1       26.593 -30.536  11.386  0.00  0.00    -0.460 OA
BRANCH  24  25
ATOM     25  C   LIG    1       26.643 -30.924  10.080  0.00  0.00    +0.317 C 
ATOM     26  O   LIG    1       26.814 -32.070   9.690  0.00  0.00    -0.250 OA
BRANCH  25  27
ATOM     27  C   LIG    1       26.419 -29.744   9.167  0.00  0.00    +0.189 C 
BRANCH  27  28
ATOM     28  S   LIG    1       25.294 -30.114   7.787  0.00  0.00    -0.146 S 
BRANCH  28  29
ATOM     29  C   LIG    1       25.073 -28.440   7.061  0.00  0.00    +0.050 C 
ATOM     30  C   LIG    1       26.195 -27.462   7.449  0.00  0.00    +0.033 C 
ATOM     31  C   LIG    1       26.197 -26.201   6.568  0.00  0.00    +0.058 C 
ATOM     32  N   LIG    1       26.319 -26.522   5.144  0.00  0.00    -0.299 NA
ATOM     33  C   LIG    1       27.528 -27.230   4.759  0.00  0.00    +0.105 C 
ATOM     34  C   LIG    1       25.053 -27.192   4.829  0.00  0.00    +0.058 C 
ATOM     35  C   LIG    1       24.067 -26.166   5.405  0.00  0.00    +0.020 C 
ATOM     36  C   LIG    1       24.824 -25.516   6.572  0.00  0.00    +0.020 C 
ATOM     37  C   LIG    1       24.918 -28.559   5.532  0.00  0.00    +0.033 C 
ENDBRANCH  28  29
ENDBRANCH  27  28
ENDBRANCH  25  27
ENDBRANCH  24  25
ENDBRANCH  16  24
TORSDOF 7
ENDMDL
MODEL 2
REMARK VINA RESULT:      -6.4      1.571      2.315
REMARK  Name = *****
REMARK                            x       y       z     vdW  Elec       q    Type
REMARK                         _______ _______ _______ _____ _____    ______ ____
ROOT
ATOM      1  C   LIG    1       22.966 -31.219  10.523  0.00  0.00    +0.015 C 
ATOM      2  C   LIG    1       22.752 -32.761  10.465  0.00  0.00    +0.018 C 
ATOM      3  C   LIG    1       21.618 -30.539  10.978  0.00  0.00    +0.128 C 
ATOM      4  C   LIG    1       21.360 -30.632  12.512  0.00  0.00    +0.022 C 
ATOM      5  C   LIG    1       19.984 -31.251  12.853  0.00  0.00    +0.010 C 
ATOM      6  C   LIG    1       21.627 -29.287  13.304  0.00  0.00    -0.014 C 
ATOM      7  C   LIG    1       22.717 -28.314  12.727  0.00  0.00    +0.071 C 
ATOM      8  C   LIG    1       22.210 -26.955  13.249  0.00  0.00    +0.138 C 
ATOM      9  O   LIG    1       22.817 -25.892  13.196  0.00  0.00    -0.297 OA
ATOM     10  C   LIG    1       20.790 -27.013  13.733  0.00  0.00    +0.075 C 
ATOM     11  C   LIG    1       24.221 -28.703  12.949  0.00  0.00    +0.018 C 
ATOM     12  C   LIG    1       25.112 -27.409  12.913  0.00  0.00    +0.016 C 
ATOM     13  C   LIG    1       24.470 -29.325  14.380  0.00  0.00    -0.004 C 
ATOM     14  C   LIG    1       25.821 -30.026  14.579  0.00  0.00    +0.008 C 
ATOM     15  C   LIG    1       23.366 -30.239  14.923  0.00  0.00    +0.004 C 
ATOM     16  C   LIG    1       24.716 -29.549  11.686  0.00  0.00    +0.184 C 
ATOM     17  C   LIG    1       21.986 -29.620  14.779  0.00  0.00    +0.008 C 
ATOM     18  C   LIG    1       20.359 -28.395  13.278  0.00  0.00    +0.015 C 
ATOM     19  C   LIG    1       24.186 -30.980  11.479  0.00  0.00    +0.058 C 
ENDROOT
BRANCH   1  21
ATOM     20  C   LIG    1       23.676 -31.396   8.043  0.00  0.00    +0.004 C 
ATOM     21  C   LIG    1       23.316 -30.686   9.124  0.00  0.00    -0.025 C 
ENDBRANCH   1  21
BRANCH   3  22
ATOM     22  O   LIG    1       20.534 -31.129  10.246  0.00  0.00    -0.391 OA
ATOM     23  H   LIG    1       20.458 -32.060  10.515  0.00  0.00    +0.210 HD
ENDBRANCH   3  22
BRANCH  16  24
ATOM     24  O   LIG    1       26.169 -29.647  11.770  0.00  0.00    -0.460 OA
BRANCH  24  25
ATOM     25  C   LIG    1       26.869 -29.750  10.605  0.00  0.00    +0.317 C 
ATOM     26  O   LIG    1       27.588 -30.688  10.294  0.00  0.00    -0.250 OA
BRANCH  25  27
ATOM     27  C   LIG    1       26.605 -28.556   9.720  0.00  0.00    +0.189 C 
BRANCH  27  28
ATOM     28  S   LIG    1       26.038 -29.015   8.055  0.00  0.00    -0.146 S 
BRANCH  28  29
ATOM     29  C   LIG    1       25.511 -27.378   7.405  0.00  0.00    +0.050 C 
ATOM     30  C   LIG    1       26.673 -26.566   6.807  0.00  0.00    +0.033 C 
ATOM     31  C   LIG    1       26.177 -25.381   5.959  0.00  0.00    +0.058 C 
ATOM     32  N   LIG    1       25.291 -25.811   4.875  0.00  0.00    -0.299 NA
ATOM     33  C   LIG    1       25.875 -26.724   3.908  0.00  0.00    +0.105 C 
ATOM     34  C   LIG    1       24.094 -26.292   5.573  0.00  0.00    +0.058 C 
ATOM     35  C   LIG    1       23.827 -25.088   6.487  0.00  0.00    +0.020 C 
ATOM     36  C   LIG    1       25.215 -24.490   6.756  0.00  0.00    +0.020 C 
ATOM     37  C   LIG    1       24.364 -27.572   6.393  0.00  0.00    +0.033 C 
ENDBRANCH  28  29
ENDBRANCH  27  28
ENDBRANCH  25  27
ENDBRANCH  24  25
ENDBRANCH  16  24
TORSDOF 7
ENDMDL
MODEL 3
REMARK VINA RESULT:      -5.9      2.152      3.035
REMARK  Name = *****
REMARK                            x       y       z     vdW  Elec       q    Type
REMARK                         _______ _______ _______ _____ _____    ______ ____
ROOT
ATOM      1  C   LIG    1       22.541 -30.166  11.953  0.00  0.00    +0.015 C 
ATOM      2  C   LIG    1       21.522 -31.216  12.489  0.00  0.00    +0.018 C 
ATOM      3  C   LIG    1       22.173 -28.754  12.552  0.00  0.00    +0.128 C 
ATOM      4  C   LIG    1       22.640 -28.560  14.026  0.00  0.00    +0.022 C 
ATOM      5  C   LIG    1       21.491 -28.135  14.969  0.00  0.00    +0.010 C 
ATOM      6  C   LIG    1       23.924 -27.648  14.192  0.00  0.00    -0.014 C 
ATOM      7  C   LIG    1       24.958 -27.636  13.009  0.00  0.00    +0.071 C 
ATOM      8  C   LIG    1       25.582 -26.235  13.174  0.00  0.00    +0.138 C 
ATOM      9  O   LIG    1       26.565 -25.812  12.578  0.00  0.00    -0.297 OA
ATOM     10  C   LIG    1       24.774 -25.342  14.069  0.00  0.00    +0.075 C 
ATOM     11  C   LIG    1       25.904 -28.880  12.865  0.00  0.00    +0.018 C 
ATOM     12  C   LIG    1       27.219 -28.458  12.117  0.00  0.00    +0.016 C 
ATOM     13  C   LIG    1       26.391 -29.422  14.266  0.00  0.00    -0.004 C 
ATOM     14  C   LIG    1       27.049 -30.809  14.254  0.00  0.00    +0.008 C 
ATOM     15  C   LIG    1       25.364 -29.383  15.403  0.00  0.00    +0.004 C 
ATOM     16  C   LIG    1       25.213 -29.927  11.873  0.00  0.00    +0.184 C 
ATOM     17  C   LIG    1       24.667 -28.037  15.500  0.00  0.00    +0.008 C 
ATOM     18  C   LIG    1       23.508 -26.156  14.266  0.00  0.00    +0.015 C 
ATOM     19  C   LIG    1       23.964 -30.700  12.338  0.00  0.00    +0.058 C 
ENDROOT
BRANCH   1  21
ATOM     20  C   LIG    1       22.613 -31.057   9.528  0.00  0.00    +0.004 C 
ATOM     21  C   LIG    1       22.440 -30.072  10.423  0.00  0.00    -0.025 C 
ENDBRANCH   1  21
BRANCH   3  22
ATOM     22  O   LIG    1       20.755 -28.562  12.442  0.00  0.00    -0.391 OA
ATOM     23  H   LIG    1       20.496 -28.734  11.521  0.00  0.00    +0.210 HD
ENDBRANCH   3  22
BRANCH  16  24
ATOM     24  O   LIG    1       26.219 -30.924  11.525  0.00  0.00    -0.460 OA
BRANCH  24  25
ATOM     25  C   LIG    1       26.373 -31.238  10.208  0.00  0.00    +0.317 C 
ATOM     26  O   LIG    1       26.836 -30.495   9.354  0.00  0.00    -0.250 OA
BRANCH  25  27
ATOM     27  C   LIG    1       25.929 -32.656   9.944  0.00  0.00    +0.189 C 
BRANCH  27  28
ATOM     28  S   LIG    1       27.012 -33.538   8.780  0.00  0.00    -0.146 S 
BRANCH  28  29
ATOM     29  C   LIG    1       26.092 -33.304   7.205  0.00  0.00    +0.050 C 
ATOM     30  C   LIG    1       24.603 -32.984   7.420  0.00  0.00    +0.033 C 
ATOM     31  C   LIG    1       23.935 -32.446   6.142  0.00  0.00    +0.058 C 
ATOM     32  N   LIG    1       24.608 -31.251   5.629  0.00  0.00    -0.299 NA
ATOM     33  C   LIG    1       24.636 -30.109   6.526  0.00  0.00    +0.105 C 
ATOM     34  C   LIG    1       25.912 -31.751   5.181  0.00  0.00    +0.058 C 
ATOM     35  C   LIG    1       25.452 -32.929   4.311  0.00  0.00    +0.020 C 
ATOM     36  C   LIG    1       24.144 -33.402   4.960  0.00  0.00    +0.020 C 
ATOM     37  C   LIG    1       26.795 -32.228   6.354  0.00  0.00    +0.033 C 
ENDBRANCH  28  29
ENDBRANCH  27  28
ENDBRANCH  25  27
ENDBRANCH  24  25
ENDBRANCH  16  24
TORSDOF 7
ENDMDL
MODEL 4
REMARK VINA RESULT:      -5.9      3.740      7.844
REMARK  Name = *****
REMARK                            x       y       z     vdW  Elec       q    Type
REMARK                         _______ _______ _______ _____ _____    ______ ____
ROOT
ATOM      1  C   LIG    1       25.247 -27.702  13.443  0.00  0.00    +0.015 C 
ATOM      2  C   LIG    1       26.137 -27.658  14.721  0.00  0.00    +0.018 C 
ATOM      3  C   LIG    1       26.181 -27.857  12.183  0.00  0.00    +0.128 C 
ATOM      4  C   LIG    1       26.695 -29.312  11.962  0.00  0.00    +0.022 C 
ATOM      5  C   LIG    1       28.235 -29.395  11.854  0.00  0.00    +0.010 C 
ATOM      6  C   LIG    1       25.967 -30.093  10.792  0.00  0.00    -0.014 C 
ATOM      7  C   LIG    1       24.474 -29.710  10.488  0.00  0.00    +0.071 C 
ATOM      8  C   LIG    1       24.371 -30.072   8.993  0.00  0.00    +0.138 C 
ATOM      9  O   LIG    1       23.342 -30.103   8.330  0.00  0.00    -0.297 OA
ATOM     10  C   LIG    1       25.714 -30.267   8.350  0.00  0.00    +0.075 C 
ATOM     11  C   LIG    1       23.377 -30.239  11.478  0.00  0.00    +0.018 C 
ATOM     12  C   LIG    1       21.997 -30.334  10.734  0.00  0.00    +0.016 C 
ATOM     13  C   LIG    1       23.676 -31.712  11.965  0.00  0.00    -0.004 C 
ATOM     14  C   LIG    1       22.853 -32.199  13.166  0.00  0.00    +0.008 C 
ATOM     15  C   LIG    1       25.148 -32.057  12.215  0.00  0.00    +0.004 C 
ATOM     16  C   LIG    1       23.135 -29.130  12.604  0.00  0.00    +0.184 C 
ATOM     17  C   LIG    1       26.043 -31.620  11.067  0.00  0.00    +0.008 C 
ATOM     18  C   LIG    1       26.656 -29.785   9.438  0.00  0.00    +0.015 C 
ATOM     19  C   LIG    1       24.225 -28.872  13.661  0.00  0.00    +0.058 C 
ENDROOT
BRANCH   1  21
ATOM     20  C   LIG    1       24.670 -25.239  13.972  0.00  0.00    +0.004 C 
ATOM     21  C   LIG    1       24.472 -26.383  13.300  0.00  0.00    -0.025 C 
ENDBRANCH   1  21
BRANCH   3  22
ATOM     22  O   LIG    1       27.283 -26.946  12.311  0.00  0.00    -0.391 OA
ATOM     23  H   LIG    1       26.980 -26.063  12.041  0.00  0.00    +0.210 HD
ENDBRANCH   3  22
BRANCH  16  24
ATOM     24  O   LIG    1       21.926 -29.503  13.330  0.00  0.00    -0.460 OA
BRANCH  24  25
ATOM     25  C   LIG    1       21.104 -28.503  13.754  0.00  0.00    +0.317 C 
ATOM     26  O   LIG    1       20.873 -27.471  13.141  0.00  0.00    -0.250 OA
BRANCH  25  27
ATOM     27  C   LIG    1       20.476 -28.857  15.080  0.00  0.00    +0.189 C 
BRANCH  27  28
ATOM     28  S   LIG    1       18.668 -29.023  14.991  0.00  0.00    -0.146 S 
BRANCH  28  29
ATOM     29  C   LIG    1       18.498 -30.257  13.639  0.00  0.00    +0.050 C 
ATOM     30  C   LIG    1       19.140 -31.613  13.979  0.00  0.00    +0.033 C 
ATOM     31  C   LIG    1       18.691 -32.726  13.015  0.00  0.00    +0.058 C 
ATOM     32  N   LIG    1       17.235 -32.882  12.994  0.00  0.00    -0.299 NA
ATOM     33  C   LIG    1       16.620 -33.236  14.261  0.00  0.00    +0.105 C 
ATOM     34  C   LIG    1       16.760 -31.640  12.372  0.00  0.00    +0.058 C 
ATOM     35  C   LIG    1       17.649 -31.621  11.121  0.00  0.00    +0.020 C 
ATOM     36  C   LIG    1       18.941 -32.331  11.553  0.00  0.00    +0.020 C 
ATOM     37  C   LIG    1       17.011 -30.403  13.260  0.00  0.00    +0.033 C 
ENDBRANCH  28  29
ENDBRANCH  27  28
ENDBRANCH  25  27
ENDBRANCH  24  25
ENDBRANCH  16  24
TORSDOF 7
ENDMDL
MODEL 5
REMARK VINA RESULT:      -5.6      1.813      4.379
REMARK  Name = *****
REMARK                            x       y       z     vdW  Elec       q    Type
REMARK                         _______ _______ _______ _____ _____    ______ ____
ROOT
ATOM      1  C   LIG    1       22.308 -27.922  13.448  0.00  0.00    +0.015 C 
ATOM      2  C   LIG    1       21.418 -26.714  13.029  0.00  0.00    +0.018 C 
ATOM      3  C   LIG    1       21.530 -28.773  14.524  0.00  0.00    +0.128 C 
ATOM      4  C   LIG    1       20.436 -29.700  13.914  0.00  0.00    +0.022 C 
ATOM      5  C   LIG    1       19.044 -29.486  14.553  0.00  0.00    +0.010 C 
ATOM      6  C   LIG    1       20.838 -31.230  13.845  0.00  0.00    -0.014 C 
ATOM      7  C   LIG    1       22.363 -31.569  13.684  0.00  0.00    +0.071 C 
ATOM      8  C   LIG    1       22.432 -32.958  14.351  0.00  0.00    +0.138 C 
ATOM      9  O   LIG    1       23.393 -33.717  14.334  0.00  0.00    -0.297 OA
ATOM     10  C   LIG    1       21.216 -33.266  15.175  0.00  0.00    +0.075 C 
ATOM     11  C   LIG    1       23.000 -31.373  12.264  0.00  0.00    +0.018 C 
ATOM     12  C   LIG    1       24.251 -32.312  12.112  0.00  0.00    +0.016 C 
ATOM     13  C   LIG    1       22.020 -31.816  11.106  0.00  0.00    -0.004 C 
ATOM     14  C   LIG    1       22.413 -31.372   9.690  0.00  0.00    +0.008 C 
ATOM     15  C   LIG    1       20.535 -31.500  11.318  0.00  0.00    +0.004 C 
ATOM     16  C   LIG    1       23.611 -29.898  12.182  0.00  0.00    +0.184 C 
ATOM     17  C   LIG    1       20.050 -31.918  12.696  0.00  0.00    +0.008 C 
ATOM     18  C   LIG    1       20.496 -31.930  15.186  0.00  0.00    +0.015 C 
ATOM     19  C   LIG    1       22.661 -28.687  12.125  0.00  0.00    +0.058 C 
ENDROOT
BRANCH   1  21
ATOM     20  C   LIG    1       24.458 -26.497  13.611  0.00  0.00    +0.004 C 
ATOM     21  C   LIG    1       23.607 -27.415  14.094  0.00  0.00    -0.025 C 
ENDBRANCH   1  21
BRANCH   3  22
ATOM     22  O   LIG    1       20.956 -27.880  15.490  0.00  0.00    -0.391 OA
ATOM     23  H   LIG    1       20.102 -27.570  15.146  0.00  0.00    +0.210 HD
ENDBRANCH   3  22
BRANCH  16  24
ATOM     24  O   LIG    1       24.443 -29.837  10.986  0.00  0.00    -0.460 OA
BRANCH  24  25
ATOM     25  C   LIG    1       25.711 -29.356  11.116  0.00  0.00    +0.317 C 
ATOM     26  O   LIG    1       26.336 -29.286  12.165  0.00  0.00    -0.250 OA
BRANCH  25  27
ATOM     27  C   LIG    1       26.266 -28.949   9.773  0.00  0.00    +0.189 C 
BRANCH  27  28
ATOM     28  S   LIG    1       25.268 -29.550   8.378  0.00  0.00    -0.146 S 
BRANCH  28  29
ATOM     29  C   LIG    1       25.075 -28.007   7.398  0.00  0.00    +0.050 C 
ATOM     30  C   LIG    1       26.314 -27.096   7.461  0.00  0.00    +0.033 C 
ATOM     31  C   LIG    1       26.288 -26.005   6.375  0.00  0.00    +0.058 C 
ATOM     32  N   LIG    1       26.182 -26.570   5.028  0.00  0.00    -0.299 NA
ATOM     33  C   LIG    1       27.265 -27.450   4.626  0.00  0.00    +0.105 C 
ATOM     34  C   LIG    1       24.835 -27.152   5.000  0.00  0.00    +0.058 C 
ATOM     35  C   LIG    1       24.024 -25.950   5.503  0.00  0.00    +0.020 C 
ATOM     36  C   LIG    1       24.986 -25.195   6.431  0.00  0.00    +0.020 C 
ATOM     37  C   LIG    1       24.696 -28.363   5.947  0.00  0.00    +0.033 C 
ENDBRANCH  28  29
ENDBRANCH  27  28
ENDBRANCH  25  27
ENDBRANCH  24  25
ENDBRANCH  16  24
TORSDOF 7
ENDMDL
MODEL 6
REMARK VINA RESULT:      -5.6      2.710      5.416
REMARK  Name = *****
REMARK                            x       y       z     vdW  Elec       q    Type
REMARK                         _______ _______ _______ _____ _____    ______ ____
ROOT
ATOM      1  C   LIG    1       21.150 -27.803  13.555  0.00  0.00    +0.015 C 
ATOM      2  C   LIG    1       20.325 -26.642  12.925  0.00  0.00    +0.018 C 
ATOM      3  C   LIG    1       20.229 -28.585  14.569  0.00  0.00    +0.128 C 
ATOM      4  C   LIG    1       19.236 -29.569  13.880  0.00  0.00    +0.022 C 
ATOM      5  C   LIG    1       17.766 -29.328  14.297  0.00  0.00    +0.010 C 
ATOM      6  C   LIG    1       19.649 -31.094  13.982  0.00  0.00    -0.014 C 
ATOM      7  C   LIG    1       21.183 -31.422  14.066  0.00  0.00    +0.071 C 
ATOM      8  C   LIG    1       21.161 -32.758  14.836  0.00  0.00    +0.138 C 
ATOM      9  O   LIG    1       22.117 -33.503  15.012  0.00  0.00    -0.297 OA
ATOM     10  C   LIG    1       19.840 -33.022  15.499  0.00  0.00    +0.075 C 
ATOM     11  C   LIG    1       22.016 -31.322  12.739  0.00  0.00    +0.018 C 
ATOM     12  C   LIG    1       23.278 -32.251  12.837  0.00  0.00    +0.016 C 
ATOM     13  C   LIG    1       21.213 -31.861  11.490  0.00  0.00    -0.004 C 
ATOM     14  C   LIG    1       21.803 -31.515  10.116  0.00  0.00    +0.008 C 
ATOM     15  C   LIG    1       19.712 -31.551  11.464  0.00  0.00    +0.004 C 
ATOM     16  C   LIG    1       22.627 -29.848  12.637  0.00  0.00    +0.184 C 
ATOM     17  C   LIG    1       19.036 -31.874  12.786  0.00  0.00    +0.008 C 
ATOM     18  C   LIG    1       19.122 -31.699  15.309  0.00  0.00    +0.015 C 
ATOM     19  C   LIG    1       21.691 -28.657  12.356  0.00  0.00    +0.058 C 
ENDROOT
BRANCH   1  21
ATOM     20  C   LIG    1       23.270 -26.367  13.906  0.00  0.00    +0.004 C 
ATOM     21  C   LIG    1       22.342 -27.233  14.340  0.00  0.00    -0.025 C 
ENDBRANCH   1  21
BRANCH   3  22
ATOM     22  O   LIG    1       19.520 -27.632  15.375  0.00  0.00    -0.391 OA
ATOM     23  H   LIG    1       19.010 -27.054  14.783  0.00  0.00    +0.210 HD
ENDBRANCH   3  22
BRANCH  16  24
ATOM     24  O   LIG    1       23.621 -29.862  11.570  0.00  0.00    -0.460 OA
BRANCH  24  25
ATOM     25  C   LIG    1       24.864 -29.380  11.852  0.00  0.00    +0.317 C 
ATOM     26  O   LIG    1       25.281 -29.111  12.969  0.00  0.00    -0.250 OA
BRANCH  25  27
ATOM     27  C   LIG    1       25.685 -29.257  10.591  0.00  0.00    +0.189 C 
BRANCH  27  28
ATOM     28  S   LIG    1       26.280 -30.858   9.968  0.00  0.00    -0.146 S 
BRANCH  28  29
ATOM     29  C   LIG    1       25.879 -30.706   8.181  0.00  0.00    +0.050 C 
ATOM     30  C   LIG    1       26.146 -31.999   7.392  0.00  0.00    +0.033 C 
ATOM     31  C   LIG    1       25.485 -31.979   6.002  0.00  0.00    +0.058 C 
ATOM     32  N   LIG    1       24.039 -31.762   6.083  0.00  0.00    -0.299 NA
ATOM     33  C   LIG    1       23.291 -32.764   6.820  0.00  0.00    +0.105 C 
ATOM     34  C   LIG    1       23.920 -30.383   6.569  0.00  0.00    +0.058 C 
ATOM     35  C   LIG    1       24.849 -29.677   5.572  0.00  0.00    +0.020 C 
ATOM     36  C   LIG    1       25.900 -30.735   5.206  0.00  0.00    +0.020 C 
ATOM     37  C   LIG    1       24.424 -30.223   8.019  0.00  0.00    +0.033 C 
ENDBRANCH  28  29
ENDBRANCH  27  28
ENDBRANCH  25  27
ENDBRANCH  24  25
ENDBRANCH  16  24
TORSDOF 7
ENDMDL
MODEL 7
REMARK VINA RESULT:      -5.6      3.310      6.622
REMARK  Name = *****
REMARK                            x       y       z     vdW  Elec       q    Type
REMARK                         _______ _______ _______ _____ _____    ______ ____
ROOT
ATOM      1  C   LIG    1       25.410 -29.434  10.463  0.00  0.00    +0.015 C 
ATOM      2  C   LIG    1       24.378 -29.318  11.624  0.00  0.00    +0.018 C 
ATOM      3  C   LIG    1       26.223 -30.773  10.642  0.00  0.00    +0.128 C 
ATOM      4  C   LIG    1       25.448 -32.042  10.175  0.00  0.00    +0.022 C 
ATOM      5  C   LIG    1       25.364 -33.132  11.269  0.00  0.00    +0.010 C 
ATOM      6  C   LIG    1       25.922 -32.624   8.781  0.00  0.00    -0.014 C 
ATOM      7  C   LIG    1       26.510 -31.607   7.737  0.00  0.00    +0.071 C 
ATOM      8  C   LIG    1       27.452 -32.521   6.928  0.00  0.00    +0.138 C 
ATOM      9  O   LIG    1       28.026 -32.222   5.888  0.00  0.00    -0.297 OA
ATOM     10  C   LIG    1       27.730 -33.824   7.620  0.00  0.00    +0.075 C 
ATOM     11  C   LIG    1       25.492 -30.692   6.969  0.00  0.00    +0.018 C 
ATOM     12  C   LIG    1       26.113 -30.247   5.597  0.00  0.00    +0.016 C 
ATOM     13  C   LIG    1       24.170 -31.467   6.582  0.00  0.00    -0.004 C 
ATOM     14  C   LIG    1       22.994 -30.594   6.121  0.00  0.00    +0.008 C 
ATOM     15  C   LIG    1       23.650 -32.476   7.611  0.00  0.00    +0.004 C 
ATOM     16  C   LIG    1       25.328 -29.325   7.782  0.00  0.00    +0.184 C 
ATOM     17  C   LIG    1       24.748 -33.396   8.118  0.00  0.00    +0.008 C 
ATOM     18  C   LIG    1       27.116 -33.591   8.988  0.00  0.00    +0.015 C 
ATOM     19  C   LIG    1       24.586 -29.331   9.132  0.00  0.00    +0.058 C 
ENDROOT
BRANCH   1  21
ATOM     20  C   LIG    1       26.896 -27.666  11.623  0.00  0.00    +0.004 C 
ATOM     21  C   LIG    1       26.404 -28.264  10.527  0.00  0.00    -0.025 C 
ENDBRANCH   1  21
BRANCH   3  22
ATOM     22  O   LIG    1       26.611 -30.896  12.019  0.00  0.00    -0.391 OA
ATOM     23  H   LIG    1       27.509 -31.266  12.049  0.00  0.00    +0.210 HD
ENDBRANCH   3  22
BRANCH  16  24
ATOM     24  O   LIG    1       24.620 -28.387   6.918  0.00  0.00    -0.460 OA
BRANCH  24  25
ATOM     25  C   LIG    1       25.165 -27.150   6.741  0.00  0.00    +0.317 C 
ATOM     26  O   LIG    1       26.223 -26.769   7.220  0.00  0.00    -0.250 OA
BRANCH  25  27
ATOM     27  C   LIG    1       24.299 -26.314   5.831  0.00  0.00    +0.189 C 
BRANCH  27  28
ATOM     28  S   LIG    1       25.223 -25.006   4.971  0.00  0.00    -0.146 S 
BRANCH  28  29
ATOM     29  C   LIG    1       24.555 -23.506   5.798  0.00  0.00    +0.050 C 
ATOM     30  C   LIG    1       25.253 -23.193   7.132  0.00  0.00    +0.033 C 
ATOM     31  C   LIG    1       24.944 -21.770   7.629  0.00  0.00    +0.058 C 
ATOM     32  N   LIG    1       25.317 -20.750   6.647  0.00  0.00    -0.299 NA
ATOM     33  C   LIG    1       26.723 -20.706   6.287  0.00  0.00    +0.105 C 
ATOM     34  C   LIG    1       24.376 -20.968   5.543  0.00  0.00    +0.058 C 
ATOM     35  C   LIG    1       23.056 -20.976   6.326  0.00  0.00    +0.020 C 
ATOM     36  C   LIG    1       23.431 -21.525   7.710  0.00  0.00    +0.020 C 
ATOM     37  C   LIG    1       24.613 -22.313   4.823  0.00  0.00    +0.033 C 
ENDBRANCH  28  29
ENDBRANCH  27  28
ENDBRANCH  25  27
ENDBRANCH  24  25
ENDBRANCH  16  24
TORSDOF 7
ENDMDL
MODEL 8
REMARK VINA RESULT:      -5.5      3.807      7.277
REMARK  Name = *****
REMARK                            x       y       z     vdW  Elec       q    Type
REMARK                         _______ _______ _______ _____ _____    ______ ____
ROOT
ATOM      1  C   LIG    1       22.313 -28.377  13.516  0.00  0.00    +0.015 C 
ATOM      2  C   LIG    1       22.016 -28.272  15.042  0.00  0.00    +0.018 C 
ATOM      3  C   LIG    1       23.612 -27.543  13.195  0.00  0.00    +0.128 C 
ATOM      4  C   LIG    1       24.934 -28.277  13.575  0.00  0.00    +0.022 C 
ATOM      5  C   LIG    1       25.844 -27.435  14.500  0.00  0.00    +0.010 C 
ATOM      6  C   LIG    1       25.723 -28.883  12.344  0.00  0.00    -0.014 C 
ATOM      7  C   LIG    1       24.880 -29.333  11.096  0.00  0.00    +0.071 C 
ATOM      8  C   LIG    1       25.911 -29.161   9.963  0.00  0.00    +0.138 C 
ATOM      9  O   LIG    1       25.777 -29.541   8.806  0.00  0.00    -0.297 OA
ATOM     10  C   LIG    1       27.095 -28.335  10.375  0.00  0.00    +0.075 C 
ATOM     11  C   LIG    1       24.089 -30.683  11.209  0.00  0.00    +0.018 C 
ATOM     12  C   LIG    1       23.861 -31.282   9.775  0.00  0.00    +0.016 C 
ATOM     13  C   LIG    1       24.908 -31.790  11.984  0.00  0.00    -0.004 C 
ATOM     14  C   LIG    1       24.111 -33.026  12.425  0.00  0.00    +0.008 C 
ATOM     15  C   LIG    1       25.746 -31.305  13.172  0.00  0.00    +0.004 C 
ATOM     16  C   LIG    1       22.613 -30.362  11.734  0.00  0.00    +0.184 C 
ATOM     17  C   LIG    1       26.583 -30.085  12.824  0.00  0.00    +0.008 C 
ATOM     18  C   LIG    1       26.653 -27.806  11.728  0.00  0.00    +0.015 C 
ATOM     19  C   LIG    1       22.410 -29.908  13.192  0.00  0.00    +0.058 C 
ENDROOT
BRANCH   1  21
ATOM     20  C   LIG    1       20.408 -26.698  13.031  0.00  0.00    +0.004 C 
ATOM     21  C   LIG    1       21.151 -27.770  12.714  0.00  0.00    -0.025 C 
ENDBRANCH   1  21
BRANCH   3  22
ATOM     22  O   LIG    1       23.525 -26.278  13.868  0.00  0.00    -0.391 OA
ATOM     23  H   LIG    1       23.356 -25.591  13.202  0.00  0.00    +0.210 HD
ENDBRANCH   3  22
BRANCH  16  24
ATOM     24  O   LIG    1       21.815 -31.569  11.554  0.00  0.00    -0.460 OA
BRANCH  24  25
ATOM     25  C   LIG    1       20.736 -31.501  10.724  0.00  0.00    +0.317 C 
ATOM     26  O   LIG    1       20.247 -30.469  10.286  0.00  0.00    -0.250 OA
BRANCH  25  27
ATOM     27  C   LIG    1       20.240 -32.884  10.382  0.00  0.00    +0.189 C 
BRANCH  27  28
ATOM     28  S   LIG    1       18.480 -32.918   9.928  0.00  0.00    -0.146 S 
BRANCH  28  29
ATOM     29  C   LIG    1       17.691 -32.804  11.584  0.00  0.00    +0.050 C 
ATOM     30  C   LIG    1       18.623 -33.242  12.726  0.00  0.00    +0.033 C 
ATOM     31  C   LIG    1       18.093 -32.812  14.105  0.00  0.00    +0.058 C 
ATOM     32  N   LIG    1       17.887 -31.365  14.190  0.00  0.00    -0.299 NA
ATOM     33  C   LIG    1       19.069 -30.546  13.990  0.00  0.00    +0.105 C 
ATOM     34  C   LIG    1       16.769 -31.118  13.272  0.00  0.00    +0.058 C 
ATOM     35  C   LIG    1       15.775 -32.168  13.786  0.00  0.00    +0.020 C 
ATOM     36  C   LIG    1       16.657 -33.303  14.328  0.00  0.00    +0.020 C 
ATOM     37  C   LIG    1       17.149 -31.377  11.798  0.00  0.00    +0.033 C 
ENDBRANCH  28  29
ENDBRANCH  27  28
ENDBRANCH  25  27
ENDBRANCH  24  25
ENDBRANCH  16  24
TORSDOF 7
ENDMDL
MODEL 9
REMARK VINA RESULT:      -5.5      1.603      4.023
REMARK  Name = *****
REMARK                            x       y       z     vdW  Elec       q    Type
REMARK                         _______ _______ _______ _____ _____    ______ ____
ROOT
ATOM      1  C   LIG    1       26.311 -28.888  12.320  0.00  0.00    +0.015 C 
ATOM      2  C   LIG    1       26.557 -27.400  11.930  0.00  0.00    +0.018 C 
ATOM      3  C   LIG    1       25.652 -28.933  13.752  0.00  0.00    +0.128 C 
ATOM      4  C   LIG    1       24.128 -28.608  13.748  0.00  0.00    +0.022 C 
ATOM      5  C   LIG    1       23.755 -27.465  14.721  0.00  0.00    +0.010 C 
ATOM      6  C   LIG    1       23.188 -29.872  13.916  0.00  0.00    -0.014 C 
ATOM      7  C   LIG    1       23.722 -31.245  13.371  0.00  0.00    +0.071 C 
ATOM      8  C   LIG    1       22.980 -32.238  14.287  0.00  0.00    +0.138 C 
ATOM      9  O   LIG    1       22.942 -33.454  14.148  0.00  0.00    -0.297 OA
ATOM     10  C   LIG    1       22.386 -31.578  15.498  0.00  0.00    +0.075 C 
ATOM     11  C   LIG    1       23.687 -31.468  11.818  0.00  0.00    +0.018 C 
ATOM     12  C   LIG    1       23.626 -33.006  11.507  0.00  0.00    +0.016 C 
ATOM     13  C   LIG    1       22.379 -30.871  11.161  0.00  0.00    -0.004 C 
ATOM     14  C   LIG    1       22.395 -30.750   9.630  0.00  0.00    +0.008 C 
ATOM     15  C   LIG    1       21.871 -29.548  11.745  0.00  0.00    +0.004 C 
ATOM     16  C   LIG    1       25.090 -31.005  11.208  0.00  0.00    +0.184 C 
ATOM     17  C   LIG    1       21.809 -29.578  13.263  0.00  0.00    +0.008 C 
ATOM     18  C   LIG    1       22.984 -30.185  15.420  0.00  0.00    +0.015 C 
ATOM     19  C   LIG    1       25.442 -29.505  11.170  0.00  0.00    +0.058 C 
ENDROOT
BRANCH   1  21
ATOM     20  C   LIG    1       28.793 -29.337  11.757  0.00  0.00    +0.004 C 
ATOM     21  C   LIG    1       27.650 -29.638  12.391  0.00  0.00    -0.025 C 
ENDBRANCH   1  21
BRANCH   3  22
ATOM     22  O   LIG    1       26.360 -28.028  14.613  0.00  0.00    -0.391 OA
ATOM     23  H   LIG    1       27.059 -28.527  15.069  0.00  0.00    +0.210 HD
ENDBRANCH   3  22
BRANCH  16  24
ATOM     24  O   LIG    1       25.147 -31.485   9.832  0.00  0.00    -0.460 OA
BRANCH  24  25
ATOM     25  C   LIG    1       26.350 -31.441   9.192  0.00  0.00    +0.317 C 
ATOM     26  O   LIG    1       27.326 -32.119   9.477  0.00  0.00    -0.250 OA
BRANCH  25  27
ATOM     27  C   LIG    1       26.306 -30.461   8.046  0.00  0.00    +0.189 C 
BRANCH  27  28
ATOM     28  S   LIG    1       24.636 -30.236   7.364  0.00  0.00    -0.146 S 
BRANCH  28  29
ATOM     29  C   LIG    1       24.695 -28.464   6.879  0.00  0.00    +0.050 C 
ATOM     30  C   LIG    1       25.956 -27.743   7.387  0.00  0.00    +0.033 C 
ATOM     31  C   LIG    1       26.171 -26.388   6.689  0.00  0.00    +0.058 C 
ATOM     32  N   LIG    1       26.257 -26.525   5.234  0.00  0.00    -0.299 NA
ATOM     33  C   LIG    1       27.340 -27.357   4.741  0.00  0.00    +0.105 C 
ATOM     34  C   LIG    1       24.903 -26.932   4.841  0.00  0.00    +0.058 C 
ATOM     35  C   LIG    1       24.088 -25.850   5.565  0.00  0.00    +0.020 C 
ATOM     36  C   LIG    1       24.925 -25.499   6.803  0.00  0.00    +0.020 C 
ATOM     37  C   LIG    1       24.541 -28.344   5.349  0.00  0.00    +0.033 C 
ENDBRANCH  28  29
ENDBRANCH  27  28
ENDBRANCH  25  27
ENDBRANCH  24  25
ENDBRANCH  16  24
TORSDOF 7
ENDMDL
