MODEL 1
REMARK VINA RESULT:      -9.2      0.000      0.000
REMARK  Name = *****
REMARK                            x       y       z     vdW  Elec       q    Type
REMARK                         _______ _______ _______ _____ _____    ______ ____
ROOT
ATOM      1  C   LIG    1       23.575 -32.178  13.833  0.00  0.00    +0.048 C 
ATOM      2  C   LIG    1       24.431 -31.130  13.142  0.00  0.00    -0.001 A 
ATOM      3  C   LIG    1       24.668 -29.800  13.422  0.00  0.00    +0.138 A 
ATOM      4  C   LIG    1       25.585 -28.838  12.609  0.00  0.00    -0.001 A 
ATOM      5  C   LIG    1       25.971 -27.466  12.990  0.00  0.00    +0.048 C 
ATOM      6  C   LIG    1       26.180 -29.151  11.421  0.00  0.00    +0.001 A 
ATOM      7  C   LIG    1       26.868 -28.302  10.317  0.00  0.00    +0.043 C 
ATOM      8  C   LIG    1       26.245 -28.673   8.962  0.00  0.00    +0.052 C 
ATOM      9  C   LIG    1       25.399 -30.052   8.848  0.00  0.00    +0.108 C 
ATOM     10  O   LIG    1       26.390 -30.619   9.828  0.00  0.00    -0.485 OA
ATOM     11  C   LIG    1       23.536 -30.086   9.690  0.00  0.00    +0.056 C 
ATOM     12  C   LIG    1       25.876 -30.437  11.155  0.00  0.00    +0.128 A 
ATOM     13  C   LIG    1       25.118 -31.466  12.037  0.00  0.00    -0.002 A 
ATOM     14  C   LIG    1       25.066 -32.953  11.854  0.00  0.00    +0.048 C 
ENDROOT
BRANCH   9  15
ATOM     15  C   LIG    1       25.350 -30.719   6.959  0.00  0.00    +0.048 C 
BRANCH  15  16
ATOM     16  C   LIG    1       25.136 -29.518   5.487  0.00  0.00    +0.004 C 
BRANCH  16  17
ATOM     17  C   LIG    1       24.166 -28.450   5.413  0.00  0.00    +0.003 C 
BRANCH  17  18
ATOM     18  C   LIG    1       24.705 -27.007   5.405  0.00  0.00    -0.014 C 
ATOM     19  C   LIG    1       26.273 -27.111   5.401  0.00  0.00    +0.007 C 
BRANCH  18  20
ATOM     20  C   LIG    1       24.035 -25.737   6.068  0.00  0.00    +0.003 C 
BRANCH  20  21
ATOM     21  C   LIG    1       24.900 -24.425   6.460  0.00  0.00    +0.000 C 
BRANCH  21  22
ATOM     22  C   LIG    1       23.944 -23.331   6.931  0.00  0.00    +0.003 C 
BRANCH  22  23
ATOM     23  C   LIG    1       24.019 -21.695   6.989  0.00  0.00    -0.014 C 
ATOM     24  C   LIG    1       24.320 -20.672   5.521  0.00  0.00    +0.007 C 
BRANCH  23  25
ATOM     25  C   LIG    1       25.117 -21.588   8.151  0.00  0.00    +0.003 C 
BRANCH  25  26
ATOM     26  C   LIG    1       26.462 -20.465   8.346  0.00  0.00    +0.000 C 
BRANCH  26  27
ATOM     27  C   LIG    1       28.338 -19.999   7.715  0.00  0.00    +0.003 C 
BRANCH  27  28
ATOM     28  C   LIG    1       29.436 -19.710   6.453  0.00  0.00    -0.017 C 
ATOM     29  C   LIG    1       30.915 -19.578   7.167  0.00  0.00    +0.007 C 
ATOM     30  C   LIG    1       29.250 -18.392   5.512  0.00  0.00    +0.007 C 
ENDBRANCH  27  28
ENDBRANCH  26  27
ENDBRANCH  25  26
ENDBRANCH  23  25
ENDBRANCH  22  23
ENDBRANCH  21  22
ENDBRANCH  20  21
ENDBRANCH  18  20
ENDBRANCH  17  18
ENDBRANCH  16  17
ENDBRANCH  15  16
ENDBRANCH   9  15
BRANCH   3  31
ATOM     31  O   LIG    1       23.906 -29.286  14.499  0.00  0.00    -0.425 OA
BRANCH  31  32
ATOM     32  C   LIG    1       22.582 -28.835  14.396  0.00  0.00    +0.313 C 
ATOM     33  O   LIG    1       21.652 -28.925  15.183  0.00  0.00    -0.250 OA
BRANCH  32  34
ATOM     34  C   LIG    1       22.344 -28.221  13.072  0.00  0.00    +0.132 C 
BRANCH  34  35
ATOM     35  C   LIG    1       21.712 -26.847  13.246  0.00  0.00    +0.131 C 
BRANCH  35  36
ATOM     36  C   LIG    1       20.282 -26.939  12.968  0.00  0.00    +0.305 C 
ATOM     37  O   LIG    1       19.744 -25.904  12.618  0.00  0.00    -0.251 OA
BRANCH  36  38
ATOM     38  O   LIG    1       19.688 -28.127  13.160  0.00  0.00    -0.481 OA
ATOM     39  H   LIG    1       20.273 -28.896  13.042  0.00  0.00    +0.295 HD
ENDBRANCH  36  38
ENDBRANCH  35  36
ENDBRANCH  34  35
ENDBRANCH  32  34
ENDBRANCH  31  32
ENDBRANCH   3  31
TORSDOF 18
ENDMDL
MODEL 2
REMARK VINA RESULT:      -9.1      5.368     11.353
REMARK  Name = *****
REMARK                            x       y       z     vdW  Elec       q    Type
REMARK                         _______ _______ _______ _____ _____    ______ ____
ROOT
ATOM      1  C   LIG    1       31.524 -20.268   9.521  0.00  0.00    +0.048 C 
ATOM      2  C   LIG    1       30.600 -20.052   8.335  0.00  0.00    -0.001 A 
ATOM      3  C   LIG    1       30.366 -18.953   7.534  0.00  0.00    +0.138 A 
ATOM      4  C   LIG    1       29.372 -18.883   6.336  0.00  0.00    -0.001 A 
ATOM      5  C   LIG    1       29.233 -17.771   5.377  0.00  0.00    +0.048 C 
ATOM      6  C   LIG    1       28.491 -19.870   5.998  0.00  0.00    +0.001 A 
ATOM      7  C   LIG    1       27.245 -19.916   5.072  0.00  0.00    +0.043 C 
ATOM      8  C   LIG    1       26.073 -20.515   5.865  0.00  0.00    +0.052 C 
ATOM      9  C   LIG    1       26.396 -21.333   7.228  0.00  0.00    +0.108 C 
ATOM     10  O   LIG    1       27.642 -21.803   6.527  0.00  0.00    -0.485 OA
ATOM     11  C   LIG    1       26.929 -20.247   8.875  0.00  0.00    +0.056 C 
ATOM     12  C   LIG    1       28.710 -20.899   6.840  0.00  0.00    +0.128 A 
ATOM     13  C   LIG    1       29.816 -21.061   7.920  0.00  0.00    -0.002 A 
ATOM     14  C   LIG    1       30.224 -22.324   8.617  0.00  0.00    +0.048 C 
ENDROOT
BRANCH   9  15
ATOM     15  C   LIG    1       24.930 -22.629   7.660  0.00  0.00    +0.048 C 
BRANCH  15  16
ATOM     16  C   LIG    1       24.809 -24.323   6.781  0.00  0.00    +0.004 C 
BRANCH  16  17
ATOM     17  C   LIG    1       25.932 -25.109   6.325  0.00  0.00    +0.003 C 
BRANCH  17  18
ATOM     18  C   LIG    1       25.704 -26.619   6.133  0.00  0.00    -0.014 C 
ATOM     19  C   LIG    1       26.642 -27.072   4.956  0.00  0.00    +0.007 C 
BRANCH  18  20
ATOM     20  C   LIG    1       24.360 -27.418   6.374  0.00  0.00    +0.003 C 
BRANCH  20  21
ATOM     21  C   LIG    1       24.351 -29.021   6.608  0.00  0.00    +0.000 C 
BRANCH  21  22
ATOM     22  C   LIG    1       24.843 -29.312   8.023  0.00  0.00    +0.003 C 
BRANCH  22  23
ATOM     23  C   LIG    1       26.290 -29.736   8.665  0.00  0.00    -0.014 C 
ATOM     24  C   LIG    1       26.659 -31.421   9.232  0.00  0.00    +0.007 C 
BRANCH  23  25
ATOM     25  C   LIG    1       26.353 -28.594   9.785  0.00  0.00    +0.003 C 
BRANCH  25  26
ATOM     26  C   LIG    1       25.947 -28.657  11.500  0.00  0.00    +0.000 C 
BRANCH  26  27
ATOM     27  C   LIG    1       24.725 -27.908  12.944  0.00  0.00    +0.003 C 
BRANCH  27  28
ATOM     28  C   LIG    1       24.128 -26.587  13.827  0.00  0.00    -0.017 C 
ATOM     29  C   LIG    1       22.577 -26.369  13.315  0.00  0.00    +0.007 C 
ATOM     30  C   LIG    1       24.870 -25.140  13.706  0.00  0.00    +0.007 C 
ENDBRANCH  27  28
ENDBRANCH  26  27
ENDBRANCH  25  26
ENDBRANCH  23  25
ENDBRANCH  22  23
ENDBRANCH  21  22
ENDBRANCH  20  21
ENDBRANCH  18  20
ENDBRANCH  17  18
ENDBRANCH  16  17
ENDBRANCH  15  16
ENDBRANCH   9  15
BRANCH   3  31
ATOM     31  O   LIG    1       31.045 -17.779   7.941  0.00  0.00    -0.425 OA
BRANCH  31  32
ATOM     32  C   LIG    1       30.761 -17.059   9.110  0.00  0.00    +0.313 C 
ATOM     33  O   LIG    1       29.737 -16.997   9.772  0.00  0.00    -0.250 OA
BRANCH  32  34
ATOM     34  C   LIG    1       31.918 -16.222   9.497  0.00  0.00    +0.132 C 
BRANCH  34  35
ATOM     35  C   LIG    1       32.711 -16.916  10.596  0.00  0.00    +0.131 C 
BRANCH  35  36
ATOM     36  C   LIG    1       32.262 -16.425  11.895  0.00  0.00    +0.305 C 
ATOM     37  O   LIG    1       33.013 -16.639  12.829  0.00  0.00    -0.251 OA
BRANCH  36  38
ATOM     38  O   LIG    1       31.061 -15.829  11.951  0.00  0.00    -0.481 OA
ATOM     39  H   LIG    1       30.605 -15.756  11.094  0.00  0.00    +0.295 HD
ENDBRANCH  36  38
ENDBRANCH  35  36
ENDBRANCH  34  35
ENDBRANCH  32  34
ENDBRANCH  31  32
ENDBRANCH   3  31
TORSDOF 18
ENDMDL
MODEL 3
REMARK VINA RESULT:      -8.9      5.673     11.774
REMARK  Name = *****
REMARK                            x       y       z     vdW  Elec       q    Type
REMARK                         _______ _______ _______ _____ _____    ______ ____
ROOT
ATOM      1  C   LIG    1       23.171 -18.843   3.378  0.00  0.00    +0.048 C 
ATOM      2  C   LIG    1       24.182 -19.479   4.316  0.00  0.00    -0.001 A 
ATOM      3  C   LIG    1       25.552 -19.350   4.423  0.00  0.00    +0.138 A 
ATOM      4  C   LIG    1       26.467 -20.079   5.452  0.00  0.00    -0.001 A 
ATOM      5  C   LIG    1       27.903 -19.827   5.679  0.00  0.00    +0.048 C 
ATOM      6  C   LIG    1       26.049 -21.055   6.309  0.00  0.00    +0.001 A 
ATOM      7  C   LIG    1       26.796 -22.097   7.184  0.00  0.00    +0.043 C 
ATOM      8  C   LIG    1       26.205 -23.487   6.896  0.00  0.00    +0.052 C 
ATOM      9  C   LIG    1       24.763 -23.578   6.161  0.00  0.00    +0.108 C 
ATOM     10  O   LIG    1       24.406 -22.338   6.935  0.00  0.00    -0.485 OA
ATOM     11  C   LIG    1       24.695 -23.156   4.162  0.00  0.00    +0.056 C 
ATOM     12  C   LIG    1       24.720 -21.192   6.132  0.00  0.00    +0.128 A 
ATOM     13  C   LIG    1       23.759 -20.353   5.246  0.00  0.00    -0.002 A 
ATOM     14  C   LIG    1       22.262 -20.326   5.305  0.00  0.00    +0.048 C 
ENDROOT
BRANCH   9  15
ATOM     15  C   LIG    1       23.853 -25.318   6.563  0.00  0.00    +0.048 C 
BRANCH  15  16
ATOM     16  C   LIG    1       24.443 -26.954   5.769  0.00  0.00    +0.004 C 
BRANCH  16  17
ATOM     17  C   LIG    1       24.022 -28.277   6.170  0.00  0.00    +0.003 C 
BRANCH  17  18
ATOM     18  C   LIG    1       25.080 -29.187   6.820  0.00  0.00    -0.014 C 
ATOM     19  C   LIG    1       25.098 -30.521   5.991  0.00  0.00    +0.007 C 
BRANCH  18  20
ATOM     20  C   LIG    1       25.475 -29.245   8.351  0.00  0.00    +0.003 C 
BRANCH  20  21
ATOM     21  C   LIG    1       26.456 -28.144   9.021  0.00  0.00    +0.000 C 
BRANCH  21  22
ATOM     22  C   LIG    1       27.047 -28.728  10.301  0.00  0.00    +0.003 C 
BRANCH  22  23
ATOM     23  C   LIG    1       26.435 -29.101  11.775  0.00  0.00    -0.014 C 
ATOM     24  C   LIG    1       24.893 -30.034  11.993  0.00  0.00    +0.007 C 
BRANCH  23  25
ATOM     25  C   LIG    1       26.443 -27.616  12.375  0.00  0.00    +0.003 C 
BRANCH  25  26
ATOM     26  C   LIG    1       25.166 -26.707  13.181  0.00  0.00    +0.000 C 
BRANCH  26  27
ATOM     27  C   LIG    1       23.157 -26.564  13.464  0.00  0.00    +0.003 C 
BRANCH  27  28
ATOM     28  C   LIG    1       21.624 -27.290  13.520  0.00  0.00    -0.017 C 
ATOM     29  C   LIG    1       21.779 -28.727  12.728  0.00  0.00    +0.007 C 
ATOM     30  C   LIG    1       20.347 -26.524  12.855  0.00  0.00    +0.007 C 
ENDBRANCH  27  28
ENDBRANCH  26  27
ENDBRANCH  25  26
ENDBRANCH  23  25
ENDBRANCH  22  23
ENDBRANCH  21  22
ENDBRANCH  20  21
ENDBRANCH  18  20
ENDBRANCH  17  18
ENDBRANCH  16  17
ENDBRANCH  15  16
ENDBRANCH   9  15
BRANCH   3  31
ATOM     31  O   LIG    1       26.142 -18.546   3.418  0.00  0.00    -0.425 OA
BRANCH  31  32
ATOM     32  C   LIG    1       26.640 -17.251   3.622  0.00  0.00    +0.313 C 
ATOM     33  O   LIG    1       27.718 -16.879   4.060  0.00  0.00    -0.250 OA
BRANCH  32  34
ATOM     34  C   LIG    1       25.614 -16.241   3.287  0.00  0.00    +0.132 C 
BRANCH  34  35
ATOM     35  C   LIG    1       26.040 -14.877   3.812  0.00  0.00    +0.131 C 
BRANCH  35  36
ATOM     36  C   LIG    1       26.892 -14.226   2.822  0.00  0.00    +0.305 C 
ATOM     37  O   LIG    1       26.459 -14.207   1.684  0.00  0.00    -0.251 OA
BRANCH  36  38
ATOM     38  O   LIG    1       28.076 -13.752   3.238  0.00  0.00    -0.481 OA
ATOM     39  H   LIG    1       28.340 -14.045   4.128  0.00  0.00    +0.295 HD
ENDBRANCH  36  38
ENDBRANCH  35  36
ENDBRANCH  34  35
ENDBRANCH  32  34
ENDBRANCH  31  32
ENDBRANCH   3  31
TORSDOF 18
ENDMDL
MODEL 4
REMARK VINA RESULT:      -8.8      2.461      3.885
REMARK  Name = *****
REMARK                            x       y       z     vdW  Elec       q    Type
REMARK                         _______ _______ _______ _____ _____    ______ ____
ROOT
ATOM      1  C   LIG    1       22.993 -30.485  12.604  0.00  0.00    +0.048 C 
ATOM      2  C   LIG    1       23.643 -31.141  11.398  0.00  0.00    -0.001 A 
ATOM      3  C   LIG    1       24.687 -32.036  11.285  0.00  0.00    +0.138 A 
ATOM      4  C   LIG    1       25.250 -32.629   9.958  0.00  0.00    -0.001 A 
ATOM      5  C   LIG    1       26.254 -33.703   9.835  0.00  0.00    +0.048 C 
ATOM      6  C   LIG    1       24.866 -32.237   8.708  0.00  0.00    +0.001 A 
ATOM      7  C   LIG    1       25.466 -32.455   7.292  0.00  0.00    +0.043 C 
ATOM      8  C   LIG    1       25.585 -31.088   6.599  0.00  0.00    +0.052 C 
ATOM      9  C   LIG    1       24.741 -29.840   7.198  0.00  0.00    +0.108 C 
ATOM     10  O   LIG    1       23.675 -30.851   7.526  0.00  0.00    -0.485 OA
ATOM     11  C   LIG    1       25.413 -28.995   8.935  0.00  0.00    +0.056 C 
ATOM     12  C   LIG    1       23.889 -31.323   8.863  0.00  0.00    +0.128 A 
ATOM     13  C   LIG    1       23.189 -30.852  10.167  0.00  0.00    -0.002 A 
ATOM     14  C   LIG    1       21.911 -30.076  10.280  0.00  0.00    +0.048 C 
ENDROOT
BRANCH   9  15
ATOM     15  C   LIG    1       24.415 -28.445   5.796  0.00  0.00    +0.048 C 
BRANCH  15  16
ATOM     16  C   LIG    1       25.570 -26.933   5.612  0.00  0.00    +0.004 C 
BRANCH  16  17
ATOM     17  C   LIG    1       25.201 -25.668   5.018  0.00  0.00    +0.003 C 
BRANCH  17  18
ATOM     18  C   LIG    1       24.733 -24.552   5.970  0.00  0.00    -0.014 C 
ATOM     19  C   LIG    1       25.952 -24.214   6.903  0.00  0.00    +0.007 C 
BRANCH  18  20
ATOM     20  C   LIG    1       23.271 -24.329   6.530  0.00  0.00    +0.003 C 
BRANCH  20  21
ATOM     21  C   LIG    1       22.790 -22.895   7.112  0.00  0.00    +0.000 C 
BRANCH  21  22
ATOM     22  C   LIG    1       23.137 -21.812   6.094  0.00  0.00    +0.003 C 
BRANCH  22  23
ATOM     23  C   LIG    1       24.187 -20.553   6.078  0.00  0.00    -0.014 C 
ATOM     24  C   LIG    1       25.428 -20.325   4.773  0.00  0.00    +0.007 C 
BRANCH  23  25
ATOM     25  C   LIG    1       24.761 -20.755   7.559  0.00  0.00    +0.003 C 
BRANCH  25  26
ATOM     26  C   LIG    1       26.409 -20.616   8.171  0.00  0.00    +0.000 C 
BRANCH  26  27
ATOM     27  C   LIG    1       28.326 -20.141   7.681  0.00  0.00    +0.003 C 
BRANCH  27  28
ATOM     28  C   LIG    1       29.676 -19.126   7.841  0.00  0.00    -0.017 C 
ATOM     29  C   LIG    1       30.263 -18.916   6.316  0.00  0.00    +0.007 C 
ATOM     30  C   LIG    1       30.933 -19.601   8.766  0.00  0.00    +0.007 C 
ENDBRANCH  27  28
ENDBRANCH  26  27
ENDBRANCH  25  26
ENDBRANCH  23  25
ENDBRANCH  22  23
ENDBRANCH  21  22
ENDBRANCH  20  21
ENDBRANCH  18  20
ENDBRANCH  17  18
ENDBRANCH  16  17
ENDBRANCH  15  16
ENDBRANCH   9  15
BRANCH   3  31
ATOM     31  O   LIG    1       25.337 -32.333  12.507  0.00  0.00    -0.425 OA
BRANCH  31  32
ATOM     32  C   LIG    1       25.911 -31.378  13.358  0.00  0.00    +0.313 C 
ATOM     33  O   LIG    1       25.747 -31.181  14.552  0.00  0.00    -0.250 OA
BRANCH  32  34
ATOM     34  C   LIG    1       26.795 -30.469  12.596  0.00  0.00    +0.132 C 
BRANCH  34  35
ATOM     35  C   LIG    1       26.349 -29.027  12.797  0.00  0.00    +0.131 C 
BRANCH  35  36
ATOM     36  C   LIG    1       27.242 -28.142  12.057  0.00  0.00    +0.305 C 
ATOM     37  O   LIG    1       27.001 -26.952  12.147  0.00  0.00    -0.251 OA
BRANCH  36  38
ATOM     38  O   LIG    1       28.208 -28.710  11.319  0.00  0.00    -0.481 OA
ATOM     39  H   LIG    1       29.022 -28.920  11.810  0.00  0.00    +0.295 HD
ENDBRANCH  36  38
ENDBRANCH  35  36
ENDBRANCH  34  35
ENDBRANCH  32  34
ENDBRANCH  31  32
ENDBRANCH   3  31
TORSDOF 18
ENDMDL
MODEL 5
REMARK VINA RESULT:      -8.5      1.617      2.119
REMARK  Name = *****
REMARK                            x       y       z     vdW  Elec       q    Type
REMARK                         _______ _______ _______ _____ _____    ______ ____
ROOT
ATOM      1  C   LIG    1       24.166 -33.825  12.062  0.00  0.00    +0.048 C 
ATOM      2  C   LIG    1       24.909 -32.522  11.823  0.00  0.00    -0.001 A 
ATOM      3  C   LIG    1       25.099 -31.408  12.615  0.00  0.00    +0.138 A 
ATOM      4  C   LIG    1       25.897 -30.128  12.225  0.00  0.00    -0.001 A 
ATOM      5  C   LIG    1       26.242 -29.005  13.118  0.00  0.00    +0.048 C 
ATOM      6  C   LIG    1       26.409 -29.879  10.984  0.00  0.00    +0.001 A 
ATOM      7  C   LIG    1       26.960 -28.601  10.296  0.00  0.00    +0.043 C 
ATOM      8  C   LIG    1       26.249 -28.433   8.944  0.00  0.00    +0.052 C 
ATOM      9  C   LIG    1       25.468 -29.707   8.315  0.00  0.00    +0.108 C 
ATOM     10  O   LIG    1       26.563 -30.545   8.918  0.00  0.00    -0.485 OA
ATOM     11  C   LIG    1       23.684 -30.232   9.165  0.00  0.00    +0.056 C 
ATOM     12  C   LIG    1       26.150 -30.962  10.227  0.00  0.00    +0.128 A 
ATOM     13  C   LIG    1       25.520 -32.320  10.643  0.00  0.00    -0.002 A 
ATOM     14  C   LIG    1       25.529 -33.601   9.864  0.00  0.00    +0.048 C 
ENDROOT
BRANCH   9  15
ATOM     15  C   LIG    1       25.300 -29.545   6.325  0.00  0.00    +0.048 C 
BRANCH  15  16
ATOM     16  C   LIG    1       24.608 -27.958   5.512  0.00  0.00    +0.004 C 
BRANCH  16  17
ATOM     17  C   LIG    1       24.002 -26.854   6.219  0.00  0.00    +0.003 C 
BRANCH  17  18
ATOM     18  C   LIG    1       24.354 -25.432   5.743  0.00  0.00    -0.014 C 
ATOM     19  C   LIG    1       25.483 -25.587   4.660  0.00  0.00    +0.007 C 
BRANCH  18  20
ATOM     20  C   LIG    1       24.306 -24.102   6.597  0.00  0.00    +0.003 C 
BRANCH  20  21
ATOM     21  C   LIG    1       22.911 -23.343   6.914  0.00  0.00    +0.000 C 
BRANCH  21  22
ATOM     22  C   LIG    1       23.203 -21.866   7.168  0.00  0.00    +0.003 C 
BRANCH  22  23
ATOM     23  C   LIG    1       24.201 -20.764   6.479  0.00  0.00    -0.014 C 
ATOM     24  C   LIG    1       24.868 -20.954   4.802  0.00  0.00    +0.007 C 
BRANCH  23  25
ATOM     25  C   LIG    1       25.283 -20.713   7.658  0.00  0.00    +0.003 C 
BRANCH  25  26
ATOM     26  C   LIG    1       27.043 -20.798   7.594  0.00  0.00    +0.000 C 
BRANCH  26  27
ATOM     27  C   LIG    1       28.748 -19.718   7.342  0.00  0.00    +0.003 C 
BRANCH  27  28
ATOM     28  C   LIG    1       30.151 -19.012   7.986  0.00  0.00    -0.017 C 
ATOM     29  C   LIG    1       31.121 -20.266   8.432  0.00  0.00    +0.007 C 
ATOM     30  C   LIG    1       30.033 -18.027   9.280  0.00  0.00    +0.007 C 
ENDBRANCH  27  28
ENDBRANCH  26  27
ENDBRANCH  25  26
ENDBRANCH  23  25
ENDBRANCH  22  23
ENDBRANCH  21  22
ENDBRANCH  20  21
ENDBRANCH  18  20
ENDBRANCH  17  18
ENDBRANCH  16  17
ENDBRANCH  15  16
ENDBRANCH   9  15
BRANCH   3  31
ATOM     31  O   LIG    1       24.402 -31.442  13.847  0.00  0.00    -0.425 OA
BRANCH  31  32
ATOM     32  C   LIG    1       23.006 -31.444  13.974  0.00  0.00    +0.313 C 
ATOM     33  O   LIG    1       22.274 -32.144  14.655  0.00  0.00    -0.250 OA
BRANCH  32  34
ATOM     34  C   LIG    1       22.401 -30.452  13.058  0.00  0.00    +0.132 C 
BRANCH  34  35
ATOM     35  C   LIG    1       21.613 -31.167  11.969  0.00  0.00    +0.131 C 
BRANCH  35  36
ATOM     36  C   LIG    1       20.592 -30.267  11.445  0.00  0.00    +0.305 C 
ATOM     37  O   LIG    1       20.156 -30.545  10.343  0.00  0.00    -0.251 OA
BRANCH  36  38
ATOM     38  O   LIG    1       20.260 -29.204  12.194  0.00  0.00    -0.481 OA
ATOM     39  H   LIG    1       21.017 -28.697  12.537  0.00  0.00    +0.295 HD
ENDBRANCH  36  38
ENDBRANCH  35  36
ENDBRANCH  34  35
ENDBRANCH  32  34
ENDBRANCH  31  32
ENDBRANCH   3  31
TORSDOF 18
ENDMDL
MODEL 6
REMARK VINA RESULT:      -8.5      5.754     11.982
REMARK  Name = *****
REMARK                            x       y       z     vdW  Elec       q    Type
REMARK                         _______ _______ _______ _____ _____    ______ ____
ROOT
ATOM      1  C   LIG    1       23.151 -18.727   3.457  0.00  0.00    +0.048 C 
ATOM      2  C   LIG    1       24.159 -19.398   4.374  0.00  0.00    -0.001 A 
ATOM      3  C   LIG    1       25.534 -19.308   4.457  0.00  0.00    +0.138 A 
ATOM      4  C   LIG    1       26.445 -20.070   5.466  0.00  0.00    -0.001 A 
ATOM      5  C   LIG    1       27.891 -19.861   5.670  0.00  0.00    +0.048 C 
ATOM      6  C   LIG    1       26.013 -21.041   6.323  0.00  0.00    +0.001 A 
ATOM      7  C   LIG    1       26.746 -22.110   7.178  0.00  0.00    +0.043 C 
ATOM      8  C   LIG    1       26.110 -23.480   6.891  0.00  0.00    +0.052 C 
ATOM      9  C   LIG    1       24.653 -23.525   6.180  0.00  0.00    +0.108 C 
ATOM     10  O   LIG    1       24.345 -22.281   6.969  0.00  0.00    -0.485 OA
ATOM     11  C   LIG    1       24.564 -23.087   4.185  0.00  0.00    +0.056 C 
ATOM     12  C   LIG    1       24.678 -21.138   6.168  0.00  0.00    +0.128 A 
ATOM     13  C   LIG    1       23.727 -20.265   5.304  0.00  0.00    -0.002 A 
ATOM     14  C   LIG    1       22.232 -20.196   5.390  0.00  0.00    +0.048 C 
ENDROOT
BRANCH   9  15
ATOM     15  C   LIG    1       23.701 -25.241   6.586  0.00  0.00    +0.048 C 
BRANCH  15  16
ATOM     16  C   LIG    1       24.471 -26.933   6.142  0.00  0.00    +0.004 C 
BRANCH  16  17
ATOM     17  C   LIG    1       25.563 -27.564   6.845  0.00  0.00    +0.003 C 
BRANCH  17  18
ATOM     18  C   LIG    1       25.298 -28.949   7.464  0.00  0.00    -0.014 C 
ATOM     19  C   LIG    1       25.935 -28.931   8.901  0.00  0.00    +0.007 C 
BRANCH  18  20
ATOM     20  C   LIG    1       25.199 -30.331   6.701  0.00  0.00    +0.003 C 
BRANCH  20  21
ATOM     21  C   LIG    1       23.919 -31.309   6.872  0.00  0.00    +0.000 C 
BRANCH  21  22
ATOM     22  C   LIG    1       24.079 -32.104   8.165  0.00  0.00    +0.003 C 
BRANCH  22  23
ATOM     23  C   LIG    1       23.119 -32.377   9.465  0.00  0.00    -0.014 C 
ATOM     24  C   LIG    1       21.650 -33.442   9.396  0.00  0.00    +0.007 C 
BRANCH  23  25
ATOM     25  C   LIG    1       22.852 -30.843   9.840  0.00  0.00    +0.003 C 
BRANCH  25  26
ATOM     26  C   LIG    1       22.751 -30.057  11.415  0.00  0.00    +0.000 C 
BRANCH  26  27
ATOM     27  C   LIG    1       23.387 -28.474  12.522  0.00  0.00    +0.003 C 
BRANCH  27  28
ATOM     28  C   LIG    1       23.063 -27.225  13.624  0.00  0.00    -0.017 C 
ATOM     29  C   LIG    1       21.596 -26.613  13.190  0.00  0.00    +0.007 C 
ATOM     30  C   LIG    1       24.087 -25.960  13.730  0.00  0.00    +0.007 C 
ENDBRANCH  27  28
ENDBRANCH  26  27
ENDBRANCH  25  26
ENDBRANCH  23  25
ENDBRANCH  22  23
ENDBRANCH  21  22
ENDBRANCH  20  21
ENDBRANCH  18  20
ENDBRANCH  17  18
ENDBRANCH  16  17
ENDBRANCH  15  16
ENDBRANCH   9  15
BRANCH   3  31
ATOM     31  O   LIG    1       26.129 -18.514   3.448  0.00  0.00    -0.425 OA
BRANCH  31  32
ATOM     32  C   LIG    1       26.732 -17.267   3.666  0.00  0.00    +0.313 C 
ATOM     33  O   LIG    1       27.816 -16.987   4.154  0.00  0.00    -0.250 OA
BRANCH  32  34
ATOM     34  C   LIG    1       25.819 -16.173   3.270  0.00  0.00    +0.132 C 
BRANCH  34  35
ATOM     35  C   LIG    1       26.277 -14.865   3.899  0.00  0.00    +0.131 C 
BRANCH  35  36
ATOM     36  C   LIG    1       27.172 -14.176   2.976  0.00  0.00    +0.305 C 
ATOM     37  O   LIG    1       28.155 -13.662   3.477  0.00  0.00    -0.251 OA
BRANCH  36  38
ATOM     38  O   LIG    1       26.816 -14.134   1.682  0.00  0.00    -0.481 OA
ATOM     39  H   LIG    1       26.643 -15.004   1.281  0.00  0.00    +0.295 HD
ENDBRANCH  36  38
ENDBRANCH  35  36
ENDBRANCH  34  35
ENDBRANCH  32  34
ENDBRANCH  31  32
ENDBRANCH   3  31
TORSDOF 18
ENDMDL
MODEL 7
REMARK VINA RESULT:      -8.4      5.321     11.376
REMARK  Name = *****
REMARK                            x       y       z     vdW  Elec       q    Type
REMARK                         _______ _______ _______ _____ _____    ______ ____
ROOT
ATOM      1  C   LIG    1       31.555 -20.229   9.523  0.00  0.00    +0.048 C 
ATOM      2  C   LIG    1       30.637 -20.019   8.331  0.00  0.00    -0.001 A 
ATOM      3  C   LIG    1       30.425 -18.931   7.510  0.00  0.00    +0.138 A 
ATOM      4  C   LIG    1       29.435 -18.864   6.309  0.00  0.00    -0.001 A 
ATOM      5  C   LIG    1       29.318 -17.767   5.330  0.00  0.00    +0.048 C 
ATOM      6  C   LIG    1       28.537 -19.841   5.987  0.00  0.00    +0.001 A 
ATOM      7  C   LIG    1       27.293 -19.882   5.059  0.00  0.00    +0.043 C 
ATOM      8  C   LIG    1       26.108 -20.446   5.860  0.00  0.00    +0.052 C 
ATOM      9  C   LIG    1       26.414 -21.245   7.237  0.00  0.00    +0.108 C 
ATOM     10  O   LIG    1       27.653 -21.749   6.548  0.00  0.00    -0.485 OA
ATOM     11  C   LIG    1       26.962 -20.138   8.866  0.00  0.00    +0.056 C 
ATOM     12  C   LIG    1       28.737 -20.859   6.848  0.00  0.00    +0.128 A 
ATOM     13  C   LIG    1       29.836 -21.021   7.933  0.00  0.00    -0.002 A 
ATOM     14  C   LIG    1       30.220 -22.279   8.653  0.00  0.00    +0.048 C 
ENDROOT
BRANCH   9  15
ATOM     15  C   LIG    1       24.924 -22.506   7.689  0.00  0.00    +0.048 C 
BRANCH  15  16
ATOM     16  C   LIG    1       24.821 -24.245   6.901  0.00  0.00    +0.004 C 
BRANCH  16  17
ATOM     17  C   LIG    1       25.953 -25.078   6.565  0.00  0.00    +0.003 C 
BRANCH  17  18
ATOM     18  C   LIG    1       25.667 -26.552   6.222  0.00  0.00    -0.014 C 
ATOM     19  C   LIG    1       26.822 -27.026   5.268  0.00  0.00    +0.007 C 
BRANCH  18  20
ATOM     20  C   LIG    1       24.249 -27.241   6.088  0.00  0.00    +0.003 C 
BRANCH  20  21
ATOM     21  C   LIG    1       24.091 -28.778   5.603  0.00  0.00    +0.000 C 
BRANCH  21  22
ATOM     22  C   LIG    1       24.659 -29.694   6.685  0.00  0.00    +0.003 C 
BRANCH  22  23
ATOM     23  C   LIG    1       25.654 -30.995   6.673  0.00  0.00    -0.014 C 
ATOM     24  C   LIG    1       25.278 -32.513   5.751  0.00  0.00    +0.007 C 
BRANCH  23  25
ATOM     25  C   LIG    1       25.786 -31.158   8.260  0.00  0.00    +0.003 C 
BRANCH  25  26
ATOM     26  C   LIG    1       26.672 -30.187   9.435  0.00  0.00    +0.000 C 
BRANCH  26  27
ATOM     27  C   LIG    1       26.525 -28.668  10.780  0.00  0.00    +0.003 C 
BRANCH  27  28
ATOM     28  C   LIG    1       27.195 -27.747  12.038  0.00  0.00    -0.017 C 
ATOM     29  C   LIG    1       27.754 -28.836  13.142  0.00  0.00    +0.007 C 
ATOM     30  C   LIG    1       26.254 -26.695  12.854  0.00  0.00    +0.007 C 
ENDBRANCH  27  28
ENDBRANCH  26  27
ENDBRANCH  25  26
ENDBRANCH  23  25
ENDBRANCH  22  23
ENDBRANCH  21  22
ENDBRANCH  20  21
ENDBRANCH  18  20
ENDBRANCH  17  18
ENDBRANCH  16  17
ENDBRANCH  15  16
ENDBRANCH   9  15
BRANCH   3  31
ATOM     31  O   LIG    1       31.124 -17.762   7.898  0.00  0.00    -0.425 OA
BRANCH  31  32
ATOM     32  C   LIG    1       30.823 -16.991   9.030  0.00  0.00    +0.313 C 
ATOM     33  O   LIG    1       29.774 -16.859   9.641  0.00  0.00    -0.250 OA
BRANCH  32  34
ATOM     34  C   LIG    1       32.001 -16.200   9.448  0.00  0.00    +0.132 C 
BRANCH  34  35
ATOM     35  C   LIG    1       32.780 -16.957  10.513  0.00  0.00    +0.131 C 
BRANCH  35  36
ATOM     36  C   LIG    1       32.139 -16.759  11.809  0.00  0.00    +0.305 C 
ATOM     37  O   LIG    1       31.566 -17.729  12.269  0.00  0.00    -0.251 OA
BRANCH  36  38
ATOM     38  O   LIG    1       32.201 -15.532  12.350  0.00  0.00    -0.481 OA
ATOM     39  H   LIG    1       32.402 -15.519  13.302  0.00  0.00    +0.295 HD
ENDBRANCH  36  38
ENDBRANCH  35  36
ENDBRANCH  34  35
ENDBRANCH  32  34
ENDBRANCH  31  32
ENDBRANCH   3  31
TORSDOF 18
ENDMDL
MODEL 8
REMARK VINA RESULT:      -8.4      5.249     11.509
REMARK  Name = *****
REMARK                            x       y       z     vdW  Elec       q    Type
REMARK                         _______ _______ _______ _____ _____    ______ ____
ROOT
ATOM      1  C   LIG    1       31.158 -20.037   9.783  0.00  0.00    +0.048 C 
ATOM      2  C   LIG    1       30.331 -19.874   8.520  0.00  0.00    -0.001 A 
ATOM      3  C   LIG    1       30.087 -18.784   7.710  0.00  0.00    +0.138 A 
ATOM      4  C   LIG    1       29.203 -18.771   6.427  0.00  0.00    -0.001 A 
ATOM      5  C   LIG    1       29.066 -17.658   5.468  0.00  0.00    +0.048 C 
ATOM      6  C   LIG    1       28.435 -19.817   6.001  0.00  0.00    +0.001 A 
ATOM      7  C   LIG    1       27.286 -19.943   4.965  0.00  0.00    +0.043 C 
ATOM      8  C   LIG    1       26.096 -20.643   5.641  0.00  0.00    +0.052 C 
ATOM      9  C   LIG    1       26.357 -21.455   7.021  0.00  0.00    +0.108 C 
ATOM     10  O   LIG    1       27.694 -21.817   6.434  0.00  0.00    -0.485 OA
ATOM     11  C   LIG    1       26.652 -20.357   8.720  0.00  0.00    +0.056 C 
ATOM     12  C   LIG    1       28.656 -20.839   6.851  0.00  0.00    +0.128 A 
ATOM     13  C   LIG    1       29.668 -20.934   8.026  0.00  0.00    -0.002 A 
ATOM     14  C   LIG    1       30.108 -22.173   8.746  0.00  0.00    +0.048 C 
ENDROOT
BRANCH   9  15
ATOM     15  C   LIG    1       24.962 -22.865   7.306  0.00  0.00    +0.048 C 
BRANCH  15  16
ATOM     16  C   LIG    1       24.713 -24.285   6.049  0.00  0.00    +0.004 C 
BRANCH  16  17
ATOM     17  C   LIG    1       23.995 -25.511   6.306  0.00  0.00    +0.003 C 
BRANCH  17  18
ATOM     18  C   LIG    1       24.792 -26.827   6.219  0.00  0.00    -0.014 C 
ATOM     19  C   LIG    1       26.310 -26.430   6.140  0.00  0.00    +0.007 C 
BRANCH  18  20
ATOM     20  C   LIG    1       24.329 -28.177   5.539  0.00  0.00    +0.003 C 
BRANCH  20  21
ATOM     21  C   LIG    1       24.907 -29.614   6.015  0.00  0.00    +0.000 C 
BRANCH  21  22
ATOM     22  C   LIG    1       24.394 -29.905   7.424  0.00  0.00    +0.003 C 
BRANCH  22  23
ATOM     23  C   LIG    1       24.710 -29.283   8.906  0.00  0.00    -0.014 C 
ATOM     24  C   LIG    1       26.385 -28.846   9.453  0.00  0.00    +0.007 C 
BRANCH  23  25
ATOM     25  C   LIG    1       23.972 -30.419   9.760  0.00  0.00    +0.003 C 
BRANCH  25  26
ATOM     26  C   LIG    1       22.799 -30.278  11.068  0.00  0.00    +0.000 C 
BRANCH  26  27
ATOM     27  C   LIG    1       22.201 -29.140  12.645  0.00  0.00    +0.003 C 
BRANCH  27  28
ATOM     28  C   LIG    1       22.239 -27.674  13.499  0.00  0.00    -0.017 C 
ATOM     29  C   LIG    1       20.924 -26.823  12.987  0.00  0.00    +0.007 C 
ATOM     30  C   LIG    1       23.527 -26.686  13.342  0.00  0.00    +0.007 C 
ENDBRANCH  27  28
ENDBRANCH  26  27
ENDBRANCH  25  26
ENDBRANCH  23  25
ENDBRANCH  22  23
ENDBRANCH  21  22
ENDBRANCH  20  21
ENDBRANCH  18  20
ENDBRANCH  17  18
ENDBRANCH  16  17
ENDBRANCH  15  16
ENDBRANCH   9  15
BRANCH   3  31
ATOM     31  O   LIG    1       30.633 -17.568   8.188  0.00  0.00    -0.425 OA
BRANCH  31  32
ATOM     32  C   LIG    1       31.991 -17.357   8.465  0.00  0.00    +0.313 C 
ATOM     33  O   LIG    1       32.977 -17.987   8.113  0.00  0.00    -0.250 OA
BRANCH  32  34
ATOM     34  C   LIG    1       32.162 -16.210   9.382  0.00  0.00    +0.132 C 
BRANCH  34  35
ATOM     35  C   LIG    1       32.397 -16.712  10.800  0.00  0.00    +0.131 C 
BRANCH  35  36
ATOM     36  C   LIG    1       31.210 -16.448  11.605  0.00  0.00    +0.305 C 
ATOM     37  O   LIG    1       31.407 -15.897  12.673  0.00  0.00    -0.251 OA
BRANCH  36  38
ATOM     38  O   LIG    1       30.029 -16.866  11.125  0.00  0.00    -0.481 OA
ATOM     39  H   LIG    1       29.370 -16.161  10.998  0.00  0.00    +0.295 HD
ENDBRANCH  36  38
ENDBRANCH  35  36
ENDBRANCH  34  35
ENDBRANCH  32  34
ENDBRANCH  31  32
ENDBRANCH   3  31
TORSDOF 18
ENDMDL
MODEL 9
REMARK VINA RESULT:      -8.4      2.253      4.250
REMARK  Name = *****
REMARK                            x       y       z     vdW  Elec       q    Type
REMARK                         _______ _______ _______ _____ _____    ______ ____
ROOT
ATOM      1  C   LIG    1       24.442 -29.097  14.919  0.00  0.00    +0.048 C 
ATOM      2  C   LIG    1       24.585 -29.949  13.669  0.00  0.00    -0.001 A 
ATOM      3  C   LIG    1       25.008 -31.248  13.481  0.00  0.00    +0.138 A 
ATOM      4  C   LIG    1       25.101 -31.996  12.117  0.00  0.00    -0.001 A 
ATOM      5  C   LIG    1       25.397 -33.429  11.922  0.00  0.00    +0.048 C 
ATOM      6  C   LIG    1       24.901 -31.416  10.897  0.00  0.00    +0.001 A 
ATOM      7  C   LIG    1       25.215 -31.859   9.442  0.00  0.00    +0.043 C 
ATOM      8  C   LIG    1       25.980 -30.724   8.744  0.00  0.00    +0.052 C 
ATOM      9  C   LIG    1       25.941 -29.242   9.403  0.00  0.00    +0.108 C 
ATOM     10  O   LIG    1       24.529 -29.571   9.805  0.00  0.00    -0.485 OA
ATOM     11  C   LIG    1       27.056 -28.931  11.088  0.00  0.00    +0.056 C 
ATOM     12  C   LIG    1       24.548 -30.136  11.123  0.00  0.00    +0.128 A 
ATOM     13  C   LIG    1       24.272 -29.420  12.474  0.00  0.00    -0.002 A 
ATOM     14  C   LIG    1       23.589 -28.102  12.678  0.00  0.00    +0.048 C 
ENDROOT
BRANCH   9  15
ATOM     15  C   LIG    1       26.298 -27.828   8.029  0.00  0.00    +0.048 C 
BRANCH  15  16
ATOM     16  C   LIG    1       25.399 -27.833   6.342  0.00  0.00    +0.004 C 
BRANCH  16  17
ATOM     17  C   LIG    1       24.161 -27.146   6.053  0.00  0.00    +0.003 C 
BRANCH  17  18
ATOM     18  C   LIG    1       24.243 -25.637   5.758  0.00  0.00    -0.014 C 
ATOM     19  C   LIG    1       25.260 -25.465   4.572  0.00  0.00    +0.007 C 
BRANCH  18  20
ATOM     20  C   LIG    1       24.088 -24.454   6.795  0.00  0.00    +0.003 C 
BRANCH  20  21
ATOM     21  C   LIG    1       22.799 -23.472   6.782  0.00  0.00    +0.000 C 
BRANCH  21  22
ATOM     22  C   LIG    1       23.251 -22.064   7.160  0.00  0.00    +0.003 C 
BRANCH  22  23
ATOM     23  C   LIG    1       23.498 -20.679   6.320  0.00  0.00    -0.014 C 
ATOM     24  C   LIG    1       22.396 -20.127   4.987  0.00  0.00    +0.007 C 
BRANCH  23  25
ATOM     25  C   LIG    1       25.014 -20.972   5.895  0.00  0.00    +0.003 C 
BRANCH  25  26
ATOM     26  C   LIG    1       26.518 -20.268   6.486  0.00  0.00    +0.000 C 
BRANCH  26  27
ATOM     27  C   LIG    1       28.198 -20.621   7.578  0.00  0.00    +0.003 C 
BRANCH  27  28
ATOM     28  C   LIG    1       29.757 -20.163   8.068  0.00  0.00    -0.017 C 
ATOM     29  C   LIG    1       30.453 -19.460   6.750  0.00  0.00    +0.007 C 
ATOM     30  C   LIG    1       30.800 -21.300   8.597  0.00  0.00    +0.007 C 
ENDBRANCH  27  28
ENDBRANCH  26  27
ENDBRANCH  25  26
ENDBRANCH  23  25
ENDBRANCH  22  23
ENDBRANCH  21  22
ENDBRANCH  20  21
ENDBRANCH  18  20
ENDBRANCH  17  18
ENDBRANCH  16  17
ENDBRANCH  15  16
ENDBRANCH   9  15
BRANCH   3  31
ATOM     31  O   LIG    1       25.483 -31.884  14.653  0.00  0.00    -0.425 OA
BRANCH  31  32
ATOM     32  C   LIG    1       26.837 -32.045  14.980  0.00  0.00    +0.313 C 
ATOM     33  O   LIG    1       27.540 -33.044  14.968  0.00  0.00    -0.250 OA
BRANCH  32  34
ATOM     34  C   LIG    1       27.410 -30.770  15.463  0.00  0.00    +0.132 C 
BRANCH  34  35
ATOM     35  C   LIG    1       28.856 -30.647  15.004  0.00  0.00    +0.131 C 
BRANCH  35  36
ATOM     36  C   LIG    1       29.010 -29.423  14.226  0.00  0.00    +0.305 C 
ATOM     37  O   LIG    1       28.246 -28.518  14.508  0.00  0.00    -0.251 OA
BRANCH  36  38
ATOM     38  O   LIG    1       29.935 -29.417  13.254  0.00  0.00    -0.481 OA
ATOM     39  H   LIG    1       30.228 -30.300  12.968  0.00  0.00    +0.295 HD
ENDBRANCH  36  38
ENDBRANCH  35  36
ENDBRANCH  34  35
ENDBRANCH  32  34
ENDBRANCH  31  32
ENDBRANCH   3  31
TORSDOF 18
ENDMDL
