MODEL 1
REMARK VINA RESULT:      17.8      0.000      0.000
REMARK  Name = *****
REMARK                            x       y       z     vdW  Elec       q    Type
REMARK                         _______ _______ _______ _____ _____    ______ ____
ROOT
ATOM      1  C   LIG    1       25.100 -18.827   4.346  0.00  0.00    +0.250 C 
ATOM      2  C   LIG    1       26.310 -18.226   5.134  0.00  0.00    +0.092 C 
ATOM      3  C   LIG    1       27.378 -19.386   5.116  0.00  0.00    +0.054 C 
ATOM      4  N   LIG    1       28.832 -19.114   5.274  0.00  0.00    -0.292 NA
ATOM      5  C   LIG    1       29.220 -18.206   6.381  0.00  0.00    +0.090 C 
ATOM      6  C   LIG    1       28.389 -16.948   6.631  0.00  0.00    +0.051 C 
ATOM      7  C   LIG    1       27.945 -16.298   5.351  0.00  0.00    -0.039 A 
ATOM      8  C   LIG    1       28.617 -15.159   4.875  0.00  0.00    +0.053 A 
ATOM      9  C   LIG    1       28.211 -14.625   3.675  0.00  0.00    +0.167 A 
ATOM     10  O   LIG    1       28.765 -13.557   3.043  0.00  0.00    -0.453 OA
ATOM     11  C   LIG    1       27.956 -13.501   1.850  0.00  0.00    +0.466 C 
ATOM     12  O   LIG    1       26.911 -14.494   1.818  0.00  0.00    -0.453 OA
ATOM     13  C   LIG    1       27.159 -15.159   2.979  0.00  0.00    +0.167 A 
ATOM     14  C   LIG    1       26.468 -16.266   3.429  0.00  0.00    +0.054 A 
ATOM     15  C   LIG    1       29.468 -20.431   5.521  0.00  0.00    +0.085 C 
ATOM     16  C   LIG    1       28.364 -21.343   6.056  0.00  0.00    +0.017 C 
ATOM     17  C   LIG    1       27.161 -20.428   6.228  0.00  0.00    +0.029 C 
ATOM     18  C   LIG    1       27.073 -19.959   3.734  0.00  0.00    +0.041 C 
ATOM     19  C   LIG    1       26.887 -16.896   4.610  0.00  0.00    -0.031 A 
ATOM     20  C   LIG    1       25.837 -19.650   3.320  0.00  0.00    +0.136 C 
ENDROOT
BRANCH  20  21
ATOM     21  O   LIG    1       25.386 -19.931   2.051  0.00  0.00    -0.496 OA
ATOM     22  C   LIG    1       24.187 -20.705   1.988  0.00  0.00    +0.277 C 
ENDBRANCH  20  21
BRANCH   1  23
ATOM     23  O   LIG    1       24.328 -19.626   5.290  0.00  0.00    -0.451 OA
BRANCH  23  24
ATOM     24  C   LIG    1       23.005 -19.370   5.448  0.00  0.00    +0.340 C 
ATOM     25  O   LIG    1       22.272 -19.931   6.253  0.00  0.00    -0.248 OA
BRANCH  24  26
ATOM     26  C   LIG    1       22.480 -18.232   4.520  0.00  0.00    +0.172 C 
BRANCH  26  27
ATOM     27  O   LIG    1       21.492 -17.495   5.291  0.00  0.00    -0.377 OA
ATOM     28  H   LIG    1       21.364 -17.987   6.128  0.00  0.00    +0.211 HD
ENDBRANCH  26  27
BRANCH  26  29
ATOM     29  C   LIG    1       21.703 -18.753   3.317  0.00  0.00    +0.166 C 
BRANCH  29  30
ATOM     30  C   LIG    1       20.267 -19.041   3.549  0.00  0.00    +0.310 C 
ATOM     31  O   LIG    1       19.350 -18.269   3.245  0.00  0.00    -0.251 OA
BRANCH  30  33
ATOM     32  C   LIG    1       21.263 -21.146   4.070  0.00  0.00    +0.280 C 
ATOM     33  O   LIG    1       20.094 -20.269   4.064  0.00  0.00    -0.468 OA
ENDBRANCH  30  33
ENDBRANCH  29  30
ENDBRANCH  26  29
BRANCH  26  34
ATOM     34  C   LIG    1       23.595 -17.217   4.194  0.00  0.00    +0.047 C 
BRANCH  34  35
ATOM     35  C   LIG    1       23.427 -15.840   4.866  0.00  0.00    +0.006 C 
BRANCH  35  36
ATOM     36  C   LIG    1       23.124 -14.748   3.829  0.00  0.00    +0.034 C 
BRANCH  36  37
ATOM     37  C   LIG    1       24.039 -13.506   3.914  0.00  0.00    +0.060 C 
ATOM     38  C   LIG    1       25.190 -13.699   4.908  0.00  0.00    +0.041 C 
ATOM     39  C   LIG    1       23.221 -12.278   4.328  0.00  0.00    +0.041 C 
BRANCH  37  40
ATOM     40  O   LIG    1       24.563 -13.217   2.616  0.00  0.00    -0.389 OA
ATOM     41  H   LIG    1       23.932 -13.528   1.942  0.00  0.00    +0.210 HD
ENDBRANCH  37  40
ENDBRANCH  36  37
ENDBRANCH  35  36
ENDBRANCH  34  35
ENDBRANCH  26  34
ENDBRANCH  24  26
ENDBRANCH  23  24
ENDBRANCH   1  23
TORSDOF 13
ENDMDL
MODEL 2
REMARK VINA RESULT:      18.2      1.804      6.252
REMARK  Name = *****
REMARK                            x       y       z     vdW  Elec       q    Type
REMARK                         _______ _______ _______ _____ _____    ______ ____
ROOT
ATOM      1  C   LIG    1       25.207 -16.108   3.111  0.00  0.00    +0.250 C 
ATOM      2  C   LIG    1       25.620 -17.615   3.158  0.00  0.00    +0.092 C 
ATOM      3  C   LIG    1       26.708 -17.667   4.300  0.00  0.00    +0.054 C 
ATOM      4  N   LIG    1       27.002 -18.920   5.043  0.00  0.00    -0.292 NA
ATOM      5  C   LIG    1       27.194 -20.145   4.229  0.00  0.00    +0.090 C 
ATOM      6  C   LIG    1       26.253 -20.405   3.054  0.00  0.00    +0.051 C 
ATOM      7  C   LIG    1       24.834 -20.019   3.366  0.00  0.00    -0.039 A 
ATOM      8  C   LIG    1       23.895 -21.011   3.695  0.00  0.00    +0.053 A 
ATOM      9  C   LIG    1       22.622 -20.610   4.023  0.00  0.00    +0.167 A 
ATOM     10  O   LIG    1       21.599 -21.419   4.405  0.00  0.00    -0.453 OA
ATOM     11  C   LIG    1       20.561 -20.447   4.642  0.00  0.00    +0.466 C 
ATOM     12  O   LIG    1       20.964 -19.094   4.349  0.00  0.00    -0.453 OA
ATOM     13  C   LIG    1       22.263 -19.289   3.993  0.00  0.00    +0.167 A 
ATOM     14  C   LIG    1       23.158 -18.293   3.657  0.00  0.00    +0.054 A 
ATOM     15  C   LIG    1       28.262 -18.667   5.786  0.00  0.00    +0.085 C 
ATOM     16  C   LIG    1       28.966 -17.525   5.051  0.00  0.00    +0.017 C 
ATOM     17  C   LIG    1       28.117 -17.286   3.812  0.00  0.00    +0.029 C 
ATOM     18  C   LIG    1       26.122 -16.603   5.225  0.00  0.00    +0.041 C 
ATOM     19  C   LIG    1       24.490 -18.638   3.386  0.00  0.00    -0.031 A 
ATOM     20  C   LIG    1       25.305 -15.762   4.576  0.00  0.00    +0.136 C 
ENDROOT
BRANCH  20  21
ATOM     21  O   LIG    1       24.549 -14.812   5.223  0.00  0.00    -0.496 OA
ATOM     22  C   LIG    1       23.135 -14.958   5.080  0.00  0.00    +0.277 C 
ENDBRANCH  20  21
BRANCH   1  23
ATOM     23  O   LIG    1       26.188 -15.419   2.281  0.00  0.00    -0.451 OA
BRANCH  23  24
ATOM     24  C   LIG    1       26.990 -14.482   2.844  0.00  0.00    +0.340 C 
ATOM     25  O   LIG    1       28.091 -14.702   3.333  0.00  0.00    -0.248 OA
BRANCH  24  26
ATOM     26  C   LIG    1       26.400 -13.040   2.776  0.00  0.00    +0.172 C 
BRANCH  26  27
ATOM     27  O   LIG    1       25.820 -12.770   4.081  0.00  0.00    -0.377 OA
ATOM     28  H   LIG    1       25.299 -11.946   3.993  0.00  0.00    +0.211 HD
ENDBRANCH  26  27
BRANCH  26  29
ATOM     29  C   LIG    1       25.226 -12.920   1.812  0.00  0.00    +0.166 C 
BRANCH  29  30
ATOM     30  C   LIG    1       23.904 -12.660   2.431  0.00  0.00    +0.310 C 
ATOM     31  O   LIG    1       22.969 -13.469   2.430  0.00  0.00    -0.251 OA
BRANCH  30  33
ATOM     32  C   LIG    1       23.677 -11.480   4.493  0.00  0.00    +0.280 C 
ATOM     33  O   LIG    1       23.882 -11.466   3.046  0.00  0.00    -0.468 OA
ENDBRANCH  30  33
ENDBRANCH  29  30
ENDBRANCH  26  29
BRANCH  26  34
ATOM     34  C   LIG    1       27.514 -11.988   2.589  0.00  0.00    +0.047 C 
BRANCH  34  35
ATOM     35  C   LIG    1       28.922 -12.468   2.990  0.00  0.00    +0.006 C 
BRANCH  35  36
ATOM     36  C   LIG    1       29.385 -11.805   4.297  0.00  0.00    +0.034 C 
BRANCH  36  37
ATOM     37  C   LIG    1       28.676 -12.323   5.569  0.00  0.00    +0.060 C 
ATOM     38  C   LIG    1       28.635 -13.854   5.628  0.00  0.00    +0.041 C 
ATOM     39  C   LIG    1       27.244 -11.780   5.630  0.00  0.00    +0.041 C 
BRANCH  37  40
ATOM     40  O   LIG    1       29.346 -11.810   6.722  0.00  0.00    -0.389 OA
ATOM     41  H   LIG    1       30.305 -11.947   6.621  0.00  0.00    +0.210 HD
ENDBRANCH  37  40
ENDBRANCH  36  37
ENDBRANCH  35  36
ENDBRANCH  34  35
ENDBRANCH  26  34
ENDBRANCH  24  26
ENDBRANCH  23  24
ENDBRANCH   1  23
TORSDOF 13
ENDMDL
MODEL 3
REMARK VINA RESULT:      18.2      2.407      5.963
REMARK  Name = *****
REMARK                            x       y       z     vdW  Elec       q    Type
REMARK                         _______ _______ _______ _____ _____    ______ ____
ROOT
ATOM      1  C   LIG    1       24.445 -16.930   4.535  0.00  0.00    +0.250 C 
ATOM      2  C   LIG    1       24.080 -18.241   5.306  0.00  0.00    +0.092 C 
ATOM      3  C   LIG    1       23.219 -19.057   4.265  0.00  0.00    +0.054 C 
ATOM      4  N   LIG    1       23.093 -20.536   4.344  0.00  0.00    -0.292 NA
ATOM      5  C   LIG    1       22.783 -21.105   5.677  0.00  0.00    +0.090 C 
ATOM      6  C   LIG    1       23.500 -20.544   6.905  0.00  0.00    +0.051 C 
ATOM      7  C   LIG    1       24.943 -20.230   6.625  0.00  0.00    -0.039 A 
ATOM      8  C   LIG    1       25.948 -21.112   7.057  0.00  0.00    +0.053 A 
ATOM      9  C   LIG    1       27.250 -20.812   6.737  0.00  0.00    +0.167 A 
ATOM     10  O   LIG    1       28.343 -21.564   7.033  0.00  0.00    -0.453 OA
ATOM     11  C   LIG    1       29.385 -20.774   6.425  0.00  0.00    +0.466 C 
ATOM     12  O   LIG    1       28.906 -19.551   5.830  0.00  0.00    -0.453 OA
ATOM     13  C   LIG    1       27.569 -19.670   6.052  0.00  0.00    +0.167 A 
ATOM     14  C   LIG    1       26.606 -18.775   5.629  0.00  0.00    +0.054 A 
ATOM     15  C   LIG    1       21.984 -20.899   3.426  0.00  0.00    +0.085 C 
ATOM     16  C   LIG    1       21.134 -19.639   3.268  0.00  0.00    +0.017 C 
ATOM     17  C   LIG    1       21.737 -18.644   4.248  0.00  0.00    +0.029 C 
ATOM     18  C   LIG    1       23.941 -18.634   2.988  0.00  0.00    +0.041 C 
ATOM     19  C   LIG    1       25.255 -19.068   5.864  0.00  0.00    -0.031 A 
ATOM     20  C   LIG    1       24.607 -17.481   3.141  0.00  0.00    +0.136 C 
ENDROOT
BRANCH  20  21
ATOM     21  O   LIG    1       25.448 -16.974   2.177  0.00  0.00    -0.496 OA
ATOM     22  C   LIG    1       26.237 -15.855   2.584  0.00  0.00    +0.277 C 
ENDBRANCH  20  21
BRANCH   1  23
ATOM     23  O   LIG    1       23.314 -16.021   4.676  0.00  0.00    -0.451 OA
BRANCH  23  24
ATOM     24  C   LIG    1       23.327 -14.840   4.010  0.00  0.00    +0.340 C 
ATOM     25  O   LIG    1       22.541 -14.523   3.126  0.00  0.00    -0.248 OA
BRANCH  24  26
ATOM     26  C   LIG    1       24.434 -13.860   4.507  0.00  0.00    +0.172 C 
BRANCH  26  27
ATOM     27  O   LIG    1       25.690 -14.590   4.441  0.00  0.00    -0.377 OA
ATOM     28  H   LIG    1       25.988 -14.721   5.365  0.00  0.00    +0.211 HD
ENDBRANCH  26  27
BRANCH  26  29
ATOM     29  C   LIG    1       24.290 -13.495   5.980  0.00  0.00    +0.166 C 
BRANCH  29  30
ATOM     30  C   LIG    1       24.369 -12.050   6.299  0.00  0.00    +0.310 C 
ATOM     31  O   LIG    1       25.426 -11.448   6.523  0.00  0.00    -0.251 OA
BRANCH  30  33
ATOM     32  C   LIG    1       22.032 -12.345   5.913  0.00  0.00    +0.280 C 
ATOM     33  O   LIG    1       23.157 -11.473   6.245  0.00  0.00    -0.468 OA
ENDBRANCH  30  33
ENDBRANCH  29  30
ENDBRANCH  26  29
BRANCH  26  34
ATOM     34  C   LIG    1       24.596 -12.665   3.546  0.00  0.00    +0.047 C 
BRANCH  34  35
ATOM     35  C   LIG    1       25.635 -12.877   2.427  0.00  0.00    +0.006 C 
BRANCH  35  36
ATOM     36  C   LIG    1       26.923 -12.087   2.708  0.00  0.00    +0.034 C 
BRANCH  36  37
ATOM     37  C   LIG    1       27.790 -12.654   3.854  0.00  0.00    +0.060 C 
ATOM     38  C   LIG    1       28.907 -11.691   4.270  0.00  0.00    +0.041 C 
ATOM     39  C   LIG    1       28.411 -13.990   3.431  0.00  0.00    +0.041 C 
BRANCH  37  40
ATOM     40  O   LIG    1       26.954 -12.942   4.977  0.00  0.00    -0.389 OA
ATOM     41  H   LIG    1       26.673 -12.106   5.388  0.00  0.00    +0.210 HD
ENDBRANCH  37  40
ENDBRANCH  36  37
ENDBRANCH  35  36
ENDBRANCH  34  35
ENDBRANCH  26  34
ENDBRANCH  24  26
ENDBRANCH  23  24
ENDBRANCH   1  23
TORSDOF 13
ENDMDL
MODEL 4
REMARK VINA RESULT:      18.4      2.018      5.164
REMARK  Name = *****
REMARK                            x       y       z     vdW  Elec       q    Type
REMARK                         _______ _______ _______ _____ _____    ______ ____
ROOT
ATOM      1  C   LIG    1       25.636 -17.559   3.118  0.00  0.00    +0.250 C 
ATOM      2  C   LIG    1       24.940 -16.162   3.019  0.00  0.00    +0.092 C 
ATOM      3  C   LIG    1       23.989 -16.130   4.277  0.00  0.00    +0.054 C 
ATOM      4  N   LIG    1       23.533 -14.849   4.880  0.00  0.00    -0.292 NA
ATOM      5  C   LIG    1       23.019 -13.822   3.942  0.00  0.00    +0.090 C 
ATOM      6  C   LIG    1       23.762 -13.582   2.629  0.00  0.00    +0.051 C 
ATOM      7  C   LIG    1       25.253 -13.654   2.799  0.00  0.00    -0.039 A 
ATOM      8  C   LIG    1       26.007 -12.470   2.865  0.00  0.00    +0.053 A 
ATOM      9  C   LIG    1       27.362 -12.579   3.072  0.00  0.00    +0.167 A 
ATOM     10  O   LIG    1       28.239 -11.549   3.203  0.00  0.00    -0.453 OA
ATOM     11  C   LIG    1       29.468 -12.269   3.428  0.00  0.00    +0.466 C 
ATOM     12  O   LIG    1       29.311 -13.702   3.374  0.00  0.00    -0.453 OA
ATOM     13  C   LIG    1       27.970 -13.802   3.171  0.00  0.00    +0.167 A 
ATOM     14  C   LIG    1       27.259 -14.983   3.092  0.00  0.00    +0.054 A 
ATOM     15  C   LIG    1       22.433 -15.207   5.810  0.00  0.00    +0.085 C 
ATOM     16  C   LIG    1       21.895 -16.556   5.334  0.00  0.00    +0.017 C 
ATOM     17  C   LIG    1       22.640 -16.829   4.036  0.00  0.00    +0.029 C 
ATOM     18  C   LIG    1       24.868 -16.913   5.250  0.00  0.00    +0.041 C 
ATOM     19  C   LIG    1       25.864 -14.930   2.956  0.00  0.00    -0.031 A 
ATOM     20  C   LIG    1       25.762 -17.684   4.616  0.00  0.00    +0.136 C 
ENDROOT
BRANCH  20  21
ATOM     21  O   LIG    1       26.755 -18.369   5.277  0.00  0.00    -0.496 OA
ATOM     22  C   LIG    1       28.014 -18.420   4.604  0.00  0.00    +0.277 C 
ENDBRANCH  20  21
BRANCH   1  23
ATOM     23  O   LIG    1       24.729 -18.534   2.525  0.00  0.00    -0.451 OA
BRANCH  23  24
ATOM     24  C   LIG    1       24.819 -19.834   2.897  0.00  0.00    +0.340 C 
ATOM     25  O   LIG    1       25.676 -20.619   2.508  0.00  0.00    -0.248 OA
BRANCH  24  26
ATOM     26  C   LIG    1       23.733 -20.259   3.933  0.00  0.00    +0.172 C 
BRANCH  26  27
ATOM     27  O   LIG    1       23.585 -19.145   4.855  0.00  0.00    -0.377 OA
ATOM     28  H   LIG    1       22.817 -19.353   5.426  0.00  0.00    +0.211 HD
ENDBRANCH  26  27
BRANCH  26  29
ATOM     29  C   LIG    1       24.173 -21.420   4.816  0.00  0.00    +0.166 C 
BRANCH  29  30
ATOM     30  C   LIG    1       25.030 -21.066   5.972  0.00  0.00    +0.310 C 
ATOM     31  O   LIG    1       24.621 -20.486   6.984  0.00  0.00    -0.251 OA
BRANCH  30  33
ATOM     32  C   LIG    1       27.267 -21.104   6.803  0.00  0.00    +0.280 C 
ATOM     33  O   LIG    1       26.285 -21.517   5.804  0.00  0.00    -0.468 OA
ENDBRANCH  30  33
ENDBRANCH  29  30
ENDBRANCH  26  29
BRANCH  26  34
ATOM     34  C   LIG    1       22.355 -20.430   3.260  0.00  0.00    +0.047 C 
BRANCH  34  35
ATOM     35  C   LIG    1       21.204 -20.760   4.231  0.00  0.00    +0.006 C 
BRANCH  35  36
ATOM     36  C   LIG    1       19.876 -20.159   3.744  0.00  0.00    +0.034 C 
BRANCH  36  37
ATOM     37  C   LIG    1       19.983 -18.716   3.200  0.00  0.00    +0.060 C 
ATOM     38  C   LIG    1       19.350 -18.569   1.812  0.00  0.00    +0.041 C 
ATOM     39  C   LIG    1       21.454 -18.290   3.128  0.00  0.00    +0.041 C 
BRANCH  37  40
ATOM     40  O   LIG    1       19.354 -17.820   4.118  0.00  0.00    -0.389 OA
ATOM     41  H   LIG    1       19.055 -17.028   3.637  0.00  0.00    +0.210 HD
ENDBRANCH  37  40
ENDBRANCH  36  37
ENDBRANCH  35  36
ENDBRANCH  34  35
ENDBRANCH  26  34
ENDBRANCH  24  26
ENDBRANCH  23  24
ENDBRANCH   1  23
TORSDOF 13
ENDMDL
MODEL 5
REMARK VINA RESULT:      20.4      1.839      6.367
REMARK  Name = *****
REMARK                            x       y       z     vdW  Elec       q    Type
REMARK                         _______ _______ _______ _____ _____    ______ ____
ROOT
ATOM      1  C   LIG    1       25.349 -16.855   3.333  0.00  0.00    +0.250 C 
ATOM      2  C   LIG    1       25.242 -18.410   3.456  0.00  0.00    +0.092 C 
ATOM      3  C   LIG    1       25.977 -18.727   4.815  0.00  0.00    +0.054 C 
ATOM      4  N   LIG    1       25.687 -19.962   5.592  0.00  0.00    -0.292 NA
ATOM      5  C   LIG    1       25.656 -21.233   4.829  0.00  0.00    +0.090 C 
ATOM      6  C   LIG    1       24.964 -21.260   3.466  0.00  0.00    +0.051 C 
ATOM      7  C   LIG    1       23.710 -20.432   3.450  0.00  0.00    -0.039 A 
ATOM      8  C   LIG    1       22.456 -21.061   3.543  0.00  0.00    +0.053 A 
ATOM      9  C   LIG    1       21.336 -20.264   3.575  0.00  0.00    +0.167 A 
ATOM     10  O   LIG    1       20.052 -20.690   3.703  0.00  0.00    -0.453 OA
ATOM     11  C   LIG    1       19.350 -19.430   3.708  0.00  0.00    +0.466 C 
ATOM     12  O   LIG    1       20.216 -18.291   3.531  0.00  0.00    -0.453 OA
ATOM     13  C   LIG    1       21.431 -18.902   3.480  0.00  0.00    +0.167 A 
ATOM     14  C   LIG    1       22.646 -18.256   3.369  0.00  0.00    +0.054 A 
ATOM     15  C   LIG    1       26.765 -20.067   6.606  0.00  0.00    +0.085 C 
ATOM     16  C   LIG    1       27.939 -19.249   6.066  0.00  0.00    +0.017 C 
ATOM     17  C   LIG    1       27.505 -18.835   4.668  0.00  0.00    +0.029 C 
ATOM     18  C   LIG    1       25.569 -17.479   5.594  0.00  0.00    +0.041 C 
ATOM     19  C   LIG    1       23.825 -19.015   3.406  0.00  0.00    -0.031 A 
ATOM     20  C   LIG    1       25.226 -16.468   4.785  0.00  0.00    +0.136 C 
ENDROOT
BRANCH  20  21
ATOM     21  O   LIG    1       24.687 -15.292   5.253  0.00  0.00    -0.496 OA
ATOM     22  C   LIG    1       23.262 -15.202   5.178  0.00  0.00    +0.277 C 
ENDBRANCH  20  21
BRANCH   1  23
ATOM     23  O   LIG    1       26.656 -16.559   2.758  0.00  0.00    -0.451 OA
BRANCH  23  24
ATOM     24  C   LIG    1       27.575 -15.900   3.507  0.00  0.00    +0.340 C 
ATOM     25  O   LIG    1       28.179 -16.379   4.458  0.00  0.00    -0.248 OA
BRANCH  24  26
ATOM     26  C   LIG    1       27.846 -14.445   3.015  0.00  0.00    +0.172 C 
BRANCH  26  27
ATOM     27  O   LIG    1       28.662 -14.560   1.818  0.00  0.00    -0.377 OA
ATOM     28  H   LIG    1       28.502 -13.751   1.290  0.00  0.00    +0.211 HD
ENDBRANCH  26  27
BRANCH  26  29
ATOM     29  C   LIG    1       28.709 -13.641   3.980  0.00  0.00    +0.166 C 
BRANCH  29  30
ATOM     30  C   LIG    1       27.989 -12.978   5.094  0.00  0.00    +0.310 C 
ATOM     31  O   LIG    1       28.291 -11.869   5.549  0.00  0.00    -0.251 OA
BRANCH  30  33
ATOM     32  C   LIG    1       26.308 -13.315   6.754  0.00  0.00    +0.280 C 
ATOM     33  O   LIG    1       26.933 -13.707   5.493  0.00  0.00    -0.468 OA
ENDBRANCH  30  33
ENDBRANCH  29  30
ENDBRANCH  26  29
BRANCH  26  34
ATOM     34  C   LIG    1       26.542 -13.754   2.567  0.00  0.00    +0.047 C 
BRANCH  34  35
ATOM     35  C   LIG    1       26.703 -12.271   2.177  0.00  0.00    +0.006 C 
BRANCH  35  36
ATOM     36  C   LIG    1       25.479 -11.447   2.607  0.00  0.00    +0.034 C 
BRANCH  36  37
ATOM     37  C   LIG    1       24.214 -12.283   2.911  0.00  0.00    +0.060 C 
ATOM     38  C   LIG    1       23.957 -12.423   4.415  0.00  0.00    +0.041 C 
ATOM     39  C   LIG    1       24.346 -13.679   2.292  0.00  0.00    +0.041 C 
BRANCH  37  40
ATOM     40  O   LIG    1       23.085 -11.673   2.280  0.00  0.00    -0.389 OA
ATOM     41  H   LIG    1       22.853 -12.180   1.483  0.00  0.00    +0.210 HD
ENDBRANCH  37  40
ENDBRANCH  36  37
ENDBRANCH  35  36
ENDBRANCH  34  35
ENDBRANCH  26  34
ENDBRANCH  24  26
ENDBRANCH  23  24
ENDBRANCH   1  23
TORSDOF 13
ENDMDL
