MODEL 1
REMARK VINA RESULT:      -7.9      0.000      0.000
REMARK  Name = *****
REMARK                            x       y       z     vdW  Elec       q    Type
REMARK                         _______ _______ _______ _____ _____    ______ ____
ROOT
ATOM      1  O   LIG    1       25.871 -25.147   6.082  0.00  0.00    -0.459 OA
ENDROOT
BRANCH   1   2
ATOM      2  C   LIG    1       25.846 -26.384   5.609  0.00  0.00    +0.340 C 
ATOM      3  O   LIG    1       26.055 -26.688   4.450  0.00  0.00    -0.245 OA
BRANCH   2   4
ATOM      4  C   LIG    1       25.584 -27.393   6.642  0.00  0.00    +0.066 A 
ATOM      5  C   LIG    1       26.374 -27.408   7.792  0.00  0.00    +0.064 A 
ATOM      6  C   LIG    1       26.288 -28.450   8.722  0.00  0.00    +0.166 A 
ATOM      7  C   LIG    1       25.348 -29.485   8.517  0.00  0.00    +0.203 A 
ATOM      8  C   LIG    1       24.503 -29.441   7.378  0.00  0.00    +0.166 A 
ATOM      9  C   LIG    1       24.635 -28.403   6.450  0.00  0.00    +0.064 A 
BRANCH   6  10
ATOM     10  O   LIG    1       27.172 -28.556   9.764  0.00  0.00    -0.491 OA
ATOM     11  C   LIG    1       26.785 -28.056  11.041  0.00  0.00    +0.277 C 
ENDBRANCH   6  10
BRANCH   7  12
ATOM     12  O   LIG    1       25.220 -30.613   9.293  0.00  0.00    -0.488 OA
ATOM     13  C   LIG    1       26.185 -31.652   9.183  0.00  0.00    +0.277 C 
ENDBRANCH   7  12
BRANCH   8  14
ATOM     14  O   LIG    1       23.629 -30.487   7.174  0.00  0.00    -0.491 OA
ATOM     15  C   LIG    1       23.987 -31.418   6.152  0.00  0.00    +0.277 C 
ENDBRANCH   8  14
ENDBRANCH   2   4
ENDBRANCH   1   2
BRANCH   1  16
ATOM     16  C   LIG    1       25.082 -24.113   5.451  0.00  0.00    +0.259 C 
BRANCH  16  17
ATOM     17  C   LIG    1       25.032 -22.741   6.262  0.00  0.00    +0.081 C 
BRANCH  17  18
ATOM     18  C   LIG    1       25.077 -21.497   5.283  0.00  0.00    -0.024 A 
ATOM     19  C   LIG    1       26.059 -20.496   5.405  0.00  0.00    +0.005 A 
ATOM     20  C   LIG    1       26.112 -19.390   4.536  0.00  0.00    +0.000 A 
ATOM     21  C   LIG    1       25.192 -19.252   3.503  0.00  0.00    +0.000 A 
ATOM     22  C   LIG    1       24.216 -20.219   3.344  0.00  0.00    +0.000 A 
ATOM     23  C   LIG    1       24.167 -21.316   4.217  0.00  0.00    +0.005 A 
ENDBRANCH  17  18
BRANCH  17  24
ATOM     24  N   LIG    1       23.788 -22.732   7.131  0.00  0.00    -0.296 NA
ATOM     25  C   LIG    1       22.730 -23.686   6.771  0.00  0.00    +0.105 C 
ATOM     26  C   LIG    1       23.195 -21.417   7.397  0.00  0.00    +0.105 C 
ENDBRANCH  17  24
BRANCH  17  28
ATOM     27  C   LIG    1       26.241 -22.018   8.546  0.00  0.00    +0.006 C 
ATOM     28  C   LIG    1       26.328 -22.698   7.177  0.00  0.00    +0.027 C 
ENDBRANCH  17  28
ENDBRANCH  16  17
ENDBRANCH   1  16
TORSDOF 10
ENDMDL
MODEL 2
REMARK VINA RESULT:      -7.6      1.130      2.336
REMARK  Name = *****
REMARK                            x       y       z     vdW  Elec       q    Type
REMARK                         _______ _______ _______ _____ _____    ______ ____
ROOT
ATOM      1  O   LIG    1       25.349 -24.687   5.994  0.00  0.00    -0.459 OA
ENDROOT
BRANCH   1   2
ATOM      2  C   LIG    1       25.479 -25.880   5.435  0.00  0.00    +0.340 C 
ATOM      3  O   LIG    1       25.745 -26.072   4.264  0.00  0.00    -0.245 OA
BRANCH   2   4
ATOM      4  C   LIG    1       25.319 -26.986   6.388  0.00  0.00    +0.066 A 
ATOM      5  C   LIG    1       26.158 -27.048   7.502  0.00  0.00    +0.064 A 
ATOM      6  C   LIG    1       26.170 -28.167   8.342  0.00  0.00    +0.166 A 
ATOM      7  C   LIG    1       25.283 -29.237   8.084  0.00  0.00    +0.203 A 
ATOM      8  C   LIG    1       24.389 -29.148   6.985  0.00  0.00    +0.166 A 
ATOM      9  C   LIG    1       24.423 -28.031   6.146  0.00  0.00    +0.064 A 
BRANCH   6  10
ATOM     10  O   LIG    1       27.102 -28.306   9.337  0.00  0.00    -0.491 OA
ATOM     11  C   LIG    1       26.706 -28.055  10.682  0.00  0.00    +0.277 C 
ENDBRANCH   6  10
BRANCH   7  12
ATOM     12  O   LIG    1       25.252 -30.430   8.765  0.00  0.00    -0.488 OA
ATOM     13  C   LIG    1       26.317 -31.359   8.600  0.00  0.00    +0.277 C 
ENDBRANCH   7  12
BRANCH   8  14
ATOM     14  O   LIG    1       23.567 -30.225   6.726  0.00  0.00    -0.491 OA
ATOM     15  C   LIG    1       24.039 -31.159   5.754  0.00  0.00    +0.277 C 
ENDBRANCH   8  14
ENDBRANCH   2   4
ENDBRANCH   1   2
BRANCH   1  16
ATOM     16  C   LIG    1       24.995 -23.541   5.187  0.00  0.00    +0.259 C 
BRANCH  16  17
ATOM     17  C   LIG    1       24.445 -22.297   6.019  0.00  0.00    +0.081 C 
BRANCH  17  18
ATOM     18  C   LIG    1       25.629 -21.496   6.698  0.00  0.00    -0.024 A 
ATOM     19  C   LIG    1       26.712 -21.002   5.948  0.00  0.00    +0.005 A 
ATOM     20  C   LIG    1       27.767 -20.282   6.541  0.00  0.00    +0.000 A 
ATOM     21  C   LIG    1       27.769 -20.018   7.905  0.00  0.00    +0.000 A 
ATOM     22  C   LIG    1       26.718 -20.479   8.677  0.00  0.00    +0.000 A 
ATOM     23  C   LIG    1       25.673 -21.200   8.079  0.00  0.00    +0.005 A 
ENDBRANCH  17  18
BRANCH  17  24
ATOM     24  N   LIG    1       23.622 -21.417   5.095  0.00  0.00    -0.296 NA
ATOM     25  C   LIG    1       24.218 -21.100   3.790  0.00  0.00    +0.105 C 
ATOM     26  C   LIG    1       23.066 -20.197   5.691  0.00  0.00    +0.105 C 
ENDBRANCH  17  24
BRANCH  17  28
ATOM     27  C   LIG    1       22.254 -23.651   6.775  0.00  0.00    +0.006 C 
ATOM     28  C   LIG    1       23.519 -22.884   7.168  0.00  0.00    +0.027 C 
ENDBRANCH  17  28
ENDBRANCH  16  17
ENDBRANCH   1  16
TORSDOF 10
ENDMDL
MODEL 3
REMARK VINA RESULT:      -7.5      5.030      8.484
REMARK  Name = *****
REMARK                            x       y       z     vdW  Elec       q    Type
REMARK                         _______ _______ _______ _____ _____    ______ ____
ROOT
ATOM      1  O   LIG    1       27.296 -20.126   6.874  0.00  0.00    -0.459 OA
ENDROOT
BRANCH   1   2
ATOM      2  C   LIG    1       28.407 -19.671   6.316  0.00  0.00    +0.340 C 
ATOM      3  O   LIG    1       28.572 -19.525   5.119  0.00  0.00    -0.245 OA
BRANCH   2   4
ATOM      4  C   LIG    1       29.437 -19.302   7.294  0.00  0.00    +0.066 A 
ATOM      5  C   LIG    1       30.275 -20.294   7.805  0.00  0.00    +0.064 A 
ATOM      6  C   LIG    1       31.150 -20.034   8.865  0.00  0.00    +0.166 A 
ATOM      7  C   LIG    1       31.222 -18.727   9.399  0.00  0.00    +0.203 A 
ATOM      8  C   LIG    1       30.413 -17.704   8.841  0.00  0.00    +0.166 A 
ATOM      9  C   LIG    1       29.525 -18.002   7.803  0.00  0.00    +0.064 A 
BRANCH   6  10
ATOM     10  O   LIG    1       31.853 -21.038   9.478  0.00  0.00    -0.491 OA
ATOM     11  C   LIG    1       31.532 -22.389   9.158  0.00  0.00    +0.277 C 
ENDBRANCH   6  10
BRANCH   7  12
ATOM     12  O   LIG    1       31.962 -18.352  10.495  0.00  0.00    -0.488 OA
ATOM     13  C   LIG    1       31.298 -18.006  11.704  0.00  0.00    +0.277 C 
ENDBRANCH   7  12
BRANCH   8  14
ATOM     14  O   LIG    1       30.465 -16.449   9.410  0.00  0.00    -0.491 OA
ATOM     15  C   LIG    1       31.717 -15.767   9.320  0.00  0.00    +0.277 C 
ENDBRANCH   8  14
ENDBRANCH   2   4
ENDBRANCH   1   2
BRANCH   1  16
ATOM     16  C   LIG    1       26.861 -21.482   6.627  0.00  0.00    +0.259 C 
BRANCH  16  17
ATOM     17  C   LIG    1       25.280 -21.685   6.689  0.00  0.00    +0.081 C 
BRANCH  17  18
ATOM     18  C   LIG    1       24.539 -20.699   5.697  0.00  0.00    -0.024 A 
ATOM     19  C   LIG    1       25.138 -20.269   4.498  0.00  0.00    +0.005 A 
ATOM     20  C   LIG    1       24.484 -19.398   3.605  0.00  0.00    +0.000 A 
ATOM     21  C   LIG    1       23.201 -18.937   3.873  0.00  0.00    +0.000 A 
ATOM     22  C   LIG    1       22.574 -19.343   5.037  0.00  0.00    +0.000 A 
ATOM     23  C   LIG    1       23.234 -20.207   5.924  0.00  0.00    +0.005 A 
ENDBRANCH  17  18
BRANCH  17  24
ATOM     24  N   LIG    1       24.963 -23.139   6.385  0.00  0.00    -0.296 NA
ATOM     25  C   LIG    1       23.609 -23.597   6.725  0.00  0.00    +0.105 C 
ATOM     26  C   LIG    1       25.947 -24.125   6.846  0.00  0.00    +0.105 C 
ENDBRANCH  17  24
BRANCH  17  28
ATOM     27  C   LIG    1       25.835 -20.665   9.108  0.00  0.00    +0.006 C 
ATOM     28  C   LIG    1       24.827 -21.333   8.169  0.00  0.00    +0.027 C 
ENDBRANCH  17  28
ENDBRANCH  16  17
ENDBRANCH   1  16
TORSDOF 10
ENDMDL
MODEL 4
REMARK VINA RESULT:      -7.5      0.776      2.592
REMARK  Name = *****
REMARK                            x       y       z     vdW  Elec       q    Type
REMARK                         _______ _______ _______ _____ _____    ______ ____
ROOT
ATOM      1  O   LIG    1       25.610 -25.297   6.095  0.00  0.00    -0.459 OA
ENDROOT
BRANCH   1   2
ATOM      2  C   LIG    1       25.821 -26.443   5.467  0.00  0.00    +0.340 C 
ATOM      3  O   LIG    1       26.235 -26.544   4.327  0.00  0.00    -0.245 OA
BRANCH   2   4
ATOM      4  C   LIG    1       25.551 -27.619   6.303  0.00  0.00    +0.066 A 
ATOM      5  C   LIG    1       24.736 -28.635   5.802  0.00  0.00    +0.064 A 
ATOM      6  C   LIG    1       24.302 -29.688   6.614  0.00  0.00    +0.166 A 
ATOM      7  C   LIG    1       24.735 -29.750   7.958  0.00  0.00    +0.203 A 
ATOM      8  C   LIG    1       25.612 -28.749   8.452  0.00  0.00    +0.166 A 
ATOM      9  C   LIG    1       26.002 -27.692   7.624  0.00  0.00    +0.064 A 
BRANCH   6  10
ATOM     10  O   LIG    1       23.373 -30.595   6.177  0.00  0.00    -0.491 OA
ATOM     11  C   LIG    1       23.797 -31.927   5.898  0.00  0.00    +0.277 C 
ENDBRANCH   6  10
BRANCH   7  12
ATOM     12  O   LIG    1       24.316 -30.669   8.891  0.00  0.00    -0.488 OA
ATOM     13  C   LIG    1       23.140 -30.411   9.648  0.00  0.00    +0.277 C 
ENDBRANCH   7  12
BRANCH   8  14
ATOM     14  O   LIG    1       25.982 -28.805   9.779  0.00  0.00    -0.491 OA
ATOM     15  C   LIG    1       27.288 -29.315  10.049  0.00  0.00    +0.277 C 
ENDBRANCH   8  14
ENDBRANCH   2   4
ENDBRANCH   1   2
BRANCH   1  16
ATOM     16  C   LIG    1       24.999 -24.188   5.397  0.00  0.00    +0.259 C 
BRANCH  16  17
ATOM     17  C   LIG    1       24.988 -22.822   6.218  0.00  0.00    +0.081 C 
BRANCH  17  18
ATOM     18  C   LIG    1       25.056 -21.572   5.249  0.00  0.00    -0.024 A 
ATOM     19  C   LIG    1       24.140 -21.405   4.194  0.00  0.00    +0.005 A 
ATOM     20  C   LIG    1       24.186 -20.294   3.331  0.00  0.00    +0.000 A 
ATOM     21  C   LIG    1       25.144 -19.301   3.501  0.00  0.00    +0.000 A 
ATOM     22  C   LIG    1       26.057 -19.423   4.532  0.00  0.00    +0.000 A 
ATOM     23  C   LIG    1       26.007 -20.536   5.385  0.00  0.00    +0.005 A 
ENDBRANCH  17  18
BRANCH  17  24
ATOM     24  N   LIG    1       23.751 -22.790   7.098  0.00  0.00    -0.296 NA
ATOM     25  C   LIG    1       22.669 -23.717   6.739  0.00  0.00    +0.105 C 
ATOM     26  C   LIG    1       23.190 -21.463   7.376  0.00  0.00    +0.105 C 
ENDBRANCH  17  24
BRANCH  17  28
ATOM     27  C   LIG    1       26.228 -22.157   8.503  0.00  0.00    +0.006 C 
ATOM     28  C   LIG    1       26.292 -22.818   7.124  0.00  0.00    +0.027 C 
ENDBRANCH  17  28
ENDBRANCH  16  17
ENDBRANCH   1  16
TORSDOF 10
ENDMDL
MODEL 5
REMARK VINA RESULT:      -7.5      4.058      8.026
REMARK  Name = *****
REMARK                            x       y       z     vdW  Elec       q    Type
REMARK                         _______ _______ _______ _____ _____    ______ ____
ROOT
ATOM      1  O   LIG    1       25.635 -20.520   7.142  0.00  0.00    -0.459 OA
ENDROOT
BRANCH   1   2
ATOM      2  C   LIG    1       26.462 -20.913   8.098  0.00  0.00    +0.340 C 
ATOM      3  O   LIG    1       26.131 -21.533   9.091  0.00  0.00    -0.245 OA
BRANCH   2   4
ATOM      4  C   LIG    1       27.864 -20.569   7.828  0.00  0.00    +0.066 A 
ATOM      5  C   LIG    1       28.869 -21.175   8.584  0.00  0.00    +0.064 A 
ATOM      6  C   LIG    1       30.201 -20.756   8.493  0.00  0.00    +0.166 A 
ATOM      7  C   LIG    1       30.544 -19.730   7.583  0.00  0.00    +0.203 A 
ATOM      8  C   LIG    1       29.532 -19.154   6.772  0.00  0.00    +0.166 A 
ATOM      9  C   LIG    1       28.204 -19.572   6.908  0.00  0.00    +0.064 A 
BRANCH   6  10
ATOM     10  O   LIG    1       31.161 -21.231   9.347  0.00  0.00    -0.491 OA
ATOM     11  C   LIG    1       31.667 -22.547   9.142  0.00  0.00    +0.277 C 
ENDBRANCH   6  10
BRANCH   7  12
ATOM     12  O   LIG    1       31.787 -19.158   7.456  0.00  0.00    -0.488 OA
ATOM     13  C   LIG    1       32.162 -18.097   8.326  0.00  0.00    +0.277 C 
ENDBRANCH   7  12
BRANCH   8  14
ATOM     14  O   LIG    1       29.882 -18.123   5.927  0.00  0.00    -0.491 OA
ATOM     15  C   LIG    1       28.949 -17.810   4.892  0.00  0.00    +0.277 C 
ENDBRANCH   8  14
ENDBRANCH   2   4
ENDBRANCH   1   2
BRANCH   1  16
ATOM     16  C   LIG    1       25.732 -21.090   5.818  0.00  0.00    +0.259 C 
BRANCH  16  17
ATOM     17  C   LIG    1       24.544 -22.085   5.443  0.00  0.00    +0.081 C 
BRANCH  17  18
ATOM     18  C   LIG    1       24.991 -23.595   5.605  0.00  0.00    -0.024 A 
ATOM     19  C   LIG    1       24.830 -24.529   4.563  0.00  0.00    +0.005 A 
ATOM     20  C   LIG    1       25.230 -25.872   4.693  0.00  0.00    +0.000 A 
ATOM     21  C   LIG    1       25.821 -26.328   5.866  0.00  0.00    +0.000 A 
ATOM     22  C   LIG    1       26.005 -25.440   6.910  0.00  0.00    +0.000 A 
ATOM     23  C   LIG    1       25.599 -24.104   6.774  0.00  0.00    +0.005 A 
ENDBRANCH  17  18
BRANCH  17  24
ATOM     24  N   LIG    1       23.340 -21.756   6.308  0.00  0.00    -0.296 NA
ATOM     25  C   LIG    1       22.510 -22.890   6.733  0.00  0.00    +0.105 C 
ATOM     26  C   LIG    1       22.480 -20.667   5.830  0.00  0.00    +0.105 C 
ENDBRANCH  17  24
BRANCH  17  28
ATOM     27  C   LIG    1       24.632 -20.516   3.268  0.00  0.00    +0.006 C 
ATOM     28  C   LIG    1       24.195 -21.832   3.916  0.00  0.00    +0.027 C 
ENDBRANCH  17  28
ENDBRANCH  16  17
ENDBRANCH   1  16
TORSDOF 10
ENDMDL
MODEL 6
REMARK VINA RESULT:      -7.1      5.035      8.390
REMARK  Name = *****
REMARK                            x       y       z     vdW  Elec       q    Type
REMARK                         _______ _______ _______ _____ _____    ______ ____
ROOT
ATOM      1  O   LIG    1       27.179 -20.100   6.713  0.00  0.00    -0.459 OA
ENDROOT
BRANCH   1   2
ATOM      2  C   LIG    1       28.384 -19.695   6.342  0.00  0.00    +0.340 C 
ATOM      3  O   LIG    1       28.738 -19.534   5.189  0.00  0.00    -0.245 OA
BRANCH   2   4
ATOM      4  C   LIG    1       29.270 -19.402   7.475  0.00  0.00    +0.066 A 
ATOM      5  C   LIG    1       29.331 -18.098   7.969  0.00  0.00    +0.064 A 
ATOM      6  C   LIG    1       30.283 -17.725   8.924  0.00  0.00    +0.166 A 
ATOM      7  C   LIG    1       31.172 -18.699   9.433  0.00  0.00    +0.203 A 
ATOM      8  C   LIG    1       31.073 -20.038   8.974  0.00  0.00    +0.166 A 
ATOM      9  C   LIG    1       30.131 -20.373   7.996  0.00  0.00    +0.064 A 
BRANCH   6  10
ATOM     10  O   LIG    1       30.456 -16.416   9.291  0.00  0.00    -0.491 OA
ATOM     11  C   LIG    1       31.761 -15.850   9.204  0.00  0.00    +0.277 C 
ENDBRANCH   6  10
BRANCH   7  12
ATOM     12  O   LIG    1       32.212 -18.456  10.298  0.00  0.00    -0.488 OA
ATOM     13  C   LIG    1       31.965 -17.755  11.511  0.00  0.00    +0.277 C 
ENDBRANCH   7  12
BRANCH   8  14
ATOM     14  O   LIG    1       31.982 -20.959   9.450  0.00  0.00    -0.491 OA
ATOM     15  C   LIG    1       31.722 -22.326   9.128  0.00  0.00    +0.277 C 
ENDBRANCH   8  14
ENDBRANCH   2   4
ENDBRANCH   1   2
BRANCH   1  16
ATOM     16  C   LIG    1       26.791 -21.481   6.536  0.00  0.00    +0.259 C 
BRANCH  16  17
ATOM     17  C   LIG    1       25.220 -21.738   6.633  0.00  0.00    +0.081 C 
BRANCH  17  18
ATOM     18  C   LIG    1       24.421 -20.752   5.687  0.00  0.00    -0.024 A 
ATOM     19  C   LIG    1       24.917 -20.376   4.425  0.00  0.00    +0.005 A 
ATOM     20  C   LIG    1       24.212 -19.505   3.572  0.00  0.00    +0.000 A 
ATOM     21  C   LIG    1       22.976 -18.991   3.946  0.00  0.00    +0.000 A 
ATOM     22  C   LIG    1       22.449 -19.344   5.176  0.00  0.00    +0.000 A 
ATOM     23  C   LIG    1       23.161 -20.208   6.021  0.00  0.00    +0.005 A 
ENDBRANCH  17  18
BRANCH  17  24
ATOM     24  N   LIG    1       24.942 -23.193   6.300  0.00  0.00    -0.296 NA
ATOM     25  C   LIG    1       23.605 -23.698   6.639  0.00  0.00    +0.105 C 
ATOM     26  C   LIG    1       25.958 -24.160   6.732  0.00  0.00    +0.105 C 
ENDBRANCH  17  24
BRANCH  17  28
ATOM     27  C   LIG    1       25.782 -20.706   9.046  0.00  0.00    +0.006 C 
ATOM     28  C   LIG    1       24.795 -21.439   8.133  0.00  0.00    +0.027 C 
ENDBRANCH  17  28
ENDBRANCH  16  17
ENDBRANCH   1  16
TORSDOF 10
ENDMDL
MODEL 7
REMARK VINA RESULT:      -7.0      1.485      3.263
REMARK  Name = *****
REMARK                            x       y       z     vdW  Elec       q    Type
REMARK                         _______ _______ _______ _____ _____    ______ ____
ROOT
ATOM      1  O   LIG    1       25.295 -24.658   6.953  0.00  0.00    -0.459 OA
ENDROOT
BRANCH   1   2
ATOM      2  C   LIG    1       24.906 -25.664   6.185  0.00  0.00    +0.340 C 
ATOM      3  O   LIG    1       24.409 -25.542   5.081  0.00  0.00    -0.245 OA
BRANCH   2   4
ATOM      4  C   LIG    1       25.178 -26.981   6.774  0.00  0.00    +0.066 A 
ATOM      5  C   LIG    1       24.386 -28.067   6.400  0.00  0.00    +0.064 A 
ATOM      6  C   LIG    1       24.482 -29.299   7.056  0.00  0.00    +0.166 A 
ATOM      7  C   LIG    1       25.433 -29.460   8.090  0.00  0.00    +0.203 A 
ATOM      8  C   LIG    1       26.279 -28.374   8.432  0.00  0.00    +0.166 A 
ATOM      9  C   LIG    1       26.137 -27.146   7.778  0.00  0.00    +0.064 A 
BRANCH   6  10
ATOM     10  O   LIG    1       23.599 -30.316   6.806  0.00  0.00    -0.491 OA
ATOM     11  C   LIG    1       24.017 -31.395   5.975  0.00  0.00    +0.277 C 
ENDBRANCH   6  10
BRANCH   7  12
ATOM     12  O   LIG    1       25.572 -30.577   8.880  0.00  0.00    -0.488 OA
ATOM     13  C   LIG    1       26.515 -31.578   8.518  0.00  0.00    +0.277 C 
ENDBRANCH   7  12
BRANCH   8  14
ATOM     14  O   LIG    1       27.164 -28.540   9.475  0.00  0.00    -0.491 OA
ATOM     15  C   LIG    1       26.721 -28.092  10.757  0.00  0.00    +0.277 C 
ENDBRANCH   8  14
ENDBRANCH   2   4
ENDBRANCH   1   2
BRANCH   1  16
ATOM     16  C   LIG    1       26.237 -23.683   6.451  0.00  0.00    +0.259 C 
BRANCH  16  17
ATOM     17  C   LIG    1       25.906 -22.179   6.864  0.00  0.00    +0.081 C 
BRANCH  17  18
ATOM     18  C   LIG    1       27.163 -21.240   6.658  0.00  0.00    -0.024 A 
ATOM     19  C   LIG    1       27.123 -20.130   5.793  0.00  0.00    +0.005 A 
ATOM     20  C   LIG    1       28.233 -19.284   5.608  0.00  0.00    +0.000 A 
ATOM     21  C   LIG    1       29.421 -19.509   6.294  0.00  0.00    +0.000 A 
ATOM     22  C   LIG    1       29.498 -20.584   7.160  0.00  0.00    +0.000 A 
ATOM     23  C   LIG    1       28.389 -21.425   7.335  0.00  0.00    +0.005 A 
ENDBRANCH  17  18
BRANCH  17  24
ATOM     24  N   LIG    1       24.708 -21.705   6.060  0.00  0.00    -0.296 NA
ATOM     25  C   LIG    1       23.395 -21.828   6.708  0.00  0.00    +0.105 C 
ATOM     26  C   LIG    1       24.623 -22.193   4.679  0.00  0.00    +0.105 C 
ENDBRANCH  17  24
BRANCH  17  28
ATOM     27  C   LIG    1       25.630 -20.883   9.197  0.00  0.00    +0.006 C 
ATOM     28  C   LIG    1       25.545 -22.193   8.409  0.00  0.00    +0.027 C 
ENDBRANCH  17  28
ENDBRANCH  16  17
ENDBRANCH   1  16
TORSDOF 10
ENDMDL
MODEL 8
REMARK VINA RESULT:      -7.0      4.080      7.731
REMARK  Name = *****
REMARK                            x       y       z     vdW  Elec       q    Type
REMARK                         _______ _______ _______ _____ _____    ______ ____
ROOT
ATOM      1  O   LIG    1       26.400 -22.371   7.792  0.00  0.00    -0.459 OA
ENDROOT
BRANCH   1   2
ATOM      2  C   LIG    1       26.704 -21.191   8.309  0.00  0.00    +0.340 C 
ATOM      3  O   LIG    1       25.989 -20.559   9.063  0.00  0.00    -0.245 OA
BRANCH   2   4
ATOM      4  C   LIG    1       28.038 -20.716   7.923  0.00  0.00    +0.066 A 
ATOM      5  C   LIG    1       29.159 -21.249   8.561  0.00  0.00    +0.064 A 
ATOM      6  C   LIG    1       30.435 -20.711   8.362  0.00  0.00    +0.166 A 
ATOM      7  C   LIG    1       30.600 -19.635   7.461  0.00  0.00    +0.203 A 
ATOM      8  C   LIG    1       29.470 -19.130   6.767  0.00  0.00    +0.166 A 
ATOM      9  C   LIG    1       28.203 -19.669   7.011  0.00  0.00    +0.064 A 
BRANCH   6  10
ATOM     10  O   LIG    1       31.510 -21.120   9.107  0.00  0.00    -0.491 OA
ATOM     11  C   LIG    1       31.815 -22.511   9.159  0.00  0.00    +0.277 C 
ENDBRANCH   6  10
BRANCH   7  12
ATOM     12  O   LIG    1       31.772 -18.950   7.241  0.00  0.00    -0.488 OA
ATOM     13  C   LIG    1       32.216 -17.996   8.197  0.00  0.00    +0.277 C 
ENDBRANCH   7  12
BRANCH   8  14
ATOM     14  O   LIG    1       29.648 -18.049   5.930  0.00  0.00    -0.491 OA
ATOM     15  C   LIG    1       28.653 -17.860   4.923  0.00  0.00    +0.277 C 
ENDBRANCH   8  14
ENDBRANCH   2   4
ENDBRANCH   1   2
BRANCH   1  16
ATOM     16  C   LIG    1       25.025 -22.815   7.755  0.00  0.00    +0.259 C 
BRANCH  16  17
ATOM     17  C   LIG    1       24.471 -23.114   6.290  0.00  0.00    +0.081 C 
BRANCH  17  18
ATOM     18  C   LIG    1       24.332 -21.780   5.449  0.00  0.00    -0.024 A 
ATOM     19  C   LIG    1       23.101 -21.107   5.331  0.00  0.00    +0.005 A 
ATOM     20  C   LIG    1       22.968 -19.917   4.591  0.00  0.00    +0.000 A 
ATOM     21  C   LIG    1       24.064 -19.348   3.954  0.00  0.00    +0.000 A 
ATOM     22  C   LIG    1       25.293 -19.975   4.053  0.00  0.00    +0.000 A 
ATOM     23  C   LIG    1       25.417 -21.163   4.787  0.00  0.00    +0.005 A 
ENDBRANCH  17  18
BRANCH  17  24
ATOM     24  N   LIG    1       25.392 -24.116   5.615  0.00  0.00    -0.296 NA
ATOM     25  C   LIG    1       24.862 -24.792   4.424  0.00  0.00    +0.105 C 
ATOM     26  C   LIG    1       26.033 -25.099   6.496  0.00  0.00    +0.105 C 
ENDBRANCH  17  24
BRANCH  17  28
ATOM     27  C   LIG    1       22.015 -23.035   7.367  0.00  0.00    +0.006 C 
ATOM     28  C   LIG    1       23.025 -23.745   6.462  0.00  0.00    +0.027 C 
ENDBRANCH  17  28
ENDBRANCH  16  17
ENDBRANCH   1  16
TORSDOF 10
ENDMDL
MODEL 9
REMARK VINA RESULT:      -6.8      5.191      8.562
REMARK  Name = *****
REMARK                            x       y       z     vdW  Elec       q    Type
REMARK                         _______ _______ _______ _____ _____    ______ ____
ROOT
ATOM      1  O   LIG    1       27.890 -20.377   8.082  0.00  0.00    -0.459 OA
ENDROOT
BRANCH   1   2
ATOM      2  C   LIG    1       26.610 -20.474   8.408  0.00  0.00    +0.340 C 
ATOM      3  O   LIG    1       26.158 -20.262   9.517  0.00  0.00    -0.245 OA
BRANCH   2   4
ATOM      4  C   LIG    1       25.749 -20.820   7.271  0.00  0.00    +0.066 A 
ATOM      5  C   LIG    1       26.046 -20.299   6.011  0.00  0.00    +0.064 A 
ATOM      6  C   LIG    1       25.165 -20.450   4.934  0.00  0.00    +0.166 A 
ATOM      7  C   LIG    1       23.971 -21.184   5.114  0.00  0.00    +0.203 A 
ATOM      8  C   LIG    1       23.696 -21.764   6.379  0.00  0.00    +0.166 A 
ATOM      9  C   LIG    1       24.581 -21.570   7.444  0.00  0.00    +0.064 A 
BRANCH   6  10
ATOM     10  O   LIG    1       25.370 -19.803   3.744  0.00  0.00    -0.491 OA
ATOM     11  C   LIG    1       24.962 -18.443   3.626  0.00  0.00    +0.277 C 
ENDBRANCH   6  10
BRANCH   7  12
ATOM     12  O   LIG    1       22.975 -21.331   4.177  0.00  0.00    -0.488 OA
ATOM     13  C   LIG    1       21.829 -20.492   4.236  0.00  0.00    +0.277 C 
ENDBRANCH   7  12
BRANCH   8  14
ATOM     14  O   LIG    1       22.502 -22.435   6.543  0.00  0.00    -0.491 OA
ATOM     15  C   LIG    1       22.596 -23.839   6.788  0.00  0.00    +0.277 C 
ENDBRANCH   8  14
ENDBRANCH   2   4
ENDBRANCH   1   2
BRANCH   1  16
ATOM     16  C   LIG    1       28.620 -19.161   8.362  0.00  0.00    +0.259 C 
BRANCH  16  17
ATOM     17  C   LIG    1       30.204 -19.341   8.395  0.00  0.00    +0.081 C 
BRANCH  17  18
ATOM     18  C   LIG    1       30.889 -18.215   9.272  0.00  0.00    -0.024 A 
ATOM     19  C   LIG    1       31.989 -17.476   8.797  0.00  0.00    +0.005 A 
ATOM     20  C   LIG    1       32.601 -16.468   9.566  0.00  0.00    +0.000 A 
ATOM     21  C   LIG    1       32.126 -16.153  10.834  0.00  0.00    +0.000 A 
ATOM     22  C   LIG    1       31.041 -16.851  11.333  0.00  0.00    +0.000 A 
ATOM     23  C   LIG    1       30.439 -17.857  10.563  0.00  0.00    +0.005 A 
ENDBRANCH  17  18
BRANCH  17  24
ATOM     24  N   LIG    1       30.527 -20.733   8.907  0.00  0.00    -0.296 NA
ATOM     25  C   LIG    1       31.939 -21.012   9.199  0.00  0.00    +0.105 C 
ATOM     26  C   LIG    1       29.952 -21.850   8.149  0.00  0.00    +0.105 C 
ENDBRANCH  17  24
BRANCH  17  28
ATOM     27  C   LIG    1       29.774 -18.583   5.857  0.00  0.00    +0.006 C 
ATOM     28  C   LIG    1       30.717 -19.186   6.901  0.00  0.00    +0.027 C 
ENDBRANCH  17  28
ENDBRANCH  16  17
ENDBRANCH   1  16
TORSDOF 10
ENDMDL
