MODEL 1
REMARK VINA RESULT:      -5.1      0.000      0.000
REMARK  Name = *****
REMARK                            x       y       z     vdW  Elec       q    Type
REMARK                         _______ _______ _______ _____ _____    ______ ____
ROOT
ATOM      1  C   LIG    1       25.379 -18.070   3.311  0.00  0.00    +0.197 C 
ENDROOT
BRANCH   1   2
ATOM      2  C   LIG    1       25.056 -16.590   3.573  0.00  0.00    -0.013 A 
ATOM      3  C   LIG    1       26.032 -15.608   3.312  0.00  0.00    +0.008 A 
ATOM      4  C   LIG    1       25.770 -14.254   3.545  0.00  0.00    +0.020 A 
ATOM      5  C   LIG    1       24.536 -13.866   4.056  0.00  0.00    +0.041 A 
ATOM      6 CL   LIG    1       24.227 -12.204   4.380  0.00  0.00    -0.084 Cl
ATOM      7  C   LIG    1       23.551 -14.818   4.313  0.00  0.00    +0.020 A 
ATOM      8  C   LIG    1       23.808 -16.170   4.062  0.00  0.00    +0.008 A 
ENDBRANCH   1   2
BRANCH   1   9
ATOM      9  C   LIG    1       24.311 -19.031   3.824  0.00  0.00    +0.074 A 
ATOM     10  N   LIG    1       24.575 -20.355   3.699  0.00  0.00    -0.257 NA
ATOM     11  C   LIG    1       23.657 -21.230   4.168  0.00  0.00    +0.111 A 
ATOM     12  C   LIG    1       22.457 -20.838   4.741  0.00  0.00    +0.020 A 
ATOM     13  C   LIG    1       22.201 -19.486   4.877  0.00  0.00    +0.003 A 
ATOM     14  C   LIG    1       23.146 -18.558   4.441  0.00  0.00    +0.026 A 
ENDBRANCH   1   9
BRANCH   1  15
ATOM     15  O   LIG    1       26.661 -18.416   3.866  0.00  0.00    -0.365 OA
BRANCH  15  16
ATOM     16  C   LIG    1       26.584 -19.473   4.834  0.00  0.00    +0.176 C 
BRANCH  16  17
ATOM     17  C   LIG    1       27.926 -19.667   5.564  0.00  0.00    +0.112 C 
BRANCH  17  19
ATOM     18  C   LIG    1       26.626 -21.127   7.006  0.00  0.00    +0.104 C 
ATOM     19  N   LIG    1       27.854 -20.342   6.880  0.00  0.00    -0.306 NA
ATOM     20  C   LIG    1       29.031 -21.196   7.062  0.00  0.00    +0.104 C 
ENDBRANCH  17  19
ENDBRANCH  16  17
ENDBRANCH  15  16
ENDBRANCH   1  15
TORSDOF 6
ENDMDL
MODEL 2
REMARK VINA RESULT:      -4.8      3.920      6.240
REMARK  Name = *****
REMARK                            x       y       z     vdW  Elec       q    Type
REMARK                         _______ _______ _______ _____ _____    ______ ____
ROOT
ATOM      1  C   LIG    1       25.283 -15.232   4.056  0.00  0.00    +0.197 C 
ENDROOT
BRANCH   1   2
ATOM      2  C   LIG    1       24.245 -16.365   4.093  0.00  0.00    -0.013 A 
ATOM      3  C   LIG    1       24.624 -17.668   3.714  0.00  0.00    +0.008 A 
ATOM      4  C   LIG    1       23.701 -18.719   3.732  0.00  0.00    +0.020 A 
ATOM      5  C   LIG    1       22.385 -18.478   4.113  0.00  0.00    +0.041 A 
ATOM      6 CL   LIG    1       21.239 -19.762   4.098  0.00  0.00    -0.084 Cl
ATOM      7  C   LIG    1       21.989 -17.200   4.502  0.00  0.00    +0.020 A 
ATOM      8  C   LIG    1       22.918 -16.153   4.501  0.00  0.00    +0.008 A 
ENDBRANCH   1   2
BRANCH   1   9
ATOM      9  C   LIG    1       24.722 -13.902   3.563  0.00  0.00    +0.074 A 
ATOM     10  N   LIG    1       24.269 -13.045   4.511  0.00  0.00    -0.257 NA
ATOM     11  C   LIG    1       23.790 -11.848   4.105  0.00  0.00    +0.111 A 
ATOM     12  C   LIG    1       23.714 -11.472   2.772  0.00  0.00    +0.020 A 
ATOM     13  C   LIG    1       24.189 -12.347   1.813  0.00  0.00    +0.003 A 
ATOM     14  C   LIG    1       24.729 -13.572   2.202  0.00  0.00    +0.026 A 
ENDBRANCH   1   9
BRANCH   1  15
ATOM     15  O   LIG    1       26.421 -15.611   3.261  0.00  0.00    -0.365 OA
BRANCH  15  16
ATOM     16  C   LIG    1       27.673 -15.326   3.903  0.00  0.00    +0.176 C 
BRANCH  16  17
ATOM     17  C   LIG    1       28.185 -13.920   3.537  0.00  0.00    +0.112 C 
BRANCH  17  19
ATOM     18  C   LIG    1       27.550 -13.420   5.828  0.00  0.00    +0.104 C 
ATOM     19  N   LIG    1       27.910 -12.854   4.528  0.00  0.00    -0.306 NA
ATOM     20  C   LIG    1       29.080 -11.982   4.653  0.00  0.00    +0.104 C 
ENDBRANCH  17  19
ENDBRANCH  16  17
ENDBRANCH  15  16
ENDBRANCH   1  15
TORSDOF 6
ENDMDL
MODEL 3
REMARK VINA RESULT:      -4.1      1.469      4.218
REMARK  Name = *****
REMARK                            x       y       z     vdW  Elec       q    Type
REMARK                         _______ _______ _______ _____ _____    ______ ____
ROOT
ATOM      1  C   LIG    1       25.867 -19.133   4.466  0.00  0.00    +0.197 C 
ENDROOT
BRANCH   1   2
ATOM      2  C   LIG    1       26.124 -17.676   4.051  0.00  0.00    -0.013 A 
ATOM      3  C   LIG    1       25.042 -16.863   3.658  0.00  0.00    +0.008 A 
ATOM      4  C   LIG    1       25.245 -15.534   3.271  0.00  0.00    +0.020 A 
ATOM      5  C   LIG    1       26.532 -15.007   3.255  0.00  0.00    +0.041 A 
ATOM      6 CL   LIG    1       26.787 -13.384   2.740  0.00  0.00    -0.084 Cl
ATOM      7  C   LIG    1       27.616 -15.788   3.649  0.00  0.00    +0.020 A 
ATOM      8  C   LIG    1       27.410 -17.111   4.054  0.00  0.00    +0.008 A 
ENDBRANCH   1   2
BRANCH   1   9
ATOM      9  C   LIG    1       26.947 -19.712   5.375  0.00  0.00    +0.074 A 
ATOM     10  N   LIG    1       26.552 -20.659   6.261  0.00  0.00    -0.257 NA
ATOM     11  C   LIG    1       27.493 -21.207   7.062  0.00  0.00    +0.111 A 
ATOM     12  C   LIG    1       28.826 -20.828   7.038  0.00  0.00    +0.020 A 
ATOM     13  C   LIG    1       29.223 -19.871   6.123  0.00  0.00    +0.003 A 
ATOM     14  C   LIG    1       28.285 -19.316   5.254  0.00  0.00    +0.026 A 
ENDBRANCH   1   9
BRANCH   1  15
ATOM     15  O   LIG    1       25.698 -19.970   3.308  0.00  0.00    -0.365 OA
BRANCH  15  16
ATOM     16  C   LIG    1       24.333 -20.355   3.089  0.00  0.00    +0.176 C 
BRANCH  16  17
ATOM     17  C   LIG    1       23.833 -21.307   4.191  0.00  0.00    +0.112 C 
BRANCH  17  19
ATOM     18  C   LIG    1       23.091 -20.837   6.456  0.00  0.00    +0.104 C 
ATOM     19  N   LIG    1       22.732 -20.794   5.038  0.00  0.00    -0.306 NA
ATOM     20  C   LIG    1       22.394 -19.427   4.634  0.00  0.00    +0.104 C 
ENDBRANCH  17  19
ENDBRANCH  16  17
ENDBRANCH  15  16
ENDBRANCH   1  15
TORSDOF 6
ENDMDL
MODEL 4
REMARK VINA RESULT:      -4.1      4.014      7.330
REMARK  Name = *****
REMARK                            x       y       z     vdW  Elec       q    Type
REMARK                         _______ _______ _______ _____ _____    ______ ____
ROOT
ATOM      1  C   LIG    1       27.042 -15.919   3.373  0.00  0.00    +0.197 C 
ENDROOT
BRANCH   1   2
ATOM      2  C   LIG    1       27.455 -17.194   4.127  0.00  0.00    -0.013 A 
ATOM      3  C   LIG    1       26.585 -18.301   4.149  0.00  0.00    +0.008 A 
ATOM      4  C   LIG    1       26.930 -19.474   4.830  0.00  0.00    +0.020 A 
ATOM      5  C   LIG    1       28.140 -19.547   5.511  0.00  0.00    +0.041 A 
ATOM      6 CL   LIG    1       28.547 -20.974   6.383  0.00  0.00    -0.084 Cl
ATOM      7  C   LIG    1       29.021 -18.468   5.496  0.00  0.00    +0.020 A 
ATOM      8  C   LIG    1       28.684 -17.303   4.799  0.00  0.00    +0.008 A 
ENDBRANCH   1   2
BRANCH   1   9
ATOM      9  C   LIG    1       27.552 -14.633   4.017  0.00  0.00    +0.074 A 
ATOM     10  N   LIG    1       28.475 -13.928   3.318  0.00  0.00    -0.257 NA
ATOM     11  C   LIG    1       28.926 -12.772   3.853  0.00  0.00    +0.111 A 
ATOM     12  C   LIG    1       28.511 -12.292   5.086  0.00  0.00    +0.020 A 
ATOM     13  C   LIG    1       27.561 -13.011   5.787  0.00  0.00    +0.003 A 
ATOM     14  C   LIG    1       27.045 -14.186   5.244  0.00  0.00    +0.026 A 
ENDBRANCH   1   9
BRANCH   1  15
ATOM     15  O   LIG    1       25.613 -15.860   3.219  0.00  0.00    -0.365 OA
BRANCH  15  16
ATOM     16  C   LIG    1       25.155 -14.590   2.731  0.00  0.00    +0.176 C 
BRANCH  16  17
ATOM     17  C   LIG    1       23.983 -14.052   3.574  0.00  0.00    +0.112 C 
BRANCH  17  19
ATOM     18  C   LIG    1       24.075 -11.885   4.668  0.00  0.00    +0.104 C 
ATOM     19  N   LIG    1       23.708 -12.603   3.447  0.00  0.00    -0.306 NA
ATOM     20  C   LIG    1       24.433 -12.061   2.295  0.00  0.00    +0.104 C 
ENDBRANCH  17  19
ENDBRANCH  16  17
ENDBRANCH  15  16
ENDBRANCH   1  15
TORSDOF 6
ENDMDL
MODEL 5
REMARK VINA RESULT:      -3.1      2.718      4.855
REMARK  Name = *****
REMARK                            x       y       z     vdW  Elec       q    Type
REMARK                         _______ _______ _______ _____ _____    ______ ____
ROOT
ATOM      1  C   LIG    1       25.610 -16.534   4.041  0.00  0.00    +0.197 C 
ENDROOT
BRANCH   1   2
ATOM      2  C   LIG    1       24.363 -17.433   4.058  0.00  0.00    -0.013 A 
ATOM      3  C   LIG    1       24.477 -18.786   3.680  0.00  0.00    +0.008 A 
ATOM      4  C   LIG    1       23.361 -19.629   3.681  0.00  0.00    +0.020 A 
ATOM      5  C   LIG    1       22.115 -19.126   4.044  0.00  0.00    +0.041 A 
ATOM      6 CL   LIG    1       20.734 -20.153   4.006  0.00  0.00    -0.084 Cl
ATOM      7  C   LIG    1       21.980 -17.795   4.432  0.00  0.00    +0.020 A 
ATOM      8  C   LIG    1       23.101 -16.958   4.448  0.00  0.00    +0.008 A 
ENDBRANCH   1   2
BRANCH   1   9
ATOM      9  C   LIG    1       25.346 -15.131   3.502  0.00  0.00    +0.074 A 
ATOM     10  N   LIG    1       26.218 -14.662   2.575  0.00  0.00    -0.257 NA
ATOM     11  C   LIG    1       25.994 -13.432   2.062  0.00  0.00    +0.111 A 
ATOM     12  C   LIG    1       24.939 -12.624   2.457  0.00  0.00    +0.020 A 
ATOM     13  C   LIG    1       24.048 -13.114   3.393  0.00  0.00    +0.003 A 
ATOM     14  C   LIG    1       24.227 -14.395   3.912  0.00  0.00    +0.026 A 
ENDBRANCH   1   9
BRANCH   1  15
ATOM     15  O   LIG    1       26.675 -17.154   3.298  0.00  0.00    -0.365 OA
BRANCH  15  16
ATOM     16  C   LIG    1       27.804 -17.494   4.116  0.00  0.00    +0.176 C 
BRANCH  16  17
ATOM     17  C   LIG    1       27.627 -18.874   4.775  0.00  0.00    +0.112 C 
BRANCH  17  19
ATOM     18  C   LIG    1       29.475 -18.333   6.256  0.00  0.00    +0.104 C 
ATOM     19  N   LIG    1       28.803 -19.396   5.508  0.00  0.00    -0.306 NA
ATOM     20  C   LIG    1       28.386 -20.474   6.408  0.00  0.00    +0.104 C 
ENDBRANCH  17  19
ENDBRANCH  16  17
ENDBRANCH  15  16
ENDBRANCH   1  15
TORSDOF 6
ENDMDL
MODEL 6
REMARK VINA RESULT:      -2.6      1.335      2.132
REMARK  Name = *****
REMARK                            x       y       z     vdW  Elec       q    Type
REMARK                         _______ _______ _______ _____ _____    ______ ____
ROOT
ATOM      1  C   LIG    1       24.468 -18.823   3.911  0.00  0.00    +0.197 C 
ENDROOT
BRANCH   1   2
ATOM      2  C   LIG    1       24.637 -17.297   3.838  0.00  0.00    -0.013 A 
ATOM      3  C   LIG    1       23.603 -16.460   4.305  0.00  0.00    +0.008 A 
ATOM      4  C   LIG    1       23.725 -15.068   4.249  0.00  0.00    +0.020 A 
ATOM      5  C   LIG    1       24.872 -14.495   3.711  0.00  0.00    +0.041 A 
ATOM      6 CL   LIG    1       25.006 -12.782   3.604  0.00  0.00    -0.084 Cl
ATOM      7  C   LIG    1       25.912 -15.301   3.252  0.00  0.00    +0.020 A 
ATOM      8  C   LIG    1       25.797 -16.694   3.326  0.00  0.00    +0.008 A 
ENDBRANCH   1   2
BRANCH   1   9
ATOM      9  C   LIG    1       23.012 -19.276   3.984  0.00  0.00    +0.074 A 
ATOM     10  N   LIG    1       22.090 -18.445   3.439  0.00  0.00    -0.257 NA
ATOM     11  C   LIG    1       20.795 -18.833   3.467  0.00  0.00    +0.111 A 
ATOM     12  C   LIG    1       20.369 -20.017   4.048  0.00  0.00    +0.020 A 
ATOM     13  C   LIG    1       21.317 -20.864   4.591  0.00  0.00    +0.003 A 
ATOM     14  C   LIG    1       22.665 -20.513   4.540  0.00  0.00    +0.026 A 
ENDBRANCH   1   9
BRANCH   1  15
ATOM     15  O   LIG    1       25.208 -19.364   5.020  0.00  0.00    -0.365 OA
BRANCH  15  16
ATOM     16  C   LIG    1       26.537 -19.772   4.660  0.00  0.00    +0.176 C 
BRANCH  16  17
ATOM     17  C   LIG    1       27.349 -20.197   5.897  0.00  0.00    +0.112 C 
BRANCH  17  19
ATOM     18  C   LIG    1       29.156 -18.627   5.479  0.00  0.00    +0.104 C 
ATOM     19  N   LIG    1       28.816 -20.014   5.801  0.00  0.00    -0.306 NA
ATOM     20  C   LIG    1       29.448 -20.419   7.059  0.00  0.00    +0.104 C 
ENDBRANCH  17  19
ENDBRANCH  16  17
ENDBRANCH  15  16
ENDBRANCH   1  15
TORSDOF 6
ENDMDL
MODEL 7
REMARK VINA RESULT:      -2.5      1.671      2.357
REMARK  Name = *****
REMARK                            x       y       z     vdW  Elec       q    Type
REMARK                         _______ _______ _______ _____ _____    ______ ____
ROOT
ATOM      1  C   LIG    1       25.662 -17.667   3.329  0.00  0.00    +0.197 C 
ENDROOT
BRANCH   1   2
ATOM      2  C   LIG    1       26.298 -16.268   3.394  0.00  0.00    -0.013 A 
ATOM      3  C   LIG    1       27.485 -16.078   4.129  0.00  0.00    +0.008 A 
ATOM      4  C   LIG    1       28.085 -14.818   4.211  0.00  0.00    +0.020 A 
ATOM      5  C   LIG    1       27.499 -13.730   3.574  0.00  0.00    +0.041 A 
ATOM      6 CL   LIG    1       28.215 -12.170   3.708  0.00  0.00    -0.084 Cl
ATOM      7  C   LIG    1       26.331 -13.895   2.832  0.00  0.00    +0.020 A 
ATOM      8  C   LIG    1       25.741 -15.160   2.735  0.00  0.00    +0.008 A 
ENDBRANCH   1   2
BRANCH   1   9
ATOM      9  C   LIG    1       24.202 -17.697   3.772  0.00  0.00    +0.074 A 
ATOM     10  N   LIG    1       23.557 -18.885   3.657  0.00  0.00    -0.257 NA
ATOM     11  C   LIG    1       22.270 -18.947   4.066  0.00  0.00    +0.111 A 
ATOM     12  C   LIG    1       21.578 -17.856   4.566  0.00  0.00    +0.020 A 
ATOM     13  C   LIG    1       22.246 -16.652   4.692  0.00  0.00    +0.003 A 
ATOM     14  C   LIG    1       23.586 -16.564   4.319  0.00  0.00    +0.026 A 
ENDBRANCH   1   9
BRANCH   1  15
ATOM     15  O   LIG    1       26.429 -18.611   4.098  0.00  0.00    -0.365 OA
BRANCH  15  16
ATOM     16  C   LIG    1       25.730 -19.842   4.332  0.00  0.00    +0.176 C 
BRANCH  16  17
ATOM     17  C   LIG    1       26.648 -20.897   4.976  0.00  0.00    +0.112 C 
BRANCH  17  19
ATOM     18  C   LIG    1       27.669 -20.184   7.062  0.00  0.00    +0.104 C 
ATOM     19  N   LIG    1       26.601 -20.979   6.454  0.00  0.00    -0.306 NA
ATOM     20  C   LIG    1       25.291 -20.531   6.932  0.00  0.00    +0.104 C 
ENDBRANCH  17  19
ENDBRANCH  16  17
ENDBRANCH  15  16
ENDBRANCH   1  15
TORSDOF 6
ENDMDL
MODEL 8
REMARK VINA RESULT:      -2.5      2.985      5.538
REMARK  Name = *****
REMARK                            x       y       z     vdW  Elec       q    Type
REMARK                         _______ _______ _______ _____ _____    ______ ____
ROOT
ATOM      1  C   LIG    1       24.968 -18.480   4.365  0.00  0.00    +0.197 C 
ENDROOT
BRANCH   1   2
ATOM      2  C   LIG    1       26.128 -19.249   5.018  0.00  0.00    -0.013 A 
ATOM      3  C   LIG    1       25.850 -20.353   5.848  0.00  0.00    +0.008 A 
ATOM      4  C   LIG    1       26.884 -21.071   6.460  0.00  0.00    +0.020 A 
ATOM      5  C   LIG    1       28.205 -20.684   6.263  0.00  0.00    +0.041 A 
ATOM      6 CL   LIG    1       29.475 -21.541   7.047  0.00  0.00    -0.084 Cl
ATOM      7  C   LIG    1       28.505 -19.602   5.438  0.00  0.00    +0.020 A 
ATOM      8  C   LIG    1       27.472 -18.896   4.811  0.00  0.00    +0.008 A 
ENDBRANCH   1   2
BRANCH   1   9
ATOM      9  C   LIG    1       23.640 -19.232   4.397  0.00  0.00    +0.074 A 
ATOM     10  N   LIG    1       23.695 -20.549   4.716  0.00  0.00    -0.257 NA
ATOM     11  C   LIG    1       22.531 -21.233   4.777  0.00  0.00    +0.111 A 
ATOM     12  C   LIG    1       21.298 -20.662   4.504  0.00  0.00    +0.020 A 
ATOM     13  C   LIG    1       21.249 -19.316   4.192  0.00  0.00    +0.003 A 
ATOM     14  C   LIG    1       22.427 -18.572   4.162  0.00  0.00    +0.026 A 
ENDBRANCH   1   9
BRANCH   1  15
ATOM     15  O   LIG    1       25.296 -18.119   3.011  0.00  0.00    -0.365 OA
BRANCH  15  16
ATOM     16  C   LIG    1       25.856 -16.802   2.904  0.00  0.00    +0.176 C 
BRANCH  16  17
ATOM     17  C   LIG    1       25.148 -15.810   3.846  0.00  0.00    +0.112 C 
BRANCH  17  19
ATOM     18  C   LIG    1       26.525 -14.217   2.634  0.00  0.00    +0.104 C 
ATOM     19  N   LIG    1       25.494 -14.382   3.659  0.00  0.00    -0.306 NA
ATOM     20  C   LIG    1       24.291 -13.625   3.306  0.00  0.00    +0.104 C 
ENDBRANCH  17  19
ENDBRANCH  16  17
ENDBRANCH  15  16
ENDBRANCH   1  15
TORSDOF 6
ENDMDL
MODEL 9
REMARK VINA RESULT:      -2.1      2.257      3.679
REMARK  Name = *****
REMARK                            x       y       z     vdW  Elec       q    Type
REMARK                         _______ _______ _______ _____ _____    ______ ____
ROOT
ATOM      1  C   LIG    1       25.717 -16.295   3.069  0.00  0.00    +0.197 C 
ENDROOT
BRANCH   1   2
ATOM      2  C   LIG    1       26.628 -15.088   3.343  0.00  0.00    -0.013 A 
ATOM      3  C   LIG    1       27.477 -15.100   4.468  0.00  0.00    +0.008 A 
ATOM      4  C   LIG    1       28.316 -14.016   4.747  0.00  0.00    +0.020 A 
ATOM      5  C   LIG    1       28.304 -12.901   3.916  0.00  0.00    +0.041 A 
ATOM      6 CL   LIG    1       29.306 -11.549   4.281  0.00  0.00    -0.084 Cl
ATOM      7  C   LIG    1       27.481 -12.870   2.793  0.00  0.00    +0.020 A 
ATOM      8  C   LIG    1       26.656 -13.963   2.504  0.00  0.00    +0.008 A 
ENDBRANCH   1   2
BRANCH   1   9
ATOM      9  C   LIG    1       24.386 -16.240   3.814  0.00  0.00    +0.074 A 
ATOM     10  N   LIG    1       23.977 -15.018   4.237  0.00  0.00    -0.257 NA
ATOM     11  C   LIG    1       22.790 -14.935   4.878  0.00  0.00    +0.111 A 
ATOM     12  C   LIG    1       21.992 -16.037   5.145  0.00  0.00    +0.020 A 
ATOM     13  C   LIG    1       22.410 -17.277   4.699  0.00  0.00    +0.003 A 
ATOM     14  C   LIG    1       23.609 -17.390   3.998  0.00  0.00    +0.026 A 
ENDBRANCH   1   9
BRANCH   1  15
ATOM     15  O   LIG    1       26.398 -17.526   3.370  0.00  0.00    -0.365 OA
BRANCH  15  16
ATOM     16  C   LIG    1       25.514 -18.656   3.424  0.00  0.00    +0.176 C 
BRANCH  16  17
ATOM     17  C   LIG    1       26.050 -19.745   4.372  0.00  0.00    +0.112 C 
BRANCH  17  19
ATOM     18  C   LIG    1       24.481 -20.732   5.943  0.00  0.00    +0.104 C 
ATOM     19  N   LIG    1       25.134 -20.876   4.641  0.00  0.00    -0.306 NA
ATOM     20  C   LIG    1       24.135 -20.967   3.573  0.00  0.00    +0.104 C 
ENDBRANCH  17  19
ENDBRANCH  16  17
ENDBRANCH  15  16
ENDBRANCH   1  15
TORSDOF 6
ENDMDL
