MODEL 1
REMARK VINA RESULT:      -3.0      0.000      0.000
REMARK  Name = *****
REMARK                            x       y       z     vdW  Elec       q    Type
REMARK                         _______ _______ _______ _____ _____    ______ ____
ROOT
ATOM      1  C   LIG    1       27.133 -16.577   3.620  0.00  0.00    +0.101 C 
ENDROOT
BRANCH   1   2
ATOM      2  C   LIG    1       26.030 -17.670   3.610  0.00  0.00    +0.101 C 
BRANCH   2   3
ATOM      3  N   LIG    1       26.278 -18.901   4.375  0.00  0.00    -0.280 NA
BRANCH   3   4
ATOM      4  C   LIG    1       25.497 -20.078   3.922  0.00  0.00    +0.212 C 
BRANCH   4   5
ATOM      5  P   LIG    1       23.795 -20.121   4.500  0.00  0.00    +0.342 P 
ATOM      6  O   LIG    1       22.905 -19.003   4.123  0.00  0.00    -0.258 OA
BRANCH   5   7
ATOM      7  O   LIG    1       23.824 -20.253   6.102  0.00  0.00    -0.323 OA
ATOM      8  H   LIG    1       22.939 -20.430   6.454  0.00  0.00    +0.220 HD
ENDBRANCH   5   7
BRANCH   5   9
ATOM      9  O   LIG    1       23.157 -21.571   4.184  0.00  0.00    -0.323 OA
ATOM     10  H   LIG    1       23.714 -22.096   3.606  0.00  0.00    +0.220 HD
ENDBRANCH   5   9
ENDBRANCH   4   5
ENDBRANCH   3   4
BRANCH   3  11
ATOM     11  C   LIG    1       27.723 -19.208   4.548  0.00  0.00    +0.212 C 
BRANCH  11  12
ATOM     12  P   LIG    1       28.156 -19.823   6.194  0.00  0.00    +0.342 P 
ATOM     13  O   LIG    1       28.985 -18.935   7.061  0.00  0.00    -0.258 OA
BRANCH  12  14
ATOM     14  O   LIG    1       26.781 -20.182   6.947  0.00  0.00    -0.323 OA
ATOM     15  H   LIG    1       25.992 -20.098   6.379  0.00  0.00    +0.220 HD
ENDBRANCH  12  14
BRANCH  12  16
ATOM     16  O   LIG    1       28.812 -21.275   6.025  0.00  0.00    -0.323 OA
ATOM     17  H   LIG    1       28.707 -21.636   5.126  0.00  0.00    +0.220 HD
ENDBRANCH  12  16
ENDBRANCH  11  12
ENDBRANCH   3  11
ENDBRANCH   2   3
ENDBRANCH   1   2
BRANCH   1  18
ATOM     18  N   LIG    1       26.617 -15.180   3.574  0.00  0.00    -0.280 NA
BRANCH  18  19
ATOM     19  C   LIG    1       25.140 -15.159   3.794  0.00  0.00    +0.212 C 
BRANCH  19  20
ATOM     20  P   LIG    1       24.350 -13.581   3.419  0.00  0.00    +0.342 P 
ATOM     21  O   LIG    1       24.344 -12.593   4.543  0.00  0.00    -0.258 OA
BRANCH  20  22
ATOM     22  O   LIG    1       22.863 -13.937   2.933  0.00  0.00    -0.323 OA
ATOM     23  H   LIG    1       22.314 -14.165   3.711  0.00  0.00    +0.220 HD
ENDBRANCH  20  22
BRANCH  20  24
ATOM     24  O   LIG    1       24.994 -13.014   2.065  0.00  0.00    -0.323 OA
ATOM     25  H   LIG    1       24.504 -13.257   1.254  0.00  0.00    +0.220 HD
ENDBRANCH  20  24
ENDBRANCH  19  20
ENDBRANCH  18  19
BRANCH  18  26
ATOM     26  C   LIG    1       27.271 -14.386   4.670  0.00  0.00    +0.212 C 
BRANCH  26  28
ATOM     27  O   LIG    1       28.831 -12.073   5.086  0.00  0.00    -0.258 OA
ATOM     28  P   LIG    1       28.303 -13.035   4.071  0.00  0.00    +0.342 P 
BRANCH  28  29
ATOM     29  O   LIG    1       27.435 -12.271   2.957  0.00  0.00    -0.323 OA
ATOM     30  H   LIG    1       27.899 -12.194   2.101  0.00  0.00    +0.220 HD
ENDBRANCH  28  29
BRANCH  28  31
ATOM     31  O   LIG    1       29.474 -13.665   3.179  0.00  0.00    -0.323 OA
ATOM     32  H   LIG    1       29.422 -13.427   2.235  0.00  0.00    +0.220 HD
ENDBRANCH  28  31
ENDBRANCH  26  28
ENDBRANCH  18  26
ENDBRANCH   1  18
TORSDOF 19
ENDMDL
MODEL 2
REMARK VINA RESULT:      -2.6      1.037      7.091
REMARK  Name = *****
REMARK                            x       y       z     vdW  Elec       q    Type
REMARK                         _______ _______ _______ _____ _____    ______ ____
ROOT
ATOM      1  C   LIG    1       25.767 -18.008   3.407  0.00  0.00    +0.101 C 
ENDROOT
BRANCH   1   2
ATOM      2  C   LIG    1       26.891 -17.000   3.775  0.00  0.00    +0.101 C 
BRANCH   2   3
ATOM      3  N   LIG    1       26.594 -15.566   3.647  0.00  0.00    -0.280 NA
BRANCH   3   4
ATOM      4  C   LIG    1       27.728 -14.742   3.161  0.00  0.00    +0.212 C 
BRANCH   4   5
ATOM      5  P   LIG    1       27.912 -13.154   3.985  0.00  0.00    +0.342 P 
ATOM      6  O   LIG    1       29.243 -12.514   3.966  0.00  0.00    -0.258 OA
BRANCH   5   7
ATOM      7  O   LIG    1       27.435 -13.334   5.509  0.00  0.00    -0.323 OA
ATOM      8  H   LIG    1       27.950 -14.020   5.958  0.00  0.00    +0.220 HD
ENDBRANCH   5   7
BRANCH   5   9
ATOM      9  O   LIG    1       26.727 -12.163   3.512  0.00  0.00    -0.323 OA
ATOM     10  H   LIG    1       25.920 -12.296   4.012  0.00  0.00    +0.220 HD
ENDBRANCH   5   9
ENDBRANCH   4   5
ENDBRANCH   3   4
BRANCH   3  11
ATOM     11  C   LIG    1       25.331 -15.288   2.910  0.00  0.00    +0.212 C 
BRANCH  11  12
ATOM     12  P   LIG    1       24.058 -14.476   3.908  0.00  0.00    +0.342 P 
ATOM     13  O   LIG    1       22.980 -15.337   4.477  0.00  0.00    -0.258 OA
BRANCH  12  14
ATOM     14  O   LIG    1       24.809 -13.693   5.095  0.00  0.00    -0.323 OA
ATOM     15  H   LIG    1       24.784 -14.163   5.949  0.00  0.00    +0.220 HD
ENDBRANCH  12  14
BRANCH  12  16
ATOM     16  O   LIG    1       23.462 -13.258   3.055  0.00  0.00    -0.323 OA
ATOM     17  H   LIG    1       23.420 -12.425   3.561  0.00  0.00    +0.220 HD
ENDBRANCH  12  16
ENDBRANCH  11  12
ENDBRANCH   3  11
ENDBRANCH   2   3
ENDBRANCH   1   2
BRANCH   1  18
ATOM     18  N   LIG    1       25.642 -19.160   4.343  0.00  0.00    -0.280 NA
BRANCH  18  19
ATOM     19  C   LIG    1       24.529 -20.062   3.920  0.00  0.00    +0.212 C 
BRANCH  19  20
ATOM     20  P   LIG    1       23.158 -20.157   5.087  0.00  0.00    +0.342 P 
ATOM     21  O   LIG    1       22.306 -18.928   5.166  0.00  0.00    -0.258 OA
BRANCH  20  22
ATOM     22  O   LIG    1       23.812 -20.518   6.507  0.00  0.00    -0.323 OA
ATOM     23  H   LIG    1       24.224 -19.715   6.887  0.00  0.00    +0.220 HD
ENDBRANCH  20  22
BRANCH  20  24
ATOM     24  O   LIG    1       22.333 -21.495   4.775  0.00  0.00    -0.323 OA
ATOM     25  H   LIG    1       21.876 -21.876   5.552  0.00  0.00    +0.220 HD
ENDBRANCH  20  24
ENDBRANCH  19  20
ENDBRANCH  18  19
BRANCH  18  26
ATOM     26  C   LIG    1       26.924 -19.946   4.318  0.00  0.00    +0.212 C 
BRANCH  26  28
ATOM     27  O   LIG    1       28.733 -18.810   6.160  0.00  0.00    -0.258 OA
ATOM     28  P   LIG    1       27.803 -19.950   5.892  0.00  0.00    +0.342 P 
BRANCH  28  29
ATOM     29  O   LIG    1       28.581 -21.352   5.965  0.00  0.00    -0.323 OA
ATOM     30  H   LIG    1       29.536 -21.267   5.781  0.00  0.00    +0.220 HD
ENDBRANCH  28  29
BRANCH  28  31
ATOM     31  O   LIG    1       26.724 -20.128   7.061  0.00  0.00    -0.323 OA
ATOM     32  H   LIG    1       26.535 -21.059   7.284  0.00  0.00    +0.220 HD
ENDBRANCH  28  31
ENDBRANCH  26  28
ENDBRANCH  18  26
ENDBRANCH   1  18
TORSDOF 19
ENDMDL
MODEL 3
REMARK VINA RESULT:      -2.5      1.121      1.661
REMARK  Name = *****
REMARK                            x       y       z     vdW  Elec       q    Type
REMARK                         _______ _______ _______ _____ _____    ______ ____
ROOT
ATOM      1  C   LIG    1       26.510 -17.116   3.689  0.00  0.00    +0.101 C 
ENDROOT
BRANCH   1   2
ATOM      2  C   LIG    1       25.464 -18.222   3.378  0.00  0.00    +0.101 C 
BRANCH   2   3
ATOM      3  N   LIG    1       25.432 -19.401   4.255  0.00  0.00    -0.280 NA
BRANCH   3   4
ATOM      4  C   LIG    1       24.315 -20.340   3.986  0.00  0.00    +0.212 C 
BRANCH   4   5
ATOM      5  P   LIG    1       23.019 -20.345   5.232  0.00  0.00    +0.342 P 
ATOM      6  O   LIG    1       23.336 -20.908   6.561  0.00  0.00    -0.258 OA
BRANCH   5   7
ATOM      7  O   LIG    1       21.752 -21.122   4.620  0.00  0.00    -0.323 OA
ATOM      8  H   LIG    1       20.926 -20.820   5.025  0.00  0.00    +0.220 HD
ENDBRANCH   5   7
BRANCH   5   9
ATOM      9  O   LIG    1       22.344 -18.879   5.311  0.00  0.00    -0.323 OA
ATOM     10  H   LIG    1       22.031 -18.669   6.192  0.00  0.00    +0.220 HD
ENDBRANCH   5   9
ENDBRANCH   4   5
ENDBRANCH   3   4
BRANCH   3  11
ATOM     11  C   LIG    1       26.745 -20.094   4.361  0.00  0.00    +0.212 C 
BRANCH  11  12
ATOM     12  P   LIG    1       27.436 -20.112   6.034  0.00  0.00    +0.342 P 
ATOM     13  O   LIG    1       28.407 -19.035   6.386  0.00  0.00    -0.258 OA
BRANCH  12  14
ATOM     14  O   LIG    1       26.199 -20.082   7.062  0.00  0.00    -0.323 OA
ATOM     15  H   LIG    1       25.685 -19.254   7.029  0.00  0.00    +0.220 HD
ENDBRANCH  12  14
BRANCH  12  16
ATOM     16  O   LIG    1       28.037 -21.572   6.306  0.00  0.00    -0.323 OA
ATOM     17  H   LIG    1       27.432 -22.288   6.038  0.00  0.00    +0.220 HD
ENDBRANCH  12  16
ENDBRANCH  11  12
ENDBRANCH   3  11
ENDBRANCH   2   3
ENDBRANCH   1   2
BRANCH   1  18
ATOM     18  N   LIG    1       26.112 -15.750   3.250  0.00  0.00    -0.280 NA
BRANCH  18  19
ATOM     19  C   LIG    1       25.585 -14.960   4.403  0.00  0.00    +0.212 C 
BRANCH  19  20
ATOM     20  P   LIG    1       24.007 -14.143   4.092  0.00  0.00    +0.342 P 
ATOM     21  O   LIG    1       22.796 -14.976   4.374  0.00  0.00    -0.258 OA
BRANCH  20  22
ATOM     22  O   LIG    1       24.054 -13.663   2.561  0.00  0.00    -0.323 OA
ATOM     23  H   LIG    1       23.183 -13.829   2.144  0.00  0.00    +0.220 HD
ENDBRANCH  20  22
BRANCH  20  24
ATOM     24  O   LIG    1       24.017 -12.737   4.860  0.00  0.00    -0.323 OA
ATOM     25  H   LIG    1       23.315 -12.643   5.535  0.00  0.00    +0.220 HD
ENDBRANCH  20  24
ENDBRANCH  19  20
ENDBRANCH  18  19
BRANCH  18  26
ATOM     26  C   LIG    1       27.323 -15.044   2.706  0.00  0.00    +0.212 C 
BRANCH  26  28
ATOM     27  O   LIG    1       27.290 -13.332   4.947  0.00  0.00    -0.258 OA
ATOM     28  P   LIG    1       27.662 -13.464   3.505  0.00  0.00    +0.342 P 
BRANCH  28  29
ATOM     29  O   LIG    1       26.922 -12.349   2.619  0.00  0.00    -0.323 OA
ATOM     30  H   LIG    1       26.154 -11.951   3.072  0.00  0.00    +0.220 HD
ENDBRANCH  28  29
BRANCH  28  31
ATOM     31  O   LIG    1       29.200 -13.099   3.248  0.00  0.00    -0.323 OA
ATOM     32  H   LIG    1       29.682 -13.768   2.728  0.00  0.00    +0.220 HD
ENDBRANCH  28  31
ENDBRANCH  26  28
ENDBRANCH  18  26
ENDBRANCH   1  18
TORSDOF 19
ENDMDL
MODEL 4
REMARK VINA RESULT:      -2.5      1.200      7.619
REMARK  Name = *****
REMARK                            x       y       z     vdW  Elec       q    Type
REMARK                         _______ _______ _______ _____ _____    ______ ____
ROOT
ATOM      1  C   LIG    1       25.177 -18.370   3.728  0.00  0.00    +0.101 C 
ENDROOT
BRANCH   1   2
ATOM      2  C   LIG    1       26.398 -17.479   3.368  0.00  0.00    +0.101 C 
BRANCH   2   3
ATOM      3  N   LIG    1       26.375 -16.076   3.804  0.00  0.00    -0.280 NA
BRANCH   3   4
ATOM      4  C   LIG    1       27.714 -15.468   4.000  0.00  0.00    +0.212 C 
BRANCH   4   5
ATOM      5  P   LIG    1       27.785 -13.693   3.719  0.00  0.00    +0.342 P 
ATOM      6  O   LIG    1       26.942 -13.127   2.647  0.00  0.00    -0.258 OA
BRANCH   5   7
ATOM      7  O   LIG    1       29.320 -13.300   3.446  0.00  0.00    -0.323 OA
ATOM      8  H   LIG    1       29.626 -12.630   4.074  0.00  0.00    +0.220 HD
ENDBRANCH   5   7
BRANCH   5   9
ATOM      9  O   LIG    1       27.621 -12.920   5.128  0.00  0.00    -0.323 OA
ATOM     10  H   LIG    1       27.426 -11.988   5.012  0.00  0.00    +0.220 HD
ENDBRANCH   5   9
ENDBRANCH   4   5
ENDBRANCH   3   4
BRANCH   3  11
ATOM     11  C   LIG    1       25.475 -15.218   2.986  0.00  0.00    +0.212 C 
BRANCH  11  12
ATOM     12  P   LIG    1       24.260 -14.289   3.955  0.00  0.00    +0.342 P 
ATOM     13  O   LIG    1       24.746 -13.605   5.188  0.00  0.00    -0.258 OA
BRANCH  12  14
ATOM     14  O   LIG    1       23.586 -13.212   2.968  0.00  0.00    -0.323 OA
ATOM     15  H   LIG    1       23.498 -13.527   2.049  0.00  0.00    +0.220 HD
ENDBRANCH  12  14
BRANCH  12  16
ATOM     16  O   LIG    1       23.021 -15.259   4.257  0.00  0.00    -0.323 OA
ATOM     17  H   LIG    1       22.343 -14.843   4.821  0.00  0.00    +0.220 HD
ENDBRANCH  12  16
ENDBRANCH  11  12
ENDBRANCH   3  11
ENDBRANCH   2   3
ENDBRANCH   1   2
BRANCH   1  18
ATOM     18  N   LIG    1       25.530 -19.726   4.231  0.00  0.00    -0.280 NA
BRANCH  18  19
ATOM     19  C   LIG    1       25.809 -19.686   5.699  0.00  0.00    +0.212 C 
BRANCH  19  20
ATOM     20  P   LIG    1       27.435 -20.310   6.169  0.00  0.00    +0.342 P 
ATOM     21  O   LIG    1       27.420 -21.566   6.984  0.00  0.00    -0.258 OA
BRANCH  20  22
ATOM     22  O   LIG    1       28.161 -19.108   6.944  0.00  0.00    -0.323 OA
ATOM     23  H   LIG    1       29.012 -18.906   6.502  0.00  0.00    +0.220 HD
ENDBRANCH  20  22
BRANCH  20  24
ATOM     24  O   LIG    1       28.329 -20.413   4.843  0.00  0.00    -0.323 OA
ATOM     25  H   LIG    1       28.219 -19.662   4.225  0.00  0.00    +0.220 HD
ENDBRANCH  20  24
ENDBRANCH  19  20
ENDBRANCH  18  19
BRANCH  18  26
ATOM     26  C   LIG    1       24.366 -20.649   3.996  0.00  0.00    +0.212 C 
BRANCH  26  28
ATOM     27  O   LIG    1       23.336 -20.523   6.618  0.00  0.00    -0.258 OA
ATOM     28  P   LIG    1       23.012 -20.420   5.162  0.00  0.00    +0.342 P 
BRANCH  28  29
ATOM     29  O   LIG    1       21.884 -21.486   4.751  0.00  0.00    -0.323 OA
ATOM     30  H   LIG    1       21.310 -21.171   4.026  0.00  0.00    +0.220 HD
ENDBRANCH  28  29
BRANCH  28  31
ATOM     31  O   LIG    1       22.282 -19.039   4.809  0.00  0.00    -0.323 OA
ATOM     32  H   LIG    1       21.370 -18.977   5.149  0.00  0.00    +0.220 HD
ENDBRANCH  28  31
ENDBRANCH  26  28
ENDBRANCH  18  26
ENDBRANCH   1  18
TORSDOF 19
ENDMDL
MODEL 5
REMARK VINA RESULT:      -2.5      0.556      6.670
REMARK  Name = *****
REMARK                            x       y       z     vdW  Elec       q    Type
REMARK                         _______ _______ _______ _____ _____    ______ ____
ROOT
ATOM      1  C   LIG    1       26.136 -17.815   3.466  0.00  0.00    +0.101 C 
ENDROOT
BRANCH   1   2
ATOM      2  C   LIG    1       27.175 -16.683   3.699  0.00  0.00    +0.101 C 
BRANCH   2   3
ATOM      3  N   LIG    1       26.752 -15.300   3.437  0.00  0.00    -0.280 NA
BRANCH   3   4
ATOM      4  C   LIG    1       25.331 -15.154   3.037  0.00  0.00    +0.212 C 
BRANCH   4   5
ATOM      5  P   LIG    1       24.451 -13.818   3.860  0.00  0.00    +0.342 P 
ATOM      6  O   LIG    1       25.179 -13.029   4.874  0.00  0.00    -0.258 OA
BRANCH   5   7
ATOM      7  O   LIG    1       23.127 -14.441   4.527  0.00  0.00    -0.323 OA
ATOM      8  H   LIG    1       23.208 -14.482   5.491  0.00  0.00    +0.220 HD
ENDBRANCH   5   7
BRANCH   5   9
ATOM      9  O   LIG    1       23.713 -12.901   2.753  0.00  0.00    -0.323 OA
ATOM     10  H   LIG    1       23.138 -12.243   3.149  0.00  0.00    +0.220 HD
ENDBRANCH   5   9
ENDBRANCH   4   5
ENDBRANCH   3   4
BRANCH   3  11
ATOM     11  C   LIG    1       27.142 -14.349   4.514  0.00  0.00    +0.212 C 
BRANCH  11  12
ATOM     12  P   LIG    1       28.239 -13.019   3.963  0.00  0.00    +0.342 P 
ATOM     13  O   LIG    1       28.819 -12.131   5.013  0.00  0.00    -0.258 OA
BRANCH  12  14
ATOM     14  O   LIG    1       29.424 -13.699   3.115  0.00  0.00    -0.323 OA
ATOM     15  H   LIG    1       29.398 -14.674   3.120  0.00  0.00    +0.220 HD
ENDBRANCH  12  14
BRANCH  12  16
ATOM     16  O   LIG    1       27.477 -12.185   2.828  0.00  0.00    -0.323 OA
ATOM     17  H   LIG    1       26.535 -12.036   3.034  0.00  0.00    +0.220 HD
ENDBRANCH  12  16
ENDBRANCH  11  12
ENDBRANCH   3  11
ENDBRANCH   2   3
ENDBRANCH   1   2
BRANCH   1  18
ATOM     18  N   LIG    1       26.196 -18.921   4.461  0.00  0.00    -0.280 NA
BRANCH  18  19
ATOM     19  C   LIG    1       25.388 -20.089   3.998  0.00  0.00    +0.212 C 
BRANCH  19  20
ATOM     20  P   LIG    1       23.796 -20.274   4.825  0.00  0.00    +0.342 P 
ATOM     21  O   LIG    1       23.866 -20.400   6.315  0.00  0.00    -0.258 OA
BRANCH  20  22
ATOM     22  O   LIG    1       23.096 -21.552   4.153  0.00  0.00    -0.323 OA
ATOM     23  H   LIG    1       23.701 -22.320   4.212  0.00  0.00    +0.220 HD
ENDBRANCH  20  22
BRANCH  20  24
ATOM     24  O   LIG    1       22.837 -19.092   4.322  0.00  0.00    -0.323 OA
ATOM     25  H   LIG    1       22.146 -18.834   4.965  0.00  0.00    +0.220 HD
ENDBRANCH  20  24
ENDBRANCH  19  20
ENDBRANCH  18  19
BRANCH  18  26
ATOM     26  C   LIG    1       27.625 -19.362   4.610  0.00  0.00    +0.212 C 
BRANCH  26  28
ATOM     27  O   LIG    1       26.855 -20.524   7.062  0.00  0.00    -0.258 OA
ATOM     28  P   LIG    1       28.005 -20.060   6.228  0.00  0.00    +0.342 P 
BRANCH  28  29
ATOM     29  O   LIG    1       28.862 -18.946   7.004  0.00  0.00    -0.323 OA
ATOM     30  H   LIG    1       29.135 -18.206   6.427  0.00  0.00    +0.220 HD
ENDBRANCH  28  29
BRANCH  28  31
ATOM     31  O   LIG    1       29.099 -21.212   6.025  0.00  0.00    -0.323 OA
ATOM     32  H   LIG    1       30.019 -20.885   6.018  0.00  0.00    +0.220 HD
ENDBRANCH  28  31
ENDBRANCH  26  28
ENDBRANCH  18  26
ENDBRANCH   1  18
TORSDOF 19
ENDMDL
MODEL 6
REMARK VINA RESULT:      -2.4      1.123      4.341
REMARK  Name = *****
REMARK                            x       y       z     vdW  Elec       q    Type
REMARK                         _______ _______ _______ _____ _____    ______ ____
ROOT
ATOM      1  C   LIG    1       26.426 -17.253   3.310  0.00  0.00    +0.101 C 
ENDROOT
BRANCH   1   2
ATOM      2  C   LIG    1       25.227 -18.163   3.697  0.00  0.00    +0.101 C 
BRANCH   2   3
ATOM      3  N   LIG    1       25.525 -19.462   4.316  0.00  0.00    -0.280 NA
BRANCH   3   4
ATOM      4  C   LIG    1       25.883 -19.394   5.754  0.00  0.00    +0.212 C 
BRANCH   4   5
ATOM      5  P   LIG    1       27.502 -20.063   6.160  0.00  0.00    +0.342 P 
ATOM      6  O   LIG    1       28.407 -19.237   6.985  0.00  0.00    -0.258 OA
BRANCH   5   7
ATOM      7  O   LIG    1       28.239 -20.435   4.780  0.00  0.00    -0.323 OA
ATOM      8  H   LIG    1       28.921 -19.784   4.562  0.00  0.00    +0.220 HD
ENDBRANCH   5   7
BRANCH   5   9
ATOM      9  O   LIG    1       27.335 -21.570   6.719  0.00  0.00    -0.323 OA
ATOM     10  H   LIG    1       27.973 -21.778   7.404  0.00  0.00    +0.220 HD
ENDBRANCH   5   9
ENDBRANCH   4   5
ENDBRANCH   3   4
BRANCH   3  11
ATOM     11  C   LIG    1       24.496 -20.500   4.034  0.00  0.00    +0.212 C 
BRANCH  11  12
ATOM     12  P   LIG    1       23.158 -20.563   5.251  0.00  0.00    +0.342 P 
ATOM     13  O   LIG    1       23.531 -20.858   6.665  0.00  0.00    -0.258 OA
BRANCH  12  14
ATOM     14  O   LIG    1       22.379 -19.158   5.178  0.00  0.00    -0.323 OA
ATOM     15  H   LIG    1       22.539 -18.584   5.950  0.00  0.00    +0.220 HD
ENDBRANCH  12  14
BRANCH  12  16
ATOM     16  O   LIG    1       22.039 -21.572   4.706  0.00  0.00    -0.323 OA
ATOM     17  H   LIG    1       22.264 -22.508   4.859  0.00  0.00    +0.220 HD
ENDBRANCH  12  16
ENDBRANCH  11  12
ENDBRANCH   3  11
ENDBRANCH   2   3
ENDBRANCH   1   2
BRANCH   1  18
ATOM     18  N   LIG    1       26.390 -15.894   3.917  0.00  0.00    -0.280 NA
BRANCH  18  19
ATOM     19  C   LIG    1       27.772 -15.341   4.050  0.00  0.00    +0.212 C 
BRANCH  19  20
ATOM     20  P   LIG    1       27.901 -13.569   3.740  0.00  0.00    +0.342 P 
ATOM     21  O   LIG    1       26.983 -13.042   2.681  0.00  0.00    -0.258 OA
BRANCH  20  22
ATOM     22  O   LIG    1       29.441 -13.296   3.381  0.00  0.00    -0.323 OA
ATOM     23  H   LIG    1       29.901 -12.950   4.173  0.00  0.00    +0.220 HD
ENDBRANCH  20  22
BRANCH  20  24
ATOM     24  O   LIG    1       27.769 -12.810   5.145  0.00  0.00    -0.323 OA
ATOM     25  H   LIG    1       28.227 -13.254   5.887  0.00  0.00    +0.220 HD
ENDBRANCH  20  24
ENDBRANCH  19  20
ENDBRANCH  18  19
BRANCH  18  26
ATOM     26  C   LIG    1       25.599 -14.983   3.019  0.00  0.00    +0.212 C 
BRANCH  26  28
ATOM     27  O   LIG    1       23.168 -15.169   4.437  0.00  0.00    -0.258 OA
ATOM     28  P   LIG    1       24.165 -14.241   3.820  0.00  0.00    +0.342 P 
BRANCH  28  29
ATOM     29  O   LIG    1       23.470 -13.307   2.714  0.00  0.00    -0.323 OA
ATOM     30  H   LIG    1       22.908 -13.808   2.093  0.00  0.00    +0.220 HD
ENDBRANCH  28  29
BRANCH  28  31
ATOM     31  O   LIG    1       24.692 -13.149   4.866  0.00  0.00    -0.323 OA
ATOM     32  H   LIG    1       25.664 -13.072   4.899  0.00  0.00    +0.220 HD
ENDBRANCH  28  31
ENDBRANCH  26  28
ENDBRANCH  18  26
ENDBRANCH   1  18
TORSDOF 19
ENDMDL
MODEL 7
REMARK VINA RESULT:      -2.1      0.587      3.119
REMARK  Name = *****
REMARK                            x       y       z     vdW  Elec       q    Type
REMARK                         _______ _______ _______ _____ _____    ______ ____
ROOT
ATOM      1  C   LIG    1       27.107 -16.711   3.681  0.00  0.00    +0.101 C 
ENDROOT
BRANCH   1   2
ATOM      2  C   LIG    1       25.996 -17.778   3.473  0.00  0.00    +0.101 C 
BRANCH   2   3
ATOM      3  N   LIG    1       26.214 -19.115   4.044  0.00  0.00    -0.280 NA
BRANCH   3   4
ATOM      4  C   LIG    1       26.405 -19.134   5.515  0.00  0.00    +0.212 C 
BRANCH   4   5
ATOM      5  P   LIG    1       27.715 -20.224   6.090  0.00  0.00    +0.342 P 
ATOM      6  O   LIG    1       27.326 -21.477   6.770  0.00  0.00    -0.258 OA
BRANCH   5   7
ATOM      7  O   LIG    1       28.671 -19.372   7.061  0.00  0.00    -0.323 OA
ATOM      8  H   LIG    1       28.854 -19.853   7.881  0.00  0.00    +0.220 HD
ENDBRANCH   5   7
BRANCH   5   9
ATOM      9  O   LIG    1       28.782 -20.455   4.899  0.00  0.00    -0.323 OA
ATOM     10  H   LIG    1       29.613 -20.811   5.219  0.00  0.00    +0.220 HD
ENDBRANCH   5   9
ENDBRANCH   4   5
ENDBRANCH   3   4
BRANCH   3  11
ATOM     11  C   LIG    1       25.219 -20.122   3.584  0.00  0.00    +0.212 C 
BRANCH  11  12
ATOM     12  P   LIG    1       23.782 -20.289   4.672  0.00  0.00    +0.342 P 
ATOM     13  O   LIG    1       24.042 -20.416   6.136  0.00  0.00    -0.258 OA
BRANCH  12  14
ATOM     14  O   LIG    1       22.827 -19.024   4.399  0.00  0.00    -0.323 OA
ATOM     15  H   LIG    1       22.385 -19.049   3.530  0.00  0.00    +0.220 HD
ENDBRANCH  12  14
BRANCH  12  16
ATOM     16  O   LIG    1       22.879 -21.491   4.118  0.00  0.00    -0.323 OA
ATOM     17  H   LIG    1       23.245 -22.370   4.329  0.00  0.00    +0.220 HD
ENDBRANCH  12  16
ENDBRANCH  11  12
ENDBRANCH   3  11
ENDBRANCH   2   3
ENDBRANCH   1   2
BRANCH   1  18
ATOM     18  N   LIG    1       26.642 -15.303   3.546  0.00  0.00    -0.280 NA
BRANCH  18  19
ATOM     19  C   LIG    1       25.157 -15.224   3.686  0.00  0.00    +0.212 C 
BRANCH  19  20
ATOM     20  P   LIG    1       24.454 -13.608   3.302  0.00  0.00    +0.342 P 
ATOM     21  O   LIG    1       24.621 -12.574   4.372  0.00  0.00    -0.258 OA
BRANCH  20  22
ATOM     22  O   LIG    1       22.907 -13.869   2.965  0.00  0.00    -0.323 OA
ATOM     23  H   LIG    1       22.712 -13.537   2.065  0.00  0.00    +0.220 HD
ENDBRANCH  20  22
BRANCH  20  24
ATOM     24  O   LIG    1       25.013 -13.151   1.872  0.00  0.00    -0.323 OA
ATOM     25  H   LIG    1       25.932 -12.815   1.887  0.00  0.00    +0.220 HD
ENDBRANCH  20  24
ENDBRANCH  19  20
ENDBRANCH  18  19
BRANCH  18  26
ATOM     26  C   LIG    1       27.266 -14.480   4.639  0.00  0.00    +0.212 C 
BRANCH  26  28
ATOM     27  O   LIG    1       28.741 -12.110   5.041  0.00  0.00    -0.258 OA
ATOM     28  P   LIG    1       28.265 -13.108   4.034  0.00  0.00    +0.342 P 
BRANCH  28  29
ATOM     29  O   LIG    1       27.397 -12.394   2.888  0.00  0.00    -0.323 OA
ATOM     30  H   LIG    1       27.946 -12.026   2.170  0.00  0.00    +0.220 HD
ENDBRANCH  28  29
BRANCH  28  31
ATOM     31  O   LIG    1       29.475 -13.716   3.179  0.00  0.00    -0.323 OA
ATOM     32  H   LIG    1       30.293 -13.850   3.692  0.00  0.00    +0.220 HD
ENDBRANCH  28  31
ENDBRANCH  26  28
ENDBRANCH  18  26
ENDBRANCH   1  18
TORSDOF 19
ENDMDL
MODEL 8
REMARK VINA RESULT:      -1.9      1.226      4.342
REMARK  Name = *****
REMARK                            x       y       z     vdW  Elec       q    Type
REMARK                         _______ _______ _______ _____ _____    ______ ____
ROOT
ATOM      1  C   LIG    1       26.107 -17.350   3.314  0.00  0.00    +0.101 C 
ENDROOT
BRANCH   1   2
ATOM      2  C   LIG    1       25.106 -18.191   4.153  0.00  0.00    +0.101 C 
BRANCH   2   3
ATOM      3  N   LIG    1       25.521 -19.539   4.566  0.00  0.00    -0.280 NA
BRANCH   3   4
ATOM      4  C   LIG    1       25.956 -19.645   5.980  0.00  0.00    +0.212 C 
BRANCH   4   5
ATOM      5  P   LIG    1       27.606 -20.322   6.212  0.00  0.00    +0.342 P 
ATOM      6  O   LIG    1       27.741 -21.571   6.988  0.00  0.00    -0.258 OA
BRANCH   5   7
ATOM      7  O   LIG    1       28.514 -19.181   6.888  0.00  0.00    -0.323 OA
ATOM      8  H   LIG    1       29.049 -19.542   7.610  0.00  0.00    +0.220 HD
ENDBRANCH   5   7
BRANCH   5   9
ATOM      9  O   LIG    1       28.369 -20.376   4.788  0.00  0.00    -0.323 OA
ATOM     10  H   LIG    1       27.881 -20.878   4.132  0.00  0.00    +0.220 HD
ENDBRANCH   5   9
ENDBRANCH   4   5
ENDBRANCH   3   4
BRANCH   3  11
ATOM     11  C   LIG    1       24.546 -20.599   4.189  0.00  0.00    +0.212 C 
BRANCH  11  12
ATOM     12  P   LIG    1       23.118 -20.717   5.294  0.00  0.00    +0.342 P 
ATOM     13  O   LIG    1       23.365 -21.206   6.683  0.00  0.00    -0.258 OA
BRANCH  12  14
ATOM     14  O   LIG    1       22.434 -19.262   5.347  0.00  0.00    -0.323 OA
ATOM     15  H   LIG    1       23.076 -18.531   5.417  0.00  0.00    +0.220 HD
ENDBRANCH  12  14
BRANCH  12  16
ATOM     16  O   LIG    1       21.985 -21.572   4.552  0.00  0.00    -0.323 OA
ATOM     17  H   LIG    1       22.304 -21.994   3.733  0.00  0.00    +0.220 HD
ENDBRANCH  12  16
ENDBRANCH  11  12
ENDBRANCH   3  11
ENDBRANCH   2   3
ENDBRANCH   1   2
BRANCH   1  18
ATOM     18  N   LIG    1       26.265 -15.942   3.774  0.00  0.00    -0.280 NA
BRANCH  18  19
ATOM     19  C   LIG    1       27.693 -15.515   3.678  0.00  0.00    +0.212 C 
BRANCH  19  20
ATOM     20  P   LIG    1       27.953 -13.736   3.813  0.00  0.00    +0.342 P 
ATOM     21  O   LIG    1       29.376 -13.291   3.673  0.00  0.00    -0.258 OA
BRANCH  20  22
ATOM     22  O   LIG    1       27.334 -13.305   5.229  0.00  0.00    -0.323 OA
ATOM     23  H   LIG    1       26.396 -13.585   5.270  0.00  0.00    +0.220 HD
ENDBRANCH  20  22
BRANCH  20  24
ATOM     24  O   LIG    1       26.947 -13.010   2.798  0.00  0.00    -0.323 OA
ATOM     25  H   LIG    1       26.360 -12.349   3.218  0.00  0.00    +0.220 HD
ENDBRANCH  20  24
ENDBRANCH  19  20
ENDBRANCH  18  19
BRANCH  18  26
ATOM     26  C   LIG    1       25.443 -15.048   2.887  0.00  0.00    +0.212 C 
BRANCH  26  28
ATOM     27  O   LIG    1       24.647 -13.256   4.914  0.00  0.00    -0.258 OA
ATOM     28  P   LIG    1       24.188 -14.104   3.772  0.00  0.00    +0.342 P 
BRANCH  28  29
ATOM     29  O   LIG    1       23.087 -15.168   4.256  0.00  0.00    -0.323 OA
ATOM     30  H   LIG    1       23.454 -15.852   4.848  0.00  0.00    +0.220 HD
ENDBRANCH  28  29
BRANCH  28  31
ATOM     31  O   LIG    1       23.355 -13.259   2.697  0.00  0.00    -0.323 OA
ATOM     32  H   LIG    1       23.911 -12.798   2.041  0.00  0.00    +0.220 HD
ENDBRANCH  28  31
ENDBRANCH  26  28
ENDBRANCH  18  26
ENDBRANCH   1  18
TORSDOF 19
ENDMDL
MODEL 9
REMARK VINA RESULT:      -1.5      1.742      6.709
REMARK  Name = *****
REMARK                            x       y       z     vdW  Elec       q    Type
REMARK                         _______ _______ _______ _____ _____    ______ ____
ROOT
ATOM      1  C   LIG    1       25.646 -17.321   3.072  0.00  0.00    +0.101 C 
ENDROOT
BRANCH   1   2
ATOM      2  C   LIG    1       25.432 -15.824   3.430  0.00  0.00    +0.101 C 
BRANCH   2   3
ATOM      3  N   LIG    1       26.494 -14.874   3.070  0.00  0.00    -0.280 NA
BRANCH   3   4
ATOM      4  C   LIG    1       26.014 -13.514   2.722  0.00  0.00    +0.212 C 
BRANCH   4   5
ATOM      5  P   LIG    1       24.305 -13.180   3.171  0.00  0.00    +0.342 P 
ATOM      6  O   LIG    1       23.712 -13.966   4.273  0.00  0.00    -0.258 OA
BRANCH   5   7
ATOM      7  O   LIG    1       23.406 -13.361   1.851  0.00  0.00    -0.323 OA
ATOM      8  H   LIG    1       23.805 -13.999   1.241  0.00  0.00    +0.220 HD
ENDBRANCH   5   7
BRANCH   5   9
ATOM      9  O   LIG    1       24.098 -11.588   3.347  0.00  0.00    -0.323 OA
ATOM     10  H   LIG    1       24.916 -11.135   3.560  0.00  0.00    +0.220 HD
ENDBRANCH   5   9
ENDBRANCH   4   5
ENDBRANCH   3   4
BRANCH   3  11
ATOM     11  C   LIG    1       27.619 -14.850   4.043  0.00  0.00    +0.212 C 
BRANCH  11  12
ATOM     12  P   LIG    1       27.608 -13.417   5.149  0.00  0.00    +0.342 P 
ATOM     13  O   LIG    1       28.510 -12.278   4.804  0.00  0.00    -0.258 OA
BRANCH  12  14
ATOM     14  O   LIG    1       26.089 -12.895   5.239  0.00  0.00    -0.323 OA
ATOM     15  H   LIG    1       25.447 -13.489   4.808  0.00  0.00    +0.220 HD
ENDBRANCH  12  14
BRANCH  12  16
ATOM     16  O   LIG    1       27.851 -13.941   6.643  0.00  0.00    -0.323 OA
ATOM     17  H   LIG    1       27.725 -14.903   6.733  0.00  0.00    +0.220 HD
ENDBRANCH  12  16
ENDBRANCH  11  12
ENDBRANCH   3  11
ENDBRANCH   2   3
ENDBRANCH   1   2
BRANCH   1  18
ATOM     18  N   LIG    1       24.998 -18.278   4.011  0.00  0.00    -0.280 NA
BRANCH  18  19
ATOM     19  C   LIG    1       23.734 -18.816   3.424  0.00  0.00    +0.212 C 
BRANCH  19  20
ATOM     20  P   LIG    1       22.245 -18.414   4.359  0.00  0.00    +0.342 P 
ATOM     21  O   LIG    1       20.960 -18.600   3.613  0.00  0.00    -0.258 OA
BRANCH  20  22
ATOM     22  O   LIG    1       22.430 -16.899   4.854  0.00  0.00    -0.323 OA
ATOM     23  H   LIG    1       22.734 -16.898   5.785  0.00  0.00    +0.220 HD
ENDBRANCH  20  22
BRANCH  20  24
ATOM     24  O   LIG    1       22.304 -19.207   5.750  0.00  0.00    -0.323 OA
ATOM     25  H   LIG    1       22.600 -20.136   5.671  0.00  0.00    +0.220 HD
ENDBRANCH  20  24
ENDBRANCH  19  20
ENDBRANCH  18  19
BRANCH  18  26
ATOM     26  C   LIG    1       25.936 -19.429   4.252  0.00  0.00    +0.212 C 
BRANCH  26  28
ATOM     27  O   LIG    1       24.172 -21.568   4.771  0.00  0.00    -0.258 OA
ATOM     28  P   LIG    1       25.257 -20.704   5.330  0.00  0.00    +0.342 P 
BRANCH  28  29
ATOM     29  O   LIG    1       24.760 -19.949   6.657  0.00  0.00    -0.323 OA
ATOM     30  H   LIG    1       25.278 -20.191   7.448  0.00  0.00    +0.220 HD
ENDBRANCH  28  29
BRANCH  28  31
ATOM     31  O   LIG    1       26.476 -21.571   5.900  0.00  0.00    -0.323 OA
ATOM     32  H   LIG    1       26.238 -22.136   6.659  0.00  0.00    +0.220 HD
ENDBRANCH  28  31
ENDBRANCH  26  28
ENDBRANCH  18  26
ENDBRANCH   1  18
TORSDOF 19
ENDMDL
