MODEL 1
REMARK VINA RESULT:      -5.2      0.000      0.000
REMARK  Name = *****
REMARK                            x       y       z     vdW  Elec       q    Type
REMARK                         _______ _______ _______ _____ _____    ______ ____
ROOT
ATOM      1  C   LIG    1       25.218 -30.142  10.554  0.00  0.00    +0.182 C 
ATOM      2  C   LIG    1       25.526 -29.601  12.052  0.00  0.00    +0.021 C 
ATOM      3  C   LIG    1       25.104 -30.783  12.971  0.00  0.00    +0.005 C 
ATOM      4  C   LIG    1       23.584 -30.826  13.308  0.00  0.00    +0.018 C 
ATOM      5  C   LIG    1       23.079 -29.493  13.952  0.00  0.00    +0.086 C 
ATOM      6  C   LIG    1       23.365 -28.372  12.899  0.00  0.00    +0.137 C 
ATOM      7 CL   LIG    1       24.124 -29.138  15.427  0.00  0.00    -0.114 Cl
ATOM      8  C   LIG    1       21.531 -29.561  14.426  0.00  0.00    +0.029 C 
ATOM      9  C   LIG    1       21.164 -30.940  15.052  0.00  0.00    -0.054 C 
ATOM     10  C   LIG    1       19.898 -31.117  15.499  0.00  0.00    +0.051 C 
ATOM     11  C   LIG    1       18.917 -30.928  14.362  0.00  0.00    +0.179 C 
ATOM     12  C   LIG    1       19.322 -29.999  13.262  0.00  0.00    +0.047 C 
ATOM     13  O   LIG    1       17.810 -31.450  14.380  0.00  0.00    -0.288 OA
ATOM     14  C   LIG    1       21.765 -32.162  14.395  0.00  0.00    +0.032 C 
ATOM     15  C   LIG    1       21.208 -28.448  15.474  0.00  0.00    +0.022 C 
ATOM     16  C   LIG    1       20.505 -29.357  13.295  0.00  0.00    -0.011 C 
ATOM     17  C   LIG    1       23.259 -32.039  14.192  0.00  0.00    +0.010 C 
ATOM     18  C   LIG    1       25.596 -31.992  12.177  0.00  0.00    +0.012 C 
ATOM     19  C   LIG    1       27.043 -29.337  12.314  0.00  0.00    +0.016 C 
ATOM     20  C   LIG    1       24.820 -28.277  12.422  0.00  0.00    +0.044 C 
ATOM     21  C   LIG    1       25.159 -31.713  10.740  0.00  0.00    +0.038 C 
ATOM     22  C   LIG    1       25.961 -32.603   9.793  0.00  0.00    +0.012 C 
ENDROOT
BRANCH   1  23
ATOM     23  C   LIG    1       26.365 -29.691   9.600  0.00  0.00    +0.214 C 
ATOM     24  O   LIG    1       27.453 -30.278   9.607  0.00  0.00    -0.289 OA
BRANCH  23  25
ATOM     25  C   LIG    1       26.228 -28.423   8.765  0.00  0.00    +0.310 C 
BRANCH  25  26
ATOM     26  O   LIG    1       25.510 -28.467   7.540  0.00  0.00    -0.457 OA
BRANCH  26  27
ATOM     27  C   LIG    1       25.623 -27.395   6.716  0.00  0.00    +0.307 C 
ATOM     28  O   LIG    1       26.591 -26.674   6.550  0.00  0.00    -0.251 OA
BRANCH  27  30
ATOM     29  C   LIG    1       24.076 -25.582   6.157  0.00  0.00    +0.015 C 
ATOM     30  C   LIG    1       24.292 -27.089   6.083  0.00  0.00    +0.117 C 
ENDBRANCH  27  30
ENDBRANCH  26  27
ENDBRANCH  25  26
ENDBRANCH  23  25
ENDBRANCH   1  23
BRANCH   6  31
ATOM     31  O   LIG    1       22.985 -27.072  13.351  0.00  0.00    -0.390 OA
ATOM     32  H   LIG    1       23.199 -27.021  14.302  0.00  0.00    +0.210 HD
ENDBRANCH   6  31
BRANCH   1  33
ATOM     33  O   LIG    1       23.877 -29.675  10.225  0.00  0.00    -0.449 OA
BRANCH  33  34
ATOM     34  C   LIG    1       23.029 -30.459   9.507  0.00  0.00    +0.308 C 
ATOM     35  O   LIG    1       23.262 -30.887   8.388  0.00  0.00    -0.251 OA
BRANCH  34  36
ATOM     36  C   LIG    1       21.793 -30.827  10.298  0.00  0.00    +0.117 C 
ATOM     37  C   LIG    1       21.502 -32.313  10.374  0.00  0.00    +0.015 C 
ENDBRANCH  34  36
ENDBRANCH  33  34
ENDBRANCH   1  33
TORSDOF 9
ENDMDL
MODEL 2
REMARK VINA RESULT:      -5.0      2.517      5.226
REMARK  Name = *****
REMARK                            x       y       z     vdW  Elec       q    Type
REMARK                         _______ _______ _______ _____ _____    ______ ____
ROOT
ATOM      1  C   LIG    1       23.597 -31.188  10.851  0.00  0.00    +0.182 C 
ATOM      2  C   LIG    1       24.132 -31.570  12.334  0.00  0.00    +0.021 C 
ATOM      3  C   LIG    1       23.300 -30.655  13.280  0.00  0.00    +0.005 C 
ATOM      4  C   LIG    1       23.874 -29.217  13.452  0.00  0.00    +0.018 C 
ATOM      5  C   LIG    1       25.357 -29.222  13.947  0.00  0.00    +0.086 C 
ATOM      6  C   LIG    1       26.170 -29.999  12.859  0.00  0.00    +0.137 C 
ATOM      7 CL   LIG    1       25.439 -30.210  15.500  0.00  0.00    -0.114 Cl
ATOM      8  C   LIG    1       25.932 -27.739  14.254  0.00  0.00    +0.029 C 
ATOM      9  C   LIG    1       24.869 -26.820  14.927  0.00  0.00    -0.054 C 
ATOM     10  C   LIG    1       25.234 -25.555  15.245  0.00  0.00    +0.051 C 
ATOM     11  C   LIG    1       25.663 -24.812  13.998  0.00  0.00    +0.179 C 
ATOM     12  C   LIG    1       26.250 -25.626  12.889  0.00  0.00    +0.047 C 
ATOM     13  O   LIG    1       25.606 -23.592  13.931  0.00  0.00    -0.288 OA
ATOM     14  C   LIG    1       23.450 -26.947  14.422  0.00  0.00    +0.032 C 
ATOM     15  C   LIG    1       27.187 -27.797  15.184  0.00  0.00    +0.022 C 
ATOM     16  C   LIG    1       26.393 -26.959  13.008  0.00  0.00    -0.011 C 
ATOM     17  C   LIG    1       22.973 -28.382  14.374  0.00  0.00    +0.010 C 
ATOM     18  C   LIG    1       21.920 -30.696  12.625  0.00  0.00    +0.012 C 
ATOM     19  C   LIG    1       23.825 -33.046  12.741  0.00  0.00    +0.016 C 
ATOM     20  C   LIG    1       25.655 -31.408  12.537  0.00  0.00    +0.044 C 
ATOM     21  C   LIG    1       22.195 -30.510  11.134  0.00  0.00    +0.038 C 
ATOM     22  C   LIG    1       20.974 -30.971  10.340  0.00  0.00    +0.012 C 
ENDROOT
BRANCH   1  23
ATOM     23  C   LIG    1       23.477 -32.487  10.000  0.00  0.00    +0.214 C 
ATOM     24  O   LIG    1       22.366 -32.952   9.718  0.00  0.00    -0.289 OA
BRANCH  23  25
ATOM     25  C   LIG    1       24.717 -33.298   9.641  0.00  0.00    +0.310 C 
BRANCH  25  26
ATOM     26  O   LIG    1       25.372 -33.063   8.403  0.00  0.00    -0.457 OA
BRANCH  26  27
ATOM     27  C   LIG    1       26.681 -32.708   8.451  0.00  0.00    +0.307 C 
ATOM     28  O   LIG    1       27.332 -32.371   9.424  0.00  0.00    -0.251 OA
BRANCH  27  30
ATOM     29  C   LIG    1       26.222 -31.950   6.170  0.00  0.00    +0.015 C 
ATOM     30  C   LIG    1       27.249 -32.641   7.059  0.00  0.00    +0.117 C 
ENDBRANCH  27  30
ENDBRANCH  26  27
ENDBRANCH  25  26
ENDBRANCH  23  25
ENDBRANCH   1  23
BRANCH   6  31
ATOM     31  O   LIG    1       27.556 -30.121  13.179  0.00  0.00    -0.390 OA
ATOM     32  H   LIG    1       27.623 -30.688  13.972  0.00  0.00    +0.210 HD
ENDBRANCH   6  31
BRANCH   1  33
ATOM     33  O   LIG    1       24.502 -30.162  10.348  0.00  0.00    -0.449 OA
BRANCH  33  34
ATOM     34  C   LIG    1       24.497 -29.821   9.032  0.00  0.00    +0.308 C 
ATOM     35  O   LIG    1       23.533 -29.936   8.291  0.00  0.00    -0.251 OA
BRANCH  34  36
ATOM     36  C   LIG    1       25.802 -29.187   8.606  0.00  0.00    +0.117 C 
ATOM     37  C   LIG    1       26.585 -28.526   9.724  0.00  0.00    +0.015 C 
ENDBRANCH  34  36
ENDBRANCH  33  34
ENDBRANCH   1  33
TORSDOF 9
ENDMDL
MODEL 3
REMARK VINA RESULT:      -4.8      2.486      3.795
REMARK  Name = *****
REMARK                            x       y       z     vdW  Elec       q    Type
REMARK                         _______ _______ _______ _____ _____    ______ ____
ROOT
ATOM      1  C   LIG    1       24.888 -31.591   9.643  0.00  0.00    +0.182 C 
ATOM      2  C   LIG    1       24.735 -32.233  11.124  0.00  0.00    +0.021 C 
ATOM      3  C   LIG    1       23.197 -32.386  11.309  0.00  0.00    +0.005 C 
ATOM      4  C   LIG    1       22.476 -31.097  11.801  0.00  0.00    +0.018 C 
ATOM      5  C   LIG    1       23.082 -30.547  13.134  0.00  0.00    +0.086 C 
ATOM      6  C   LIG    1       24.585 -30.239  12.827  0.00  0.00    +0.137 C 
ATOM      7 CL   LIG    1       23.045 -31.902  14.382  0.00  0.00    -0.114 Cl
ATOM      8  C   LIG    1       22.267 -29.280  13.730  0.00  0.00    +0.029 C 
ATOM      9  C   LIG    1       20.726 -29.434  13.558  0.00  0.00    -0.054 C 
ATOM     10  C   LIG    1       19.932 -28.442  14.028  0.00  0.00    +0.051 C 
ATOM     11  C   LIG    1       20.275 -27.137  13.345  0.00  0.00    +0.179 C 
ATOM     12  C   LIG    1       21.686 -26.964  12.877  0.00  0.00    +0.047 C 
ATOM     13  O   LIG    1       19.458 -26.231  13.249  0.00  0.00    -0.288 OA
ATOM     14  C   LIG    1       20.249 -30.044  12.259  0.00  0.00    +0.032 C 
ATOM     15  C   LIG    1       22.569 -29.074  15.249  0.00  0.00    +0.022 C 
ATOM     16  C   LIG    1       22.603 -27.931  13.067  0.00  0.00    -0.011 C 
ATOM     17  C   LIG    1       20.963 -31.335  11.924  0.00  0.00    +0.010 C 
ATOM     18  C   LIG    1       22.757 -32.850   9.921  0.00  0.00    +0.012 C 
ATOM     19  C   LIG    1       25.354 -33.661  11.247  0.00  0.00    +0.016 C 
ATOM     20  C   LIG    1       25.392 -31.413  12.258  0.00  0.00    +0.044 C 
ATOM     21  C   LIG    1       23.504 -31.932   8.953  0.00  0.00    +0.038 C 
ATOM     22  C   LIG    1       23.502 -32.566   7.564  0.00  0.00    +0.012 C 
ENDROOT
BRANCH   1  23
ATOM     23  C   LIG    1       26.099 -32.254   8.920  0.00  0.00    +0.214 C 
ATOM     24  O   LIG    1       27.219 -32.252   9.443  0.00  0.00    -0.289 OA
BRANCH  23  25
ATOM     25  C   LIG    1       25.964 -32.768   7.491  0.00  0.00    +0.310 C 
BRANCH  25  26
ATOM     26  O   LIG    1       26.828 -32.264   6.483  0.00  0.00    -0.457 OA
BRANCH  26  27
ATOM     27  C   LIG    1       26.273 -31.971   5.279  0.00  0.00    +0.307 C 
ATOM     28  O   LIG    1       25.538 -31.041   4.999  0.00  0.00    -0.251 OA
BRANCH  27  30
ATOM     29  C   LIG    1       25.902 -32.703   2.973  0.00  0.00    +0.015 C 
ATOM     30  C   LIG    1       26.575 -33.066   4.292  0.00  0.00    +0.117 C 
ENDBRANCH  27  30
ENDBRANCH  26  27
ENDBRANCH  25  26
ENDBRANCH  23  25
ENDBRANCH   1  23
BRANCH   6  31
ATOM     31  O   LIG    1       25.297 -29.751  13.964  0.00  0.00    -0.390 OA
ATOM     32  H   LIG    1       24.960 -28.855  14.156  0.00  0.00    +0.210 HD
ENDBRANCH   6  31
BRANCH   1  33
ATOM     33  O   LIG    1       24.955 -30.148   9.833  0.00  0.00    -0.449 OA
BRANCH  33  34
ATOM     34  C   LIG    1       25.451 -29.344   8.855  0.00  0.00    +0.308 C 
ATOM     35  O   LIG    1       24.952 -29.210   7.749  0.00  0.00    -0.251 OA
BRANCH  34  36
ATOM     36  C   LIG    1       26.651 -28.553   9.327  0.00  0.00    +0.117 C 
ATOM     37  C   LIG    1       26.641 -28.200  10.802  0.00  0.00    +0.015 C 
ENDBRANCH  34  36
ENDBRANCH  33  34
ENDBRANCH   1  33
TORSDOF 9
ENDMDL
MODEL 4
REMARK VINA RESULT:      -4.8      2.806      6.478
REMARK  Name = *****
REMARK                            x       y       z     vdW  Elec       q    Type
REMARK                         _______ _______ _______ _____ _____    ______ ____
ROOT
ATOM      1  C   LIG    1       25.076 -29.133  13.107  0.00  0.00    +0.182 C 
ATOM      2  C   LIG    1       23.913 -30.261  13.049  0.00  0.00    +0.021 C 
ATOM      3  C   LIG    1       24.688 -31.585  12.786  0.00  0.00    +0.005 C 
ATOM      4  C   LIG    1       25.012 -31.854  11.287  0.00  0.00    +0.018 C 
ATOM      5  C   LIG    1       23.732 -31.842  10.388  0.00  0.00    +0.086 C 
ATOM      6  C   LIG    1       23.103 -30.419  10.556  0.00  0.00    +0.137 C 
ATOM      7 CL   LIG    1       22.533 -33.056  11.084  0.00  0.00    -0.114 Cl
ATOM      8  C   LIG    1       24.031 -32.244   8.848  0.00  0.00    +0.029 C 
ATOM      9  C   LIG    1       25.079 -33.390   8.728  0.00  0.00    -0.054 C 
ATOM     10  C   LIG    1       25.406 -33.825   7.488  0.00  0.00    +0.051 C 
ATOM     11  C   LIG    1       25.976 -32.684   6.673  0.00  0.00    +0.179 C 
ATOM     12  C   LIG    1       25.500 -31.306   7.007  0.00  0.00    +0.047 C 
ATOM     13  O   LIG    1       26.732 -32.886   5.732  0.00  0.00    -0.288 OA
ATOM     14  C   LIG    1       26.242 -33.345   9.694  0.00  0.00    +0.032 C 
ATOM     15  C   LIG    1       22.727 -32.698   8.116  0.00  0.00    +0.022 C 
ATOM     16  C   LIG    1       24.598 -31.101   7.985  0.00  0.00    -0.011 C 
ATOM     17  C   LIG    1       25.801 -33.162  11.129  0.00  0.00    +0.010 C 
ATOM     18  C   LIG    1       25.925 -31.406  13.665  0.00  0.00    +0.012 C 
ATOM     19  C   LIG    1       23.154 -30.436  14.402  0.00  0.00    +0.016 C 
ATOM     20  C   LIG    1       22.807 -30.000  12.001  0.00  0.00    +0.044 C 
ATOM     21  C   LIG    1       26.386 -29.975  13.395  0.00  0.00    +0.038 C 
ATOM     22  C   LIG    1       27.321 -29.533  14.519  0.00  0.00    +0.012 C 
ENDROOT
BRANCH   1  23
ATOM     23  C   LIG    1       24.751 -28.119  14.245  0.00  0.00    +0.214 C 
ATOM     24  O   LIG    1       24.803 -28.468  15.430  0.00  0.00    -0.289 OA
BRANCH  23  25
ATOM     25  C   LIG    1       24.204 -26.734  13.918  0.00  0.00    +0.310 C 
BRANCH  25  26
ATOM     26  O   LIG    1       22.980 -26.616  13.205  0.00  0.00    -0.457 OA
BRANCH  26  27
ATOM     27  C   LIG    1       21.837 -26.596  13.936  0.00  0.00    +0.307 C 
ATOM     28  O   LIG    1       21.715 -26.428  15.136  0.00  0.00    -0.251 OA
BRANCH  27  30
ATOM     29  C   LIG    1       20.037 -28.228  13.637  0.00  0.00    +0.015 C 
ATOM     30  C   LIG    1       20.664 -26.962  13.066  0.00  0.00    +0.117 C 
ENDBRANCH  27  30
ENDBRANCH  26  27
ENDBRANCH  25  26
ENDBRANCH  23  25
ENDBRANCH   1  23
BRANCH   6  31
ATOM     31  O   LIG    1       21.894 -30.254   9.814  0.00  0.00    -0.390 OA
ATOM     32  H   LIG    1       22.045 -29.536   9.169  0.00  0.00    +0.210 HD
ENDBRANCH   6  31
BRANCH   1  33
ATOM     33  O   LIG    1       25.177 -28.587  11.759  0.00  0.00    -0.449 OA
BRANCH  33  34
ATOM     34  C   LIG    1       26.355 -28.080  11.306  0.00  0.00    +0.308 C 
ATOM     35  O   LIG    1       27.068 -27.315  11.936  0.00  0.00    -0.251 OA
BRANCH  34  36
ATOM     36  C   LIG    1       26.734 -28.650   9.957  0.00  0.00    +0.117 C 
ATOM     37  C   LIG    1       27.499 -29.957  10.009  0.00  0.00    +0.015 C 
ENDBRANCH  34  36
ENDBRANCH  33  34
ENDBRANCH   1  33
TORSDOF 9
ENDMDL
MODEL 5
REMARK VINA RESULT:      -4.7      2.741      6.571
REMARK  Name = *****
REMARK                            x       y       z     vdW  Elec       q    Type
REMARK                         _______ _______ _______ _____ _____    ______ ____
ROOT
ATOM      1  C   LIG    1       21.563 -29.895  13.036  0.00  0.00    +0.182 C 
ATOM      2  C   LIG    1       22.895 -30.811  12.902  0.00  0.00    +0.021 C 
ATOM      3  C   LIG    1       23.684 -30.519  14.212  0.00  0.00    +0.005 C 
ATOM      4  C   LIG    1       24.568 -29.239  14.158  0.00  0.00    +0.018 C 
ATOM      5  C   LIG    1       25.580 -29.262  12.965  0.00  0.00    +0.086 C 
ATOM      6  C   LIG    1       24.712 -29.371  11.668  0.00  0.00    +0.137 C 
ATOM      7 CL   LIG    1       26.575 -30.808  13.089  0.00  0.00    -0.114 Cl
ATOM      8  C   LIG    1       26.595 -28.000  12.965  0.00  0.00    +0.029 C 
ATOM      9  C   LIG    1       27.063 -27.617  14.402  0.00  0.00    -0.054 C 
ATOM     10  C   LIG    1       27.925 -26.581  14.533  0.00  0.00    +0.051 C 
ATOM     11  C   LIG    1       27.307 -25.319  13.971  0.00  0.00    +0.179 C 
ATOM     12  C   LIG    1       26.318 -25.482  12.861  0.00  0.00    +0.047 C 
ATOM     13  O   LIG    1       27.659 -24.211  14.352  0.00  0.00    -0.288 OA
ATOM     14  C   LIG    1       26.021 -27.697  15.495  0.00  0.00    +0.032 C 
ATOM     15  C   LIG    1       27.864 -28.291  12.101  0.00  0.00    +0.022 C 
ATOM     16  C   LIG    1       26.003 -26.701  12.385  0.00  0.00    -0.011 C 
ATOM     17  C   LIG    1       25.282 -29.017  15.500  0.00  0.00    +0.010 C 
ATOM     18  C   LIG    1       22.562 -30.454  15.248  0.00  0.00    +0.012 C 
ATOM     19  C   LIG    1       22.592 -32.343  12.882  0.00  0.00    +0.016 C 
ATOM     20  C   LIG    1       23.735 -30.553  11.631  0.00  0.00    +0.044 C 
ATOM     21  C   LIG    1       21.478 -29.601  14.590  0.00  0.00    +0.038 C 
ATOM     22  C   LIG    1       20.155 -29.828  15.318  0.00  0.00    +0.012 C 
ENDROOT
BRANCH   1  23
ATOM     23  C   LIG    1       20.335 -30.697  12.508  0.00  0.00    +0.214 C 
ATOM     24  O   LIG    1       19.685 -31.423  13.269  0.00  0.00    -0.289 OA
BRANCH  23  25
ATOM     25  C   LIG    1       20.012 -30.731  11.018  0.00  0.00    +0.310 C 
BRANCH  25  26
ATOM     26  O   LIG    1       20.778 -31.560  10.156  0.00  0.00    -0.457 OA
BRANCH  26  27
ATOM     27  C   LIG    1       20.280 -32.790   9.874  0.00  0.00    +0.307 C 
ATOM     28  O   LIG    1       19.117 -33.151   9.892  0.00  0.00    -0.251 OA
BRANCH  27  30
ATOM     29  C   LIG    1       22.361 -33.149   8.635  0.00  0.00    +0.015 C 
ATOM     30  C   LIG    1       21.407 -33.764   9.652  0.00  0.00    +0.117 C 
ENDBRANCH  27  30
ENDBRANCH  26  27
ENDBRANCH  25  26
ENDBRANCH  23  25
ENDBRANCH   1  23
BRANCH   6  31
ATOM     31  O   LIG    1       25.496 -29.435  10.477  0.00  0.00    -0.390 OA
ATOM     32  H   LIG    1       25.826 -30.350  10.395  0.00  0.00    +0.210 HD
ENDBRANCH   6  31
BRANCH   1  33
ATOM     33  O   LIG    1       21.864 -28.643  12.355  0.00  0.00    -0.449 OA
BRANCH  33  34
ATOM     34  C   LIG    1       21.404 -27.461  12.846  0.00  0.00    +0.308 C 
ATOM     35  O   LIG    1       20.225 -27.186  12.995  0.00  0.00    -0.251 OA
BRANCH  34  36
ATOM     36  C   LIG    1       22.533 -26.553  13.281  0.00  0.00    +0.117 C 
ATOM     37  C   LIG    1       22.590 -26.274  14.771  0.00  0.00    +0.015 C 
ENDBRANCH  34  36
ENDBRANCH  33  34
ENDBRANCH   1  33
TORSDOF 9
ENDMDL
MODEL 6
REMARK VINA RESULT:      -4.6      1.916      2.357
REMARK  Name = *****
REMARK                            x       y       z     vdW  Elec       q    Type
REMARK                         _______ _______ _______ _____ _____    ______ ____
ROOT
ATOM      1  C   LIG    1       25.321 -30.340  10.033  0.00  0.00    +0.182 C 
ATOM      2  C   LIG    1       25.001 -30.166  11.613  0.00  0.00    +0.021 C 
ATOM      3  C   LIG    1       24.588 -31.595  12.071  0.00  0.00    +0.005 C 
ATOM      4  C   LIG    1       23.093 -31.946  11.815  0.00  0.00    +0.018 C 
ATOM      5  C   LIG    1       22.118 -30.915  12.471  0.00  0.00    +0.086 C 
ATOM      6  C   LIG    1       22.463 -29.530  11.831  0.00  0.00    +0.137 C 
ATOM      7 CL   LIG    1       22.524 -30.804  14.265  0.00  0.00    -0.114 Cl
ATOM      8  C   LIG    1       20.559 -31.329  12.325  0.00  0.00    +0.029 C 
ATOM      9  C   LIG    1       20.335 -32.862  12.499  0.00  0.00    -0.054 C 
ATOM     10  C   LIG    1       19.068 -33.332  12.410  0.00  0.00    +0.051 C 
ATOM     11  C   LIG    1       18.488 -33.002  11.052  0.00  0.00    +0.179 C 
ATOM     12  C   LIG    1       19.000 -31.770  10.375  0.00  0.00    +0.047 C 
ATOM     13  O   LIG    1       17.584 -33.667  10.565  0.00  0.00    -0.288 OA
ATOM     14  C   LIG    1       21.377 -33.770  11.886  0.00  0.00    +0.032 C 
ATOM     15  C   LIG    1       19.672 -30.585  13.375  0.00  0.00    +0.022 C 
ATOM     16  C   LIG    1       19.931 -30.993  10.960  0.00  0.00    -0.011 C 
ATOM     17  C   LIG    1       22.788 -33.381  12.270  0.00  0.00    +0.010 C 
ATOM     18  C   LIG    1       25.572 -32.472  11.296  0.00  0.00    +0.012 C 
ATOM     19  C   LIG    1       26.251 -29.760  12.456  0.00  0.00    +0.016 C 
ATOM     20  C   LIG    1       23.931 -29.102  11.946  0.00  0.00    +0.044 C 
ATOM     21  C   LIG    1       25.566 -31.897   9.880  0.00  0.00    +0.038 C 
ATOM     22  C   LIG    1       26.811 -32.384   9.140  0.00  0.00    +0.012 C 
ENDROOT
BRANCH   1  23
ATOM     23  C   LIG    1       26.579 -29.495   9.669  0.00  0.00    +0.214 C 
ATOM     24  O   LIG    1       27.694 -29.815  10.094  0.00  0.00    -0.289 OA
BRANCH  23  25
ATOM     25  C   LIG    1       26.436 -28.172   8.924  0.00  0.00    +0.310 C 
BRANCH  25  26
ATOM     26  O   LIG    1       26.123 -28.180   7.538  0.00  0.00    -0.457 OA
BRANCH  26  27
ATOM     27  C   LIG    1       25.786 -26.994   6.971  0.00  0.00    +0.307 C 
ATOM     28  O   LIG    1       26.022 -25.872   7.382  0.00  0.00    -0.251 OA
BRANCH  27  30
ATOM     29  C   LIG    1       25.489 -26.423   4.610  0.00  0.00    +0.015 C 
ATOM     30  C   LIG    1       24.912 -27.228   5.768  0.00  0.00    +0.117 C 
ENDBRANCH  27  30
ENDBRANCH  26  27
ENDBRANCH  25  26
ENDBRANCH  23  25
ENDBRANCH   1  23
BRANCH   6  31
ATOM     31  O   LIG    1       21.671 -28.462  12.352  0.00  0.00    -0.390 OA
ATOM     32  H   LIG    1       21.121 -28.831  13.069  0.00  0.00    +0.210 HD
ENDBRANCH   6  31
BRANCH   1  33
ATOM     33  O   LIG    1       24.088 -30.006   9.332  0.00  0.00    -0.449 OA
BRANCH  33  34
ATOM     34  C   LIG    1       23.543 -30.876   8.440  0.00  0.00    +0.308 C 
ATOM     35  O   LIG    1       22.644 -31.660   8.698  0.00  0.00    -0.251 OA
BRANCH  34  36
ATOM     36  C   LIG    1       24.115 -30.693   7.051  0.00  0.00    +0.117 C 
ATOM     37  C   LIG    1       23.925 -31.876   6.122  0.00  0.00    +0.015 C 
ENDBRANCH  34  36
ENDBRANCH  33  34
ENDBRANCH   1  33
TORSDOF 9
ENDMDL
MODEL 7
REMARK VINA RESULT:      -4.4      2.582      7.068
REMARK  Name = *****
REMARK                            x       y       z     vdW  Elec       q    Type
REMARK                         _______ _______ _______ _____ _____    ______ ____
ROOT
ATOM      1  C   LIG    1       21.110 -31.107  11.592  0.00  0.00    +0.182 C 
ATOM      2  C   LIG    1       22.290 -31.890  10.801  0.00  0.00    +0.021 C 
ATOM      3  C   LIG    1       23.257 -32.349  11.931  0.00  0.00    +0.005 C 
ATOM      4  C   LIG    1       24.285 -31.268  12.377  0.00  0.00    +0.018 C 
ATOM      5  C   LIG    1       25.139 -30.728  11.183  0.00  0.00    +0.086 C 
ATOM      6  C   LIG    1       24.118 -30.114  10.169  0.00  0.00    +0.137 C 
ATOM      7 CL   LIG    1       25.937 -32.167  10.354  0.00  0.00    -0.114 Cl
ATOM      8  C   LIG    1       26.299 -29.696  11.645  0.00  0.00    +0.029 C 
ATOM      9  C   LIG    1       26.976 -30.126  12.981  0.00  0.00    -0.054 C 
ATOM     10  C   LIG    1       27.973 -29.347  13.466  0.00  0.00    +0.051 C 
ATOM     11  C   LIG    1       27.458 -27.947  13.719  0.00  0.00    +0.179 C 
ATOM     12  C   LIG    1       26.333 -27.469  12.857  0.00  0.00    +0.047 C 
ATOM     13  O   LIG    1       27.991 -27.209  14.538  0.00  0.00    -0.288 OA
ATOM     14  C   LIG    1       26.068 -30.703  14.043  0.00  0.00    +0.032 C 
ATOM     15  C   LIG    1       27.411 -29.566  10.555  0.00  0.00    +0.022 C 
ATOM     16  C   LIG    1       25.813 -28.256  11.896  0.00  0.00    -0.011 C 
ATOM     17  C   LIG    1       25.173 -31.800  13.512  0.00  0.00    +0.010 C 
ATOM     18  C   LIG    1       22.282 -32.768  13.030  0.00  0.00    +0.012 C 
ATOM     19  C   LIG    1       21.795 -33.179  10.071  0.00  0.00    +0.016 C 
ATOM     20  C   LIG    1       23.001 -31.060   9.709  0.00  0.00    +0.044 C 
ATOM     21  C   LIG    1       21.246 -31.646  13.074  0.00  0.00    +0.038 C 
ATOM     22  C   LIG    1       19.998 -32.148  13.799  0.00  0.00    +0.012 C 
ENDROOT
BRANCH   1  23
ATOM     23  C   LIG    1       19.737 -31.463  10.946  0.00  0.00    +0.214 C 
ATOM     24  O   LIG    1       19.278 -30.773  10.028  0.00  0.00    -0.289 OA
BRANCH  23  25
ATOM     25  C   LIG    1       18.861 -32.561  11.539  0.00  0.00    +0.310 C 
BRANCH  25  26
ATOM     26  O   LIG    1       17.456 -32.518  11.340  0.00  0.00    -0.457 OA
BRANCH  26  27
ATOM     27  C   LIG    1       16.677 -32.367  12.441  0.00  0.00    +0.307 C 
ATOM     28  O   LIG    1       16.342 -33.218  13.245  0.00  0.00    -0.251 OA
BRANCH  27  30
ATOM     29  C   LIG    1       16.815 -30.236  13.638  0.00  0.00    +0.015 C 
ATOM     30  C   LIG    1       16.124 -30.968  12.494  0.00  0.00    +0.117 C 
ENDBRANCH  27  30
ENDBRANCH  26  27
ENDBRANCH  25  26
ENDBRANCH  23  25
ENDBRANCH   1  23
BRANCH   6  31
ATOM     31  O   LIG    1       24.743 -29.598   8.993  0.00  0.00    -0.390 OA
ATOM     32  H   LIG    1       25.662 -29.368   9.229  0.00  0.00    +0.210 HD
ENDBRANCH   6  31
BRANCH   1  33
ATOM     33  O   LIG    1       21.486 -29.699  11.586  0.00  0.00    -0.449 OA
BRANCH  33  34
ATOM     34  C   LIG    1       21.206 -28.905  12.654  0.00  0.00    +0.308 C 
ATOM     35  O   LIG    1       20.102 -28.790  13.160  0.00  0.00    -0.251 OA
BRANCH  34  36
ATOM     36  C   LIG    1       22.450 -28.248  13.211  0.00  0.00    +0.117 C 
ATOM     37  C   LIG    1       22.406 -26.733  13.253  0.00  0.00    +0.015 C 
ENDBRANCH  34  36
ENDBRANCH  33  34
ENDBRANCH   1  33
TORSDOF 9
ENDMDL
MODEL 8
REMARK VINA RESULT:      -4.3      2.257      3.697
REMARK  Name = *****
REMARK                            x       y       z     vdW  Elec       q    Type
REMARK                         _______ _______ _______ _____ _____    ______ ____
ROOT
ATOM      1  C   LIG    1       25.539 -30.375  10.622  0.00  0.00    +0.182 C 
ATOM      2  C   LIG    1       25.081 -30.677  12.148  0.00  0.00    +0.021 C 
ATOM      3  C   LIG    1       24.524 -32.130  12.091  0.00  0.00    +0.005 C 
ATOM      4  C   LIG    1       23.039 -32.231  11.633  0.00  0.00    +0.018 C 
ATOM      5  C   LIG    1       22.082 -31.368  12.519  0.00  0.00    +0.086 C 
ATOM      6  C   LIG    1       22.586 -29.893  12.385  0.00  0.00    +0.137 C 
ATOM      7 CL   LIG    1       22.319 -31.870  14.276  0.00  0.00    -0.114 Cl
ATOM      8  C   LIG    1       20.518 -31.558  12.140  0.00  0.00    +0.029 C 
ATOM      9  C   LIG    1       20.168 -33.036  11.794  0.00  0.00    -0.054 C 
ATOM     10  C   LIG    1       18.886 -33.326  11.471  0.00  0.00    +0.051 C 
ATOM     11  C   LIG    1       18.465 -32.528  10.256  0.00  0.00    +0.179 C 
ATOM     12  C   LIG    1       19.128 -31.203  10.050  0.00  0.00    +0.047 C 
ATOM     13  O   LIG    1       17.567 -32.912   9.519  0.00  0.00    -0.288 OA
ATOM     14  C   LIG    1       21.197 -33.804  10.994  0.00  0.00    +0.032 C 
ATOM     15  C   LIG    1       19.590 -31.099  13.311  0.00  0.00    +0.022 C 
ATOM     16  C   LIG    1       20.051 -30.747  10.916  0.00  0.00    -0.011 C 
ATOM     17  C   LIG    1       22.588 -33.698  11.578  0.00  0.00    +0.010 C 
ATOM     18  C   LIG    1       25.512 -32.809  11.143  0.00  0.00    +0.012 C 
ATOM     19  C   LIG    1       26.270 -30.684  13.160  0.00  0.00    +0.016 C 
ATOM     20  C   LIG    1       24.064 -29.672  12.732  0.00  0.00    +0.044 C 
ATOM     21  C   LIG    1       25.685 -31.820   9.992  0.00  0.00    +0.038 C 
ATOM     22  C   LIG    1       26.957 -32.170   9.221  0.00  0.00    +0.012 C 
ENDROOT
BRANCH   1  23
ATOM     23  C   LIG    1       26.884 -29.587  10.637  0.00  0.00    +0.214 C 
ATOM     24  O   LIG    1       27.963 -30.188  10.595  0.00  0.00    -0.289 OA
BRANCH  23  25
ATOM     25  C   LIG    1       26.899 -28.080  10.871  0.00  0.00    +0.310 C 
BRANCH  25  26
ATOM     26  O   LIG    1       27.728 -27.539  11.889  0.00  0.00    -0.457 OA
BRANCH  26  27
ATOM     27  C   LIG    1       27.123 -27.141  13.036  0.00  0.00    +0.307 C 
ATOM     28  O   LIG    1       27.095 -27.716  14.109  0.00  0.00    -0.251 OA
BRANCH  27  30
ATOM     29  C   LIG    1       25.230 -25.818  13.851  0.00  0.00    +0.015 C 
ATOM     30  C   LIG    1       26.321 -25.891  12.789  0.00  0.00    +0.117 C 
ENDBRANCH  27  30
ENDBRANCH  26  27
ENDBRANCH  25  26
ENDBRANCH  23  25
ENDBRANCH   1  23
BRANCH   6  31
ATOM     31  O   LIG    1       21.827 -28.971  13.168  0.00  0.00    -0.390 OA
ATOM     32  H   LIG    1       22.457 -28.337  13.562  0.00  0.00    +0.210 HD
ENDBRANCH   6  31
BRANCH   1  33
ATOM     33  O   LIG    1       24.407 -29.715   9.984  0.00  0.00    -0.449 OA
BRANCH  33  34
ATOM     34  C   LIG    1       23.922 -30.170   8.798  0.00  0.00    +0.308 C 
ATOM     35  O   LIG    1       22.883 -30.799   8.670  0.00  0.00    -0.251 OA
BRANCH  34  36
ATOM     36  C   LIG    1       24.772 -29.721   7.630  0.00  0.00    +0.117 C 
ATOM     37  C   LIG    1       24.047 -29.657   6.300  0.00  0.00    +0.015 C 
ENDBRANCH  34  36
ENDBRANCH  33  34
ENDBRANCH   1  33
TORSDOF 9
ENDMDL
MODEL 9
REMARK VINA RESULT:      -4.2      2.920      7.242
REMARK  Name = *****
REMARK                            x       y       z     vdW  Elec       q    Type
REMARK                         _______ _______ _______ _____ _____    ______ ____
ROOT
ATOM      1  C   LIG    1       22.846 -31.564  11.901  0.00  0.00    +0.182 C 
ATOM      2  C   LIG    1       24.405 -31.132  11.790  0.00  0.00    +0.021 C 
ATOM      3  C   LIG    1       24.434 -30.137  10.592  0.00  0.00    +0.005 C 
ATOM      4  C   LIG    1       24.530 -30.817   9.194  0.00  0.00    +0.018 C 
ATOM      5  C   LIG    1       25.766 -31.768   9.078  0.00  0.00    +0.086 C 
ATOM      6  C   LIG    1       25.581 -32.851  10.191  0.00  0.00    +0.137 C 
ATOM      7 CL   LIG    1       27.276 -30.800   9.503  0.00  0.00    -0.114 Cl
ATOM      8  C   LIG    1       25.957 -32.386   7.593  0.00  0.00    +0.029 C 
ATOM      9  C   LIG    1       25.640 -31.348   6.474  0.00  0.00    -0.054 C 
ATOM     10  C   LIG    1       25.775 -31.742   5.186  0.00  0.00    +0.051 C 
ATOM     11  C   LIG    1       24.859 -32.914   4.905  0.00  0.00    +0.179 C 
ATOM     12  C   LIG    1       24.537 -33.816   6.054  0.00  0.00    +0.047 C 
ATOM     13  O   LIG    1       24.463 -33.159   3.774  0.00  0.00    -0.288 OA
ATOM     14  C   LIG    1       24.466 -30.427   6.721  0.00  0.00    +0.032 C 
ATOM     15  C   LIG    1       27.415 -32.906   7.376  0.00  0.00    +0.022 C 
ATOM     16  C   LIG    1       25.051 -33.591   7.278  0.00  0.00    -0.011 C 
ATOM     17  C   LIG    1       24.522 -29.762   8.078  0.00  0.00    +0.010 C 
ATOM     18  C   LIG    1       23.144 -29.346  10.809  0.00  0.00    +0.012 C 
ATOM     19  C   LIG    1       24.922 -30.354  13.042  0.00  0.00    +0.016 C 
ATOM     20  C   LIG    1       25.394 -32.306  11.612  0.00  0.00    +0.044 C 
ATOM     21  C   LIG    1       22.091 -30.406  11.130  0.00  0.00    +0.038 C 
ATOM     22  C   LIG    1       20.892 -29.731  11.792  0.00  0.00    +0.012 C 
ENDROOT
BRANCH   1  23
ATOM     23  C   LIG    1       22.444 -31.647  13.405  0.00  0.00    +0.214 C 
ATOM     24  O   LIG    1       22.662 -32.675  14.056  0.00  0.00    -0.289 OA
BRANCH  23  25
ATOM     25  C   LIG    1       21.629 -30.533  14.053  0.00  0.00    +0.310 C 
BRANCH  25  26
ATOM     26  O   LIG    1       22.218 -29.739  15.072  0.00  0.00    -0.457 OA
BRANCH  26  27
ATOM     27  C   LIG    1       21.899 -28.420  15.093  0.00  0.00    +0.307 C 
ATOM     28  O   LIG    1       20.866 -27.903  15.480  0.00  0.00    -0.251 OA
BRANCH  27  30
ATOM     29  C   LIG    1       22.311 -26.707  13.394  0.00  0.00    +0.015 C 
ATOM     30  C   LIG    1       22.979 -27.618  14.416  0.00  0.00    +0.117 C 
ENDBRANCH  27  30
ENDBRANCH  26  27
ENDBRANCH  25  26
ENDBRANCH  23  25
ENDBRANCH   1  23
BRANCH   6  31
ATOM     31  O   LIG    1       26.655 -33.791  10.239  0.00  0.00    -0.390 OA
ATOM     32  H   LIG    1       26.550 -34.311  11.058  0.00  0.00    +0.210 HD
ENDBRANCH   6  31
BRANCH   1  33
ATOM     33  O   LIG    1       22.711 -32.788  11.123  0.00  0.00    -0.449 OA
BRANCH  33  34
ATOM     34  C   LIG    1       21.651 -32.963  10.288  0.00  0.00    +0.308 C 
ATOM     35  O   LIG    1       21.671 -32.740   9.088  0.00  0.00    -0.251 OA
BRANCH  34  36
ATOM     36  C   LIG    1       20.461 -33.562  11.003  0.00  0.00    +0.117 C 
ATOM     37  C   LIG    1       19.185 -32.747  10.912  0.00  0.00    +0.015 C 
ENDBRANCH  34  36
ENDBRANCH  33  34
ENDBRANCH   1  33
TORSDOF 9
ENDMDL
