MODEL 1
REMARK VINA RESULT:      -9.8      0.000      0.000
REMARK  Name = *****
REMARK                            x       y       z     vdW  Elec       q    Type
REMARK                         _______ _______ _______ _____ _____    ______ ____
ROOT
ATOM      1  C   LIG    1       28.195 -20.499   7.188  0.00  0.00    +0.080 C 
ATOM      2  C   LIG    1       27.372 -20.073   5.960  0.00  0.00    +0.170 C 
ATOM      3  O   LIG    1       27.878 -19.478   5.013  0.00  0.00    -0.292 OA
ATOM      4  C   LIG    1       25.944 -20.359   6.030  0.00  0.00    +0.046 C 
ATOM      5  C   LIG    1       24.863 -19.934   5.212  0.00  0.00    +0.011 C 
ATOM      6  C   LIG    1       23.695 -20.508   5.734  0.00  0.00    +0.050 C 
ATOM      7  N   LIG    1       24.066 -21.260   6.833  0.00  0.00    -0.346 NA
ATOM      8  C   LIG    1       23.172 -22.037   7.667  0.00  0.00    +0.149 C 
ATOM      9  C   LIG    1       22.437 -20.274   5.149  0.00  0.00    +0.026 C 
ATOM     10  C   LIG    1       22.369 -19.440   4.030  0.00  0.00    +0.002 C 
ATOM     11  C   LIG    1       23.515 -18.857   3.501  0.00  0.00    +0.001 C 
ATOM     12  C   LIG    1       24.764 -19.098   4.080  0.00  0.00    +0.010 C 
ATOM     13  C   LIG    1       25.422 -21.167   7.023  0.00  0.00    +0.030 C 
ATOM     14  C   LIG    1       26.194 -21.809   8.121  0.00  0.00    +0.055 C 
ATOM     15  C   LIG    1       27.682 -21.851   7.741  0.00  0.00    +0.019 C 
ENDROOT
BRANCH   1  16
ATOM     16  C   LIG    1       29.682 -20.544   6.806  0.00  0.00    +0.134 C 
BRANCH  16  19
ATOM     17  C   LIG    1       31.165 -21.920   9.151  0.00  0.00    +0.086 C 
ATOM     18  C   LIG    1       31.239 -20.479   8.807  0.00  0.00    +0.106 A 
ATOM     19  N   LIG    1       30.546 -19.889   7.773  0.00  0.00    -0.334 N 
ATOM     20  C   LIG    1       30.799 -18.545   7.816  0.00  0.00    +0.107 A 
ATOM     21  C   LIG    1       31.694 -18.380   8.845  0.00  0.00    +0.130 A 
ATOM     22  N   LIG    1       31.961 -19.579   9.448  0.00  0.00    -0.241 NA
ENDBRANCH  16  19
ENDBRANCH   1  16
TORSDOF 2
ENDMDL
MODEL 2
REMARK VINA RESULT:      -8.1      2.759      4.167
REMARK  Name = *****
REMARK                            x       y       z     vdW  Elec       q    Type
REMARK                         _______ _______ _______ _____ _____    ______ ____
ROOT
ATOM      1  C   LIG    1       26.602 -20.698   7.426  0.00  0.00    +0.080 C 
ATOM      2  C   LIG    1       26.881 -22.204   7.269  0.00  0.00    +0.170 C 
ATOM      3  O   LIG    1       28.016 -22.665   7.341  0.00  0.00    -0.292 OA
ATOM      4  C   LIG    1       25.720 -23.029   6.959  0.00  0.00    +0.046 C 
ATOM      5  C   LIG    1       25.619 -24.384   6.543  0.00  0.00    +0.011 C 
ATOM      6  C   LIG    1       24.256 -24.672   6.384  0.00  0.00    +0.050 C 
ATOM      7  N   LIG    1       23.557 -23.521   6.702  0.00  0.00    -0.346 NA
ATOM      8  C   LIG    1       22.116 -23.375   6.686  0.00  0.00    +0.149 C 
ATOM      9  C   LIG    1       23.816 -25.941   5.969  0.00  0.00    +0.026 C 
ATOM     10  C   LIG    1       24.775 -26.922   5.701  0.00  0.00    +0.002 C 
ATOM     11  C   LIG    1       26.132 -26.656   5.846  0.00  0.00    +0.001 C 
ATOM     12  C   LIG    1       26.564 -25.395   6.268  0.00  0.00    +0.010 C 
ATOM     13  C   LIG    1       24.436 -22.523   7.041  0.00  0.00    +0.030 C 
ATOM     14  C   LIG    1       24.071 -21.129   7.412  0.00  0.00    +0.055 C 
ATOM     15  C   LIG    1       25.250 -20.471   8.145  0.00  0.00    +0.019 C 
ENDROOT
BRANCH   1  16
ATOM     16  C   LIG    1       27.779 -20.042   8.161  0.00  0.00    +0.134 C 
BRANCH  16  19
ATOM     17  C   LIG    1       30.359 -18.558   9.016  0.00  0.00    +0.086 C 
ATOM     18  C   LIG    1       29.915 -18.787   7.619  0.00  0.00    +0.106 A 
ATOM     19  N   LIG    1       28.747 -19.429   7.269  0.00  0.00    -0.334 N 
ATOM     20  C   LIG    1       28.637 -19.377   5.906  0.00  0.00    +0.107 A 
ATOM     21  C   LIG    1       29.784 -18.756   5.475  0.00  0.00    +0.130 A 
ATOM     22  N   LIG    1       30.567 -18.399   6.539  0.00  0.00    -0.241 NA
ENDBRANCH  16  19
ENDBRANCH   1  16
TORSDOF 2
ENDMDL
MODEL 3
REMARK VINA RESULT:      -7.8      1.657      2.975
REMARK  Name = *****
REMARK                            x       y       z     vdW  Elec       q    Type
REMARK                         _______ _______ _______ _____ _____    ______ ____
ROOT
ATOM      1  C   LIG    1       29.052 -20.580   7.372  0.00  0.00    +0.080 C 
ATOM      2  C   LIG    1       27.625 -20.992   7.778  0.00  0.00    +0.170 C 
ATOM      3  O   LIG    1       27.386 -21.528   8.856  0.00  0.00    -0.292 OA
ATOM      4  C   LIG    1       26.596 -20.768   6.770  0.00  0.00    +0.046 C 
ATOM      5  C   LIG    1       25.246 -21.205   6.698  0.00  0.00    +0.011 C 
ATOM      6  C   LIG    1       24.707 -20.702   5.506  0.00  0.00    +0.050 C 
ATOM      7  N   LIG    1       25.706 -19.978   4.881  0.00  0.00    -0.346 NA
ATOM      8  C   LIG    1       25.579 -19.272   3.622  0.00  0.00    +0.149 C 
ATOM      9  C   LIG    1       23.377 -20.964   5.131  0.00  0.00    +0.026 C 
ATOM     10  C   LIG    1       22.593 -21.756   5.975  0.00  0.00    +0.002 C 
ATOM     11  C   LIG    1       23.110 -22.270   7.159  0.00  0.00    +0.001 C 
ATOM     12  C   LIG    1       24.430 -22.000   7.531  0.00  0.00    +0.010 C 
ATOM     13  C   LIG    1       26.852 -20.022   5.635  0.00  0.00    +0.030 C 
ATOM     14  C   LIG    1       28.153 -19.392   5.281  0.00  0.00    +0.055 C 
ATOM     15  C   LIG    1       29.022 -19.273   6.543  0.00  0.00    +0.019 C 
ENDROOT
BRANCH   1  16
ATOM     16  C   LIG    1       29.918 -20.458   8.633  0.00  0.00    +0.134 C 
BRANCH  16  19
ATOM     17  C   LIG    1       29.653 -18.069  10.587  0.00  0.00    +0.086 C 
ATOM     18  C   LIG    1       30.676 -18.206   9.520  0.00  0.00    +0.106 A 
ATOM     19  N   LIG    1       30.753 -19.269   8.648  0.00  0.00    -0.334 N 
ATOM     20  C   LIG    1       31.762 -19.007   7.762  0.00  0.00    +0.107 A 
ATOM     21  C   LIG    1       32.304 -17.814   8.174  0.00  0.00    +0.130 A 
ATOM     22  N   LIG    1       31.628 -17.330   9.261  0.00  0.00    -0.241 NA
ENDBRANCH  16  19
ENDBRANCH   1  16
TORSDOF 2
ENDMDL
MODEL 4
REMARK VINA RESULT:      -7.1      2.061      3.749
REMARK  Name = *****
REMARK                            x       y       z     vdW  Elec       q    Type
REMARK                         _______ _______ _______ _____ _____    ______ ____
ROOT
ATOM      1  C   LIG    1       30.377 -19.902   7.312  0.00  0.00    +0.080 C 
ATOM      2  C   LIG    1       29.200 -20.787   7.758  0.00  0.00    +0.170 C 
ATOM      3  O   LIG    1       29.276 -21.525   8.736  0.00  0.00    -0.292 OA
ATOM      4  C   LIG    1       28.020 -20.741   6.903  0.00  0.00    +0.046 C 
ATOM      5  C   LIG    1       26.856 -21.555   6.870  0.00  0.00    +0.011 C 
ATOM      6  C   LIG    1       26.035 -21.068   5.843  0.00  0.00    +0.050 C 
ATOM      7  N   LIG    1       26.687 -19.988   5.277  0.00  0.00    -0.346 NA
ATOM      8  C   LIG    1       26.190 -19.175   4.187  0.00  0.00    +0.149 C 
ATOM      9  C   LIG    1       24.798 -21.667   5.545  0.00  0.00    +0.026 C 
ATOM     10  C   LIG    1       24.399 -22.778   6.293  0.00  0.00    +0.002 C 
ATOM     11  C   LIG    1       25.201 -23.280   7.312  0.00  0.00    +0.001 C 
ATOM     12  C   LIG    1       26.426 -22.677   7.611  0.00  0.00    +0.010 C 
ATOM     13  C   LIG    1       27.891 -19.791   5.907  0.00  0.00    +0.030 C 
ATOM     14  C   LIG    1       28.894 -18.747   5.563  0.00  0.00    +0.055 C 
ATOM     15  C   LIG    1       29.859 -18.558   6.744  0.00  0.00    +0.019 C 
ENDROOT
BRANCH   1  16
ATOM     16  C   LIG    1       31.338 -19.710   8.493  0.00  0.00    +0.134 C 
BRANCH  16  19
ATOM     17  C   LIG    1       32.673 -16.917   8.575  0.00  0.00    +0.086 C 
ATOM     18  C   LIG    1       31.524 -17.352   9.407  0.00  0.00    +0.106 A 
ATOM     19  N   LIG    1       30.968 -18.611   9.368  0.00  0.00    -0.334 N 
ATOM     20  C   LIG    1       29.992 -18.664  10.326  0.00  0.00    +0.107 A 
ATOM     21  C   LIG    1       29.952 -17.404  10.870  0.00  0.00    +0.130 A 
ATOM     22  N   LIG    1       30.899 -16.601  10.294  0.00  0.00    -0.241 NA
ENDBRANCH  16  19
ENDBRANCH   1  16
TORSDOF 2
ENDMDL
MODEL 5
REMARK VINA RESULT:      -7.0      4.846      7.504
REMARK  Name = *****
REMARK                            x       y       z     vdW  Elec       q    Type
REMARK                         _______ _______ _______ _____ _____    ______ ____
ROOT
ATOM      1  C   LIG    1       24.859 -26.144   6.474  0.00  0.00    +0.080 C 
ATOM      2  C   LIG    1       26.040 -25.158   6.466  0.00  0.00    +0.170 C 
ATOM      3  O   LIG    1       27.192 -25.525   6.255  0.00  0.00    -0.292 OA
ATOM      4  C   LIG    1       25.707 -23.777   6.797  0.00  0.00    +0.046 C 
ATOM      5  C   LIG    1       26.535 -22.661   7.094  0.00  0.00    +0.011 C 
ATOM      6  C   LIG    1       25.690 -21.569   7.342  0.00  0.00    +0.050 C 
ATOM      7  N   LIG    1       24.390 -22.018   7.192  0.00  0.00    -0.346 NA
ATOM      8  C   LIG    1       23.194 -21.215   7.345  0.00  0.00    +0.149 C 
ATOM      9  C   LIG    1       26.202 -20.303   7.675  0.00  0.00    +0.026 C 
ATOM     10  C   LIG    1       27.589 -20.151   7.768  0.00  0.00    +0.002 C 
ATOM     11  C   LIG    1       28.444 -21.222   7.532  0.00  0.00    +0.001 C 
ATOM     12  C   LIG    1       27.930 -22.477   7.193  0.00  0.00    +0.010 C 
ATOM     13  C   LIG    1       24.394 -23.354   6.873  0.00  0.00    +0.030 C 
ATOM     14  C   LIG    1       23.191 -24.203   6.664  0.00  0.00    +0.055 C 
ATOM     15  C   LIG    1       23.590 -25.473   5.897  0.00  0.00    +0.019 C 
ENDROOT
BRANCH   1  16
ATOM     16  C   LIG    1       25.258 -27.412   5.704  0.00  0.00    +0.134 C 
BRANCH  16  19
ATOM     17  C   LIG    1       26.283 -28.231   8.509  0.00  0.00    +0.086 C 
ATOM     18  C   LIG    1       25.351 -29.019   7.663  0.00  0.00    +0.106 A 
ATOM     19  N   LIG    1       24.933 -28.641   6.407  0.00  0.00    -0.334 N 
ATOM     20  C   LIG    1       24.153 -29.649   5.908  0.00  0.00    +0.107 A 
ATOM     21  C   LIG    1       24.077 -30.578   6.916  0.00  0.00    +0.130 A 
ATOM     22  N   LIG    1       24.817 -30.179   7.996  0.00  0.00    -0.241 NA
ENDBRANCH  16  19
ENDBRANCH   1  16
TORSDOF 2
ENDMDL
