MODEL 1
REMARK VINA RESULT:      -9.8      0.000      0.000
REMARK  Name = *****
REMARK                            x       y       z     vdW  Elec       q    Type
REMARK                         _______ _______ _______ _____ _____    ______ ____
ROOT
ATOM      1  C   LIG    1       26.625 -21.465   8.080  0.00  0.00    +0.151 C 
ENDROOT
BRANCH   1   2
ATOM      2  O   LIG    1       26.149 -22.154   9.230  0.00  0.00    -0.389 OA
ATOM      3  H   LIG    1       25.429 -22.745   8.908  0.00  0.00    +0.210 HD
ENDBRANCH   1   2
BRANCH   1   4
ATOM      4  C   LIG    1       28.168 -21.523   8.044  0.00  0.00    +0.142 C 
BRANCH   4   5
ATOM      5  N   LIG    1       28.955 -20.240   8.324  0.00  0.00    -0.174 NA
BRANCH   5   6
ATOM      6  S   LIG    1       30.654 -20.295   8.782  0.00  0.00    +0.061 S 
ATOM      7  O   LIG    1       31.460 -20.560   7.575  0.00  0.00    -0.153 OA
ATOM      8  O   LIG    1       30.795 -21.268   9.839  0.00  0.00    -0.153 OA
BRANCH   6   9
ATOM      9  C   LIG    1       31.061 -18.736   9.452  0.00  0.00    +0.106 A 
ATOM     10  C   LIG    1       30.636 -18.345  10.720  0.00  0.00    +0.030 A 
ATOM     11  C   LIG    1       31.243 -17.284  11.383  0.00  0.00    +0.024 A 
ATOM     12  C   LIG    1       32.217 -16.524  10.748  0.00  0.00    +0.025 A 
ATOM     13  C   LIG    1       32.522 -16.812   9.413  0.00  0.00    +0.024 A 
ATOM     14  C   LIG    1       31.991 -17.946   8.778  0.00  0.00    +0.030 A 
BRANCH  12  15
ATOM     15  N   LIG    1       32.664 -15.353  11.367  0.00  0.00    -0.358 N 
ATOM     16  H   LIG    1       32.856 -14.597  10.716  0.00  0.00    +0.142 HD
ATOM     17  H   LIG    1       32.099 -15.052  12.152  0.00  0.00    +0.142 HD
ENDBRANCH  12  15
ENDBRANCH   6   9
ENDBRANCH   5   6
BRANCH   5  18
ATOM     18  C   LIG    1       28.497 -19.147   7.341  0.00  0.00    +0.112 C 
BRANCH  18  20
ATOM     19  C   LIG    1       27.486 -19.443   5.028  0.00  0.00    +0.008 C 
ATOM     20  C   LIG    1       28.777 -19.399   5.852  0.00  0.00    -0.002 C 
ATOM     21  C   LIG    1       29.706 -18.313   5.315  0.00  0.00    +0.008 C 
ENDBRANCH  18  20
ENDBRANCH   5  18
ENDBRANCH   4   5
ENDBRANCH   1   4
BRANCH   1  22
ATOM     22  C   LIG    1       25.973 -22.234   6.900  0.00  0.00    +0.110 C 
BRANCH  22  23
ATOM     23  N   LIG    1       26.214 -23.657   7.128  0.00  0.00    -0.275 N 
ATOM     24  H   LIG    1       26.453 -23.946   8.041  0.00  0.00    +0.152 HD
ATOM     25  C   LIG    1       25.738 -24.632   6.317  0.00  0.00    +0.401 C 
ATOM     26  O   LIG    1       25.228 -24.435   5.199  0.00  0.00    -0.227 OA
BRANCH  25  27
ATOM     27  O   LIG    1       25.900 -25.865   6.861  0.00  0.00    -0.444 OA
BRANCH  27  28
ATOM     28  C   LIG    1       25.150 -26.882   6.180  0.00  0.00    +0.212 C 
ATOM     29  C   LIG    1       24.758 -27.980   7.143  0.00  0.00    +0.090 C 
ATOM     30  C   LIG    1       24.609 -29.187   6.245  0.00  0.00    +0.257 C 
ATOM     31  O   LIG    1       24.988 -30.338   6.997  0.00  0.00    -0.351 OA
ATOM     32  C   LIG    1       25.500 -29.915   8.263  0.00  0.00    +0.163 C 
ATOM     33  O   LIG    1       25.476 -29.003   5.126  0.00  0.00    -0.347 OA
ATOM     34  C   LIG    1       25.788 -28.433   8.155  0.00  0.00    +0.040 C 
ATOM     35  C   LIG    1       25.884 -27.629   5.072  0.00  0.00    +0.208 C 
ENDBRANCH  27  28
ENDBRANCH  25  27
ENDBRANCH  22  23
BRANCH  22  36
ATOM     36  C   LIG    1       24.443 -21.907   6.756  0.00  0.00    +0.060 C 
BRANCH  36  37
ATOM     37  C   LIG    1       23.974 -20.920   5.696  0.00  0.00    -0.045 A 
ATOM     38  C   LIG    1       22.907 -20.054   5.978  0.00  0.00    +0.003 A 
ATOM     39  C   LIG    1       22.452 -19.139   5.023  0.00  0.00    +0.000 A 
ATOM     40  C   LIG    1       23.068 -19.060   3.777  0.00  0.00    +0.000 A 
ATOM     41  C   LIG    1       24.129 -19.910   3.476  0.00  0.00    +0.000 A 
ATOM     42  C   LIG    1       24.565 -20.850   4.420  0.00  0.00    +0.003 A 
ENDBRANCH  36  37
ENDBRANCH  22  36
ENDBRANCH   1  22
TORSDOF 14
ENDMDL
MODEL 2
REMARK VINA RESULT:      -9.0      3.003      9.655
REMARK  Name = *****
REMARK                            x       y       z     vdW  Elec       q    Type
REMARK                         _______ _______ _______ _____ _____    ______ ____
ROOT
ATOM      1  C   LIG    1       24.577 -24.497   7.123  0.00  0.00    +0.151 C 
ENDROOT
BRANCH   1   2
ATOM      2  O   LIG    1       23.705 -24.868   6.062  0.00  0.00    -0.389 OA
ATOM      3  H   LIG    1       22.867 -24.374   6.222  0.00  0.00    +0.210 HD
ENDBRANCH   1   2
BRANCH   1   4
ATOM      4  C   LIG    1       25.906 -25.275   6.995  0.00  0.00    +0.142 C 
BRANCH   4   5
ATOM      5  N   LIG    1       25.851 -26.788   6.771  0.00  0.00    -0.174 NA
BRANCH   5   6
ATOM      6  S   LIG    1       25.760 -27.466   5.149  0.00  0.00    +0.061 S 
ATOM      7  O   LIG    1       27.113 -27.469   4.562  0.00  0.00    -0.153 OA
ATOM      8  O   LIG    1       24.773 -26.713   4.411  0.00  0.00    -0.153 OA
BRANCH   6   9
ATOM      9  C   LIG    1       25.162 -29.098   5.302  0.00  0.00    +0.106 A 
ATOM     10  C   LIG    1       25.928 -30.202   4.934  0.00  0.00    +0.030 A 
ATOM     11  C   LIG    1       25.605 -31.479   5.380  0.00  0.00    +0.024 A 
ATOM     12  C   LIG    1       24.448 -31.693   6.116  0.00  0.00    +0.025 A 
ATOM     13  C   LIG    1       23.590 -30.610   6.340  0.00  0.00    +0.024 A 
ATOM     14  C   LIG    1       23.965 -29.305   5.986  0.00  0.00    +0.030 A 
BRANCH  12  15
ATOM     15  N   LIG    1       24.054 -33.009   6.380  0.00  0.00    -0.358 N 
ATOM     16  H   LIG    1       23.406 -33.091   7.158  0.00  0.00    +0.142 HD
ATOM     17  H   LIG    1       23.746 -33.526   5.565  0.00  0.00    +0.142 HD
ENDBRANCH  12  15
ENDBRANCH   6   9
ENDBRANCH   5   6
BRANCH   5  18
ATOM     18  C   LIG    1       26.758 -27.482   7.804  0.00  0.00    +0.112 C 
BRANCH  18  20
ATOM     19  C   LIG    1       26.290 -29.826   8.667  0.00  0.00    +0.008 C 
ATOM     20  C   LIG    1       26.057 -28.327   8.878  0.00  0.00    -0.002 C 
ATOM     21  C   LIG    1       26.549 -27.908  10.260  0.00  0.00    +0.008 C 
ENDBRANCH  18  20
ENDBRANCH   5  18
ENDBRANCH   4   5
ENDBRANCH   1   4
BRANCH   1  22
ATOM     22  C   LIG    1       24.762 -22.970   6.927  0.00  0.00    +0.110 C 
BRANCH  22  23
ATOM     23  N   LIG    1       26.019 -22.601   7.573  0.00  0.00    -0.275 N 
ATOM     24  H   LIG    1       26.850 -23.021   7.242  0.00  0.00    +0.152 HD
ATOM     25  C   LIG    1       26.188 -21.455   8.274  0.00  0.00    +0.401 C 
ATOM     26  O   LIG    1       25.265 -20.696   8.621  0.00  0.00    -0.227 OA
BRANCH  25  27
ATOM     27  O   LIG    1       27.494 -21.235   8.577  0.00  0.00    -0.444 OA
BRANCH  27  28
ATOM     28  C   LIG    1       28.317 -21.053   7.415  0.00  0.00    +0.212 C 
ATOM     29  C   LIG    1       29.578 -20.301   7.776  0.00  0.00    +0.090 C 
ATOM     30  C   LIG    1       29.964 -19.635   6.475  0.00  0.00    +0.257 C 
ATOM     31  O   LIG    1       30.592 -18.394   6.792  0.00  0.00    -0.351 OA
ATOM     32  C   LIG    1       30.496 -18.173   8.201  0.00  0.00    +0.163 C 
ATOM     33  O   LIG    1       28.767 -19.422   5.725  0.00  0.00    -0.347 OA
ATOM     34  C   LIG    1       29.455 -19.135   8.733  0.00  0.00    +0.040 C 
ATOM     35  C   LIG    1       27.715 -20.217   6.290  0.00  0.00    +0.208 C 
ENDBRANCH  27  28
ENDBRANCH  25  27
ENDBRANCH  22  23
BRANCH  22  36
ATOM     36  C   LIG    1       24.732 -22.562   5.410  0.00  0.00    +0.060 C 
BRANCH  36  37
ATOM     37  C   LIG    1       24.113 -21.234   4.992  0.00  0.00    -0.045 A 
ATOM     38  C   LIG    1       23.028 -20.717   5.715  0.00  0.00    +0.003 A 
ATOM     39  C   LIG    1       22.437 -19.502   5.355  0.00  0.00    +0.000 A 
ATOM     40  C   LIG    1       22.933 -18.773   4.276  0.00  0.00    +0.000 A 
ATOM     41  C   LIG    1       24.008 -19.269   3.544  0.00  0.00    +0.000 A 
ATOM     42  C   LIG    1       24.581 -20.502   3.885  0.00  0.00    +0.003 A 
ENDBRANCH  36  37
ENDBRANCH  22  36
ENDBRANCH   1  22
TORSDOF 14
ENDMDL
MODEL 3
REMARK VINA RESULT:      -8.5      3.376      8.482
REMARK  Name = *****
REMARK                            x       y       z     vdW  Elec       q    Type
REMARK                         _______ _______ _______ _____ _____    ______ ____
ROOT
ATOM      1  C   LIG    1       25.007 -20.114   3.754  0.00  0.00    +0.151 C 
ENDROOT
BRANCH   1   2
ATOM      2  O   LIG    1       25.578 -20.458   2.498  0.00  0.00    -0.389 OA
ATOM      3  H   LIG    1       26.512 -20.143   2.535  0.00  0.00    +0.210 HD
ENDBRANCH   1   2
BRANCH   1   4
ATOM      4  C   LIG    1       24.962 -21.364   4.662  0.00  0.00    +0.142 C 
BRANCH   4   5
ATOM      5  N   LIG    1       23.752 -21.559   5.579  0.00  0.00    -0.174 NA
BRANCH   5   6
ATOM      6  S   LIG    1       23.721 -22.841   6.784  0.00  0.00    +0.061 S 
ATOM      7  O   LIG    1       22.341 -23.352   6.895  0.00  0.00    -0.153 OA
ATOM      8  O   LIG    1       24.278 -22.313   8.007  0.00  0.00    -0.153 OA
BRANCH   6   9
ATOM      9  C   LIG    1       24.790 -24.102   6.228  0.00  0.00    +0.106 A 
ATOM     10  C   LIG    1       25.697 -24.730   7.079  0.00  0.00    +0.030 A 
ATOM     11  C   LIG    1       26.276 -25.947   6.737  0.00  0.00    +0.024 A 
ATOM     12  C   LIG    1       26.044 -26.509   5.489  0.00  0.00    +0.025 A 
ATOM     13  C   LIG    1       25.268 -25.793   4.569  0.00  0.00    +0.024 A 
ATOM     14  C   LIG    1       24.595 -24.621   4.948  0.00  0.00    +0.030 A 
BRANCH  12  15
ATOM     15  N   LIG    1       26.791 -27.627   5.106  0.00  0.00    -0.358 N 
ATOM     16  H   LIG    1       27.070 -27.614   4.129  0.00  0.00    +0.142 HD
ATOM     17  H   LIG    1       27.563 -27.847   5.725  0.00  0.00    +0.142 HD
ENDBRANCH  12  15
ENDBRANCH   6   9
ENDBRANCH   5   6
BRANCH   5  18
ATOM     18  C   LIG    1       23.188 -20.179   5.964  0.00  0.00    +0.112 C 
BRANCH  18  20
ATOM     19  C   LIG    1       22.212 -18.516   4.309  0.00  0.00    +0.008 C 
ATOM     20  C   LIG    1       21.929 -19.718   5.216  0.00  0.00    -0.002 C 
ATOM     21  C   LIG    1       21.369 -20.875   4.394  0.00  0.00    +0.008 C 
ENDBRANCH  18  20
ENDBRANCH   5  18
ENDBRANCH   4   5
ENDBRANCH   1   4
BRANCH   1  22
ATOM     22  C   LIG    1       25.959 -19.018   4.299  0.00  0.00    +0.110 C 
BRANCH  22  23
ATOM     23  N   LIG    1       27.166 -19.691   4.773  0.00  0.00    -0.275 N 
ATOM     24  H   LIG    1       27.983 -19.621   4.221  0.00  0.00    +0.152 HD
ATOM     25  C   LIG    1       27.369 -20.033   6.068  0.00  0.00    +0.401 C 
ATOM     26  O   LIG    1       26.493 -20.005   6.951  0.00  0.00    -0.227 OA
BRANCH  25  27
ATOM     27  O   LIG    1       28.647 -20.434   6.290  0.00  0.00    -0.444 OA
BRANCH  27  28
ATOM     28  C   LIG    1       28.986 -20.482   7.684  0.00  0.00    +0.212 C 
ATOM     29  C   LIG    1       29.839 -19.291   8.059  0.00  0.00    +0.090 C 
ATOM     30  C   LIG    1       30.623 -19.793   9.251  0.00  0.00    +0.257 C 
ATOM     31  O   LIG    1       31.899 -19.156   9.231  0.00  0.00    -0.351 OA
ATOM     32  C   LIG    1       32.018 -18.396   8.025  0.00  0.00    +0.163 C 
ATOM     33  O   LIG    1       30.760 -21.208   9.114  0.00  0.00    -0.347 OA
ATOM     34  C   LIG    1       30.922 -18.866   7.092  0.00  0.00    +0.040 C 
ATOM     35  C   LIG    1       29.827 -21.674   8.130  0.00  0.00    +0.208 C 
ENDBRANCH  27  28
ENDBRANCH  25  27
ENDBRANCH  22  23
BRANCH  22  36
ATOM     36  C   LIG    1       26.277 -17.922   3.219  0.00  0.00    +0.060 C 
BRANCH  36  37
ATOM     37  C   LIG    1       26.163 -16.446   3.577  0.00  0.00    -0.045 A 
ATOM     38  C   LIG    1       24.896 -15.851   3.671  0.00  0.00    +0.003 A 
ATOM     39  C   LIG    1       24.759 -14.498   3.996  0.00  0.00    +0.000 A 
ATOM     40  C   LIG    1       25.886 -13.720   4.253  0.00  0.00    +0.000 A 
ATOM     41  C   LIG    1       27.153 -14.291   4.165  0.00  0.00    +0.000 A 
ATOM     42  C   LIG    1       27.293 -15.639   3.808  0.00  0.00    +0.003 A 
ENDBRANCH  36  37
ENDBRANCH  22  36
ENDBRANCH   1  22
TORSDOF 14
ENDMDL
MODEL 4
REMARK VINA RESULT:      -8.3      3.253     10.092
REMARK  Name = *****
REMARK                            x       y       z     vdW  Elec       q    Type
REMARK                         _______ _______ _______ _____ _____    ______ ____
ROOT
ATOM      1  C   LIG    1       24.998 -25.840   6.422  0.00  0.00    +0.151 C 
ENDROOT
BRANCH   1   2
ATOM      2  O   LIG    1       25.430 -25.531   5.102  0.00  0.00    -0.389 OA
ATOM      3  H   LIG    1       24.612 -25.509   4.552  0.00  0.00    +0.210 HD
ENDBRANCH   1   2
BRANCH   1   4
ATOM      4  C   LIG    1       26.067 -26.704   7.128  0.00  0.00    +0.142 C 
BRANCH   4   5
ATOM      5  N   LIG    1       25.648 -28.058   7.706  0.00  0.00    -0.174 NA
BRANCH   5   6
ATOM      6  S   LIG    1       24.833 -29.260   6.712  0.00  0.00    +0.061 S 
ATOM      7  O   LIG    1       25.763 -29.710   5.658  0.00  0.00    -0.153 OA
ATOM      8  O   LIG    1       23.601 -28.678   6.235  0.00  0.00    -0.153 OA
BRANCH   6   9
ATOM      9  C   LIG    1       24.409 -30.593   7.755  0.00  0.00    +0.106 A 
ATOM     10  C   LIG    1       25.079 -31.814   7.702  0.00  0.00    +0.030 A 
ATOM     11  C   LIG    1       24.988 -32.727   8.746  0.00  0.00    +0.024 A 
ATOM     12  C   LIG    1       24.141 -32.485   9.819  0.00  0.00    +0.025 A 
ATOM     13  C   LIG    1       23.339 -31.337   9.790  0.00  0.00    +0.024 A 
ATOM     14  C   LIG    1       23.507 -30.363   8.793  0.00  0.00    +0.030 A 
BRANCH  12  15
ATOM     15  N   LIG    1       23.928 -33.505  10.750  0.00  0.00    -0.358 N 
ATOM     16  H   LIG    1       24.247 -33.275  11.687  0.00  0.00    +0.142 HD
ATOM     17  H   LIG    1       22.989 -33.887  10.747  0.00  0.00    +0.142 HD
ENDBRANCH  12  15
ENDBRANCH   6   9
ENDBRANCH   5   6
BRANCH   5  18
ATOM     18  C   LIG    1       26.727 -28.535   8.696  0.00  0.00    +0.112 C 
BRANCH  18  20
ATOM     19  C   LIG    1       26.818 -30.148  10.658  0.00  0.00    +0.008 C 
ATOM     20  C   LIG    1       26.265 -28.819  10.133  0.00  0.00    -0.002 C 
ATOM     21  C   LIG    1       26.697 -27.674  11.044  0.00  0.00    +0.008 C 
ENDBRANCH  18  20
ENDBRANCH   5  18
ENDBRANCH   4   5
ENDBRANCH   1   4
BRANCH   1  22
ATOM     22  C   LIG    1       24.826 -24.448   7.084  0.00  0.00    +0.110 C 
BRANCH  22  23
ATOM     23  N   LIG    1       26.024 -23.671   6.771  0.00  0.00    -0.275 N 
ATOM     24  H   LIG    1       26.330 -23.650   5.833  0.00  0.00    +0.152 HD
ATOM     25  C   LIG    1       26.486 -22.667   7.555  0.00  0.00    +0.401 C 
ATOM     26  O   LIG    1       26.082 -22.426   8.707  0.00  0.00    -0.227 OA
BRANCH  25  27
ATOM     27  O   LIG    1       27.467 -21.957   6.940  0.00  0.00    -0.444 OA
BRANCH  27  28
ATOM     28  C   LIG    1       28.186 -21.098   7.837  0.00  0.00    +0.212 C 
ATOM     29  C   LIG    1       28.324 -19.714   7.244  0.00  0.00    +0.090 C 
ATOM     30  C   LIG    1       29.574 -19.181   7.905  0.00  0.00    +0.257 C 
ATOM     31  O   LIG    1       30.222 -18.315   6.975  0.00  0.00    -0.351 OA
ATOM     32  C   LIG    1       29.534 -18.383   5.724  0.00  0.00    +0.163 C 
ATOM     33  O   LIG    1       30.406 -20.298   8.223  0.00  0.00    -0.347 OA
ATOM     34  C   LIG    1       28.645 -19.607   5.769  0.00  0.00    +0.040 C 
ATOM     35  C   LIG    1       29.626 -21.499   8.141  0.00  0.00    +0.208 C 
ENDBRANCH  27  28
ENDBRANCH  25  27
ENDBRANCH  22  23
BRANCH  22  36
ATOM     36  C   LIG    1       23.512 -23.727   6.612  0.00  0.00    +0.060 C 
BRANCH  36  37
ATOM     37  C   LIG    1       23.592 -22.360   5.947  0.00  0.00    -0.045 A 
ATOM     38  C   LIG    1       24.298 -22.214   4.744  0.00  0.00    +0.003 A 
ATOM     39  C   LIG    1       24.392 -20.971   4.110  0.00  0.00    +0.000 A 
ATOM     40  C   LIG    1       23.763 -19.856   4.658  0.00  0.00    +0.000 A 
ATOM     41  C   LIG    1       23.056 -19.978   5.851  0.00  0.00    +0.000 A 
ATOM     42  C   LIG    1       22.989 -21.216   6.504  0.00  0.00    +0.003 A 
ENDBRANCH  36  37
ENDBRANCH  22  36
ENDBRANCH   1  22
TORSDOF 14
ENDMDL
MODEL 5
REMARK VINA RESULT:      -8.2      3.224      9.661
REMARK  Name = *****
REMARK                            x       y       z     vdW  Elec       q    Type
REMARK                         _______ _______ _______ _____ _____    ______ ____
ROOT
ATOM      1  C   LIG    1       25.399 -26.079   6.565  0.00  0.00    +0.151 C 
ENDROOT
BRANCH   1   2
ATOM      2  O   LIG    1       26.289 -25.824   5.486  0.00  0.00    -0.389 OA
ATOM      3  H   LIG    1       25.729 -25.815   4.674  0.00  0.00    +0.210 HD
ENDBRANCH   1   2
BRANCH   1   4
ATOM      4  C   LIG    1       26.090 -26.992   7.602  0.00  0.00    +0.142 C 
BRANCH   4   5
ATOM      5  N   LIG    1       25.732 -28.480   7.620  0.00  0.00    -0.174 NA
BRANCH   5   6
ATOM      6  S   LIG    1       26.183 -29.509   8.974  0.00  0.00    +0.061 S 
ATOM      7  O   LIG    1       27.373 -28.933   9.630  0.00  0.00    -0.153 OA
ATOM      8  O   LIG    1       26.351 -30.852   8.472  0.00  0.00    -0.153 OA
BRANCH   6   9
ATOM      9  C   LIG    1       24.834 -29.532  10.080  0.00  0.00    +0.106 A 
ATOM     10  C   LIG    1       23.652 -30.209   9.788  0.00  0.00    +0.030 A 
ATOM     11  C   LIG    1       22.741 -30.524  10.790  0.00  0.00    +0.024 A 
ATOM     12  C   LIG    1       22.941 -30.073  12.088  0.00  0.00    +0.025 A 
ATOM     13  C   LIG    1       24.042 -29.248  12.345  0.00  0.00    +0.024 A 
ATOM     14  C   LIG    1       25.019 -29.019  11.364  0.00  0.00    +0.030 A 
BRANCH  12  15
ATOM     15  N   LIG    1       21.915 -30.240  13.023  0.00  0.00    -0.358 N 
ATOM     16  H   LIG    1       21.957 -31.125  13.520  0.00  0.00    +0.142 HD
ATOM     17  H   LIG    1       21.784 -29.453  13.647  0.00  0.00    +0.142 HD
ENDBRANCH  12  15
ENDBRANCH   6   9
ENDBRANCH   5   6
BRANCH   5  18
ATOM     18  C   LIG    1       24.341 -28.669   6.989  0.00  0.00    +0.112 C 
BRANCH  18  20
ATOM     19  C   LIG    1       25.590 -29.727   5.045  0.00  0.00    +0.008 C 
ATOM     20  C   LIG    1       24.253 -29.621   5.786  0.00  0.00    -0.002 C 
ATOM     21  C   LIG    1       23.803 -31.001   6.258  0.00  0.00    +0.008 C 
ENDBRANCH  18  20
ENDBRANCH   5  18
ENDBRANCH   4   5
ENDBRANCH   1   4
BRANCH   1  22
ATOM     22  C   LIG    1       25.094 -24.665   7.127  0.00  0.00    +0.110 C 
BRANCH  22  23
ATOM     23  N   LIG    1       26.249 -23.823   6.825  0.00  0.00    -0.275 N 
ATOM     24  H   LIG    1       26.612 -23.847   5.907  0.00  0.00    +0.152 HD
ATOM     25  C   LIG    1       26.586 -22.732   7.554  0.00  0.00    +0.401 C 
ATOM     26  O   LIG    1       26.093 -22.440   8.658  0.00  0.00    -0.227 OA
BRANCH  25  27
ATOM     27  O   LIG    1       27.550 -21.995   6.944  0.00  0.00    -0.444 OA
BRANCH  27  28
ATOM     28  C   LIG    1       28.268 -21.147   7.852  0.00  0.00    +0.212 C 
ATOM     29  C   LIG    1       28.377 -19.748   7.291  0.00  0.00    +0.090 C 
ATOM     30  C   LIG    1       29.628 -19.211   7.948  0.00  0.00    +0.257 C 
ATOM     31  O   LIG    1       30.251 -18.314   7.031  0.00  0.00    -0.351 OA
ATOM     32  C   LIG    1       29.547 -18.362   5.787  0.00  0.00    +0.163 C 
ATOM     33  O   LIG    1       30.481 -20.322   8.229  0.00  0.00    -0.347 OA
ATOM     34  C   LIG    1       28.677 -19.600   5.815  0.00  0.00    +0.040 C 
ATOM     35  C   LIG    1       29.718 -21.533   8.127  0.00  0.00    +0.208 C 
ENDBRANCH  27  28
ENDBRANCH  25  27
ENDBRANCH  22  23
BRANCH  22  36
ATOM     36  C   LIG    1       23.760 -24.074   6.544  0.00  0.00    +0.060 C 
BRANCH  36  37
ATOM     37  C   LIG    1       23.742 -22.665   5.966  0.00  0.00    -0.045 A 
ATOM     38  C   LIG    1       23.070 -21.643   6.651  0.00  0.00    +0.003 A 
ATOM     39  C   LIG    1       23.034 -20.340   6.144  0.00  0.00    +0.000 A 
ATOM     40  C   LIG    1       23.687 -20.032   4.953  0.00  0.00    +0.000 A 
ATOM     41  C   LIG    1       24.361 -21.032   4.258  0.00  0.00    +0.000 A 
ATOM     42  C   LIG    1       24.370 -22.345   4.747  0.00  0.00    +0.003 A 
ENDBRANCH  36  37
ENDBRANCH  22  36
ENDBRANCH   1  22
TORSDOF 14
ENDMDL
MODEL 6
REMARK VINA RESULT:      -8.0      1.393      2.043
REMARK  Name = *****
REMARK                            x       y       z     vdW  Elec       q    Type
REMARK                         _______ _______ _______ _____ _____    ______ ____
ROOT
ATOM      1  C   LIG    1       26.828 -21.070   8.310  0.00  0.00    +0.151 C 
ENDROOT
BRANCH   1   2
ATOM      2  O   LIG    1       27.561 -22.154   8.866  0.00  0.00    -0.389 OA
ATOM      3  H   LIG    1       28.075 -22.539   8.117  0.00  0.00    +0.210 HD
ENDBRANCH   1   2
BRANCH   1   4
ATOM      4  C   LIG    1       27.798 -19.927   7.935  0.00  0.00    +0.142 C 
BRANCH   4   5
ATOM      5  N   LIG    1       29.177 -20.291   7.377  0.00  0.00    -0.174 NA
BRANCH   5   6
ATOM      6  S   LIG    1       30.342 -19.045   6.945  0.00  0.00    +0.061 S 
ATOM      7  O   LIG    1       29.736 -18.163   5.929  0.00  0.00    -0.153 OA
ATOM      8  O   LIG    1       31.561 -19.702   6.538  0.00  0.00    -0.153 OA
BRANCH   6   9
ATOM      9  C   LIG    1       30.697 -18.142   8.396  0.00  0.00    +0.106 A 
ATOM     10  C   LIG    1       29.748 -17.950   9.396  0.00  0.00    +0.030 A 
ATOM     11  C   LIG    1       30.124 -17.555  10.676  0.00  0.00    +0.024 A 
ATOM     12  C   LIG    1       31.448 -17.241  10.952  0.00  0.00    +0.025 A 
ATOM     13  C   LIG    1       32.374 -17.271   9.902  0.00  0.00    +0.024 A 
ATOM     14  C   LIG    1       32.019 -17.771   8.639  0.00  0.00    +0.030 A 
BRANCH  12  15
ATOM     15  N   LIG    1       31.758 -16.665  12.187  0.00  0.00    -0.358 N 
ATOM     16  H   LIG    1       30.939 -16.394  12.726  0.00  0.00    +0.142 HD
ATOM     17  H   LIG    1       32.426 -17.189  12.739  0.00  0.00    +0.142 HD
ENDBRANCH  12  15
ENDBRANCH   6   9
ENDBRANCH   5   6
BRANCH   5  18
ATOM     18  C   LIG    1       29.688 -21.555   8.092  0.00  0.00    +0.112 C 
BRANCH  18  20
ATOM     19  C   LIG    1       30.864 -21.347  10.335  0.00  0.00    +0.008 C 
ATOM     20  C   LIG    1       31.038 -21.438   8.816  0.00  0.00    -0.002 C 
ATOM     21  C   LIG    1       31.916 -22.634   8.458  0.00  0.00    +0.008 C 
ENDBRANCH  18  20
ENDBRANCH   5  18
ENDBRANCH   4   5
ENDBRANCH   1   4
BRANCH   1  22
ATOM     22  C   LIG    1       26.137 -21.694   7.070  0.00  0.00    +0.110 C 
BRANCH  22  23
ATOM     23  N   LIG    1       26.306 -23.142   7.166  0.00  0.00    -0.275 N 
ATOM     24  H   LIG    1       26.600 -23.518   8.030  0.00  0.00    +0.152 HD
ATOM     25  C   LIG    1       25.704 -24.019   6.327  0.00  0.00    +0.401 C 
ATOM     26  O   LIG    1       25.117 -23.703   5.276  0.00  0.00    -0.227 OA
BRANCH  25  27
ATOM     27  O   LIG    1       25.833 -25.300   6.759  0.00  0.00    -0.444 OA
BRANCH  27  28
ATOM     28  C   LIG    1       25.121 -26.243   5.943  0.00  0.00    +0.212 C 
ATOM     29  C   LIG    1       24.681 -27.428   6.771  0.00  0.00    +0.090 C 
ATOM     30  C   LIG    1       24.581 -28.540   5.751  0.00  0.00    +0.257 C 
ATOM     31  O   LIG    1       24.921 -29.761   6.405  0.00  0.00    -0.351 OA
ATOM     32  C   LIG    1       25.366 -29.467   7.731  0.00  0.00    +0.163 C 
ATOM     33  O   LIG    1       25.506 -28.250   4.702  0.00  0.00    -0.347 OA
ATOM     34  C   LIG    1       25.657 -27.983   7.785  0.00  0.00    +0.040 C 
ATOM     35  C   LIG    1       25.914 -26.879   4.806  0.00  0.00    +0.208 C 
ENDBRANCH  27  28
ENDBRANCH  25  27
ENDBRANCH  22  23
BRANCH  22  36
ATOM     36  C   LIG    1       24.624 -21.279   6.967  0.00  0.00    +0.060 C 
BRANCH  36  37
ATOM     37  C   LIG    1       24.149 -20.423   5.800  0.00  0.00    -0.045 A 
ATOM     38  C   LIG    1       22.834 -19.936   5.788  0.00  0.00    +0.003 A 
ATOM     39  C   LIG    1       22.368 -19.150   4.730  0.00  0.00    +0.000 A 
ATOM     40  C   LIG    1       23.216 -18.820   3.675  0.00  0.00    +0.000 A 
ATOM     41  C   LIG    1       24.525 -19.292   3.668  0.00  0.00    +0.000 A 
ATOM     42  C   LIG    1       24.983 -20.107   4.711  0.00  0.00    +0.003 A 
ENDBRANCH  36  37
ENDBRANCH  22  36
ENDBRANCH   1  22
TORSDOF 14
ENDMDL
MODEL 7
REMARK VINA RESULT:      -7.8      3.332      9.118
REMARK  Name = *****
REMARK                            x       y       z     vdW  Elec       q    Type
REMARK                         _______ _______ _______ _____ _____    ______ ____
ROOT
ATOM      1  C   LIG    1       25.604 -26.310   6.610  0.00  0.00    +0.151 C 
ENDROOT
BRANCH   1   2
ATOM      2  O   LIG    1       26.777 -26.079   5.840  0.00  0.00    -0.389 OA
ATOM      3  H   LIG    1       26.508 -26.204   4.900  0.00  0.00    +0.210 HD
ENDBRANCH   1   2
BRANCH   1   4
ATOM      4  C   LIG    1       25.914 -27.323   7.735  0.00  0.00    +0.142 C 
BRANCH   4   5
ATOM      5  N   LIG    1       25.442 -28.770   7.567  0.00  0.00    -0.174 NA
BRANCH   5   6
ATOM      6  S   LIG    1       25.279 -29.841   8.954  0.00  0.00    +0.061 S 
ATOM      7  O   LIG    1       25.825 -31.164   8.596  0.00  0.00    -0.153 OA
ATOM      8  O   LIG    1       23.892 -29.838   9.354  0.00  0.00    -0.153 OA
BRANCH   6   9
ATOM      9  C   LIG    1       26.199 -29.141  10.261  0.00  0.00    +0.106 A 
ATOM     10  C   LIG    1       25.592 -28.413  11.282  0.00  0.00    +0.030 A 
ATOM     11  C   LIG    1       26.255 -28.170  12.480  0.00  0.00    +0.024 A 
ATOM     12  C   LIG    1       27.578 -28.560  12.642  0.00  0.00    +0.025 A 
ATOM     13  C   LIG    1       28.240 -29.140  11.554  0.00  0.00    +0.024 A 
ATOM     14  C   LIG    1       27.545 -29.483  10.383  0.00  0.00    +0.030 A 
BRANCH  12  15
ATOM     15  N   LIG    1       28.270 -28.131  13.778  0.00  0.00    -0.358 N 
ATOM     16  H   LIG    1       28.797 -28.869  14.236  0.00  0.00    +0.142 HD
ATOM     17  H   LIG    1       28.821 -27.291  13.643  0.00  0.00    +0.142 HD
ENDBRANCH  12  15
ENDBRANCH   6   9
ENDBRANCH   5   6
BRANCH   5  18
ATOM     18  C   LIG    1       24.361 -28.821   6.472  0.00  0.00    +0.112 C 
BRANCH  18  20
ATOM     19  C   LIG    1       25.871 -30.415   5.193  0.00  0.00    +0.008 C 
ATOM     20  C   LIG    1       24.426 -30.004   5.495  0.00  0.00    -0.002 C 
ATOM     21  C   LIG    1       23.654 -31.187   6.072  0.00  0.00    +0.008 C 
ENDBRANCH  18  20
ENDBRANCH   5  18
ENDBRANCH   4   5
ENDBRANCH   1   4
BRANCH   1  22
ATOM     22  C   LIG    1       25.245 -24.905   7.158  0.00  0.00    +0.110 C 
BRANCH  22  23
ATOM     23  N   LIG    1       26.372 -24.024   6.858  0.00  0.00    -0.275 N 
ATOM     24  H   LIG    1       26.757 -24.058   5.949  0.00  0.00    +0.152 HD
ATOM     25  C   LIG    1       26.648 -22.901   7.563  0.00  0.00    +0.401 C 
ATOM     26  O   LIG    1       26.117 -22.599   8.647  0.00  0.00    -0.227 OA
BRANCH  25  27
ATOM     27  O   LIG    1       27.595 -22.142   6.954  0.00  0.00    -0.444 OA
BRANCH  27  28
ATOM     28  C   LIG    1       28.244 -21.228   7.849  0.00  0.00    +0.212 C 
ATOM     29  C   LIG    1       28.288 -19.842   7.246  0.00  0.00    +0.090 C 
ATOM     30  C   LIG    1       29.493 -19.216   7.912  0.00  0.00    +0.257 C 
ATOM     31  O   LIG    1       30.085 -18.314   6.980  0.00  0.00    -0.351 OA
ATOM     32  C   LIG    1       29.414 -18.440   5.724  0.00  0.00    +0.163 C 
ATOM     33  O   LIG    1       30.399 -20.269   8.246  0.00  0.00    -0.347 OA
ATOM     34  C   LIG    1       28.613 -19.723   5.773  0.00  0.00    +0.040 C 
ATOM     35  C   LIG    1       29.706 -21.523   8.167  0.00  0.00    +0.208 C 
ENDBRANCH  27  28
ENDBRANCH  25  27
ENDBRANCH  22  23
BRANCH  22  36
ATOM     36  C   LIG    1       23.895 -24.365   6.561  0.00  0.00    +0.060 C 
BRANCH  36  37
ATOM     37  C   LIG    1       23.782 -22.907   6.136  0.00  0.00    -0.045 A 
ATOM     38  C   LIG    1       24.314 -22.500   4.904  0.00  0.00    +0.003 A 
ATOM     39  C   LIG    1       24.228 -21.168   4.487  0.00  0.00    +0.000 A 
ATOM     40  C   LIG    1       23.588 -20.223   5.286  0.00  0.00    +0.000 A 
ATOM     41  C   LIG    1       23.052 -20.606   6.513  0.00  0.00    +0.000 A 
ATOM     42  C   LIG    1       23.167 -21.934   6.946  0.00  0.00    +0.003 A 
ENDBRANCH  36  37
ENDBRANCH  22  36
ENDBRANCH   1  22
TORSDOF 14
ENDMDL
MODEL 8
REMARK VINA RESULT:      -7.8      4.922      9.937
REMARK  Name = *****
REMARK                            x       y       z     vdW  Elec       q    Type
REMARK                         _______ _______ _______ _____ _____    ______ ____
ROOT
ATOM      1  C   LIG    1       25.916 -28.823   8.001  0.00  0.00    +0.151 C 
ENDROOT
BRANCH   1   2
ATOM      2  O   LIG    1       26.778 -27.785   8.451  0.00  0.00    -0.389 OA
ATOM      3  H   LIG    1       27.560 -27.809   7.851  0.00  0.00    +0.210 HD
ENDBRANCH   1   2
BRANCH   1   4
ATOM      4  C   LIG    1       25.005 -29.280   9.162  0.00  0.00    +0.142 C 
BRANCH   4   5
ATOM      5  N   LIG    1       25.576 -30.245  10.204  0.00  0.00    -0.174 NA
BRANCH   5   6
ATOM      6  S   LIG    1       26.715 -29.695  11.427  0.00  0.00    +0.061 S 
ATOM      7  O   LIG    1       28.024 -29.467  10.786  0.00  0.00    -0.153 OA
ATOM      8  O   LIG    1       26.718 -30.665  12.496  0.00  0.00    -0.153 OA
BRANCH   6   9
ATOM      9  C   LIG    1       26.093 -28.202  12.082  0.00  0.00    +0.106 A 
ATOM     10  C   LIG    1       24.856 -28.135  12.719  0.00  0.00    +0.030 A 
ATOM     11  C   LIG    1       24.528 -27.059  13.537  0.00  0.00    +0.024 A 
ATOM     12  C   LIG    1       25.390 -25.976  13.650  0.00  0.00    +0.025 A 
ATOM     13  C   LIG    1       26.556 -25.968  12.876  0.00  0.00    +0.024 A 
ATOM     14  C   LIG    1       26.941 -27.096  12.135  0.00  0.00    +0.030 A 
BRANCH  12  15
ATOM     15  N   LIG    1       24.946 -24.833  14.322  0.00  0.00    -0.358 N 
ATOM     16  H   LIG    1       23.934 -24.740  14.341  0.00  0.00    +0.142 HD
ATOM     17  H   LIG    1       25.363 -24.694  15.234  0.00  0.00    +0.142 HD
ENDBRANCH  12  15
ENDBRANCH   6   9
ENDBRANCH   5   6
BRANCH   5  18
ATOM     18  C   LIG    1       24.477 -31.239  10.622  0.00  0.00    +0.112 C 
BRANCH  18  20
ATOM     19  C   LIG    1       22.404 -32.225   9.531  0.00  0.00    +0.008 C 
ATOM     20  C   LIG    1       23.061 -30.961  10.094  0.00  0.00    -0.002 C 
ATOM     21  C   LIG    1       22.203 -30.377  11.213  0.00  0.00    +0.008 C 
ENDBRANCH  18  20
ENDBRANCH   5  18
ENDBRANCH   4   5
ENDBRANCH   1   4
BRANCH   1  22
ATOM     22  C   LIG    1       25.120 -28.161   6.846  0.00  0.00    +0.110 C 
BRANCH  22  23
ATOM     23  N   LIG    1       25.591 -26.783   6.732  0.00  0.00    -0.275 N 
ATOM     24  H   LIG    1       26.566 -26.624   6.748  0.00  0.00    +0.152 HD
ATOM     25  C   LIG    1       24.850 -25.784   6.196  0.00  0.00    +0.401 C 
ATOM     26  O   LIG    1       23.636 -25.867   5.933  0.00  0.00    -0.227 OA
BRANCH  25  27
ATOM     27  O   LIG    1       25.585 -24.660   5.995  0.00  0.00    -0.444 OA
BRANCH  27  28
ATOM     28  C   LIG    1       25.666 -23.825   7.160  0.00  0.00    +0.212 C 
ATOM     29  C   LIG    1       24.411 -22.995   7.300  0.00  0.00    +0.090 C 
ATOM     30  C   LIG    1       24.884 -21.786   8.076  0.00  0.00    +0.257 C 
ATOM     31  O   LIG    1       24.112 -20.666   7.647  0.00  0.00    -0.351 OA
ATOM     32  C   LIG    1       23.284 -21.066   6.552  0.00  0.00    +0.163 C 
ATOM     33  O   LIG    1       26.267 -21.595   7.777  0.00  0.00    -0.347 OA
ATOM     34  C   LIG    1       23.823 -22.387   6.046  0.00  0.00    +0.040 C 
ATOM     35  C   LIG    1       26.782 -22.785   7.163  0.00  0.00    +0.208 C 
ENDBRANCH  27  28
ENDBRANCH  25  27
ENDBRANCH  22  23
BRANCH  22  36
ATOM     36  C   LIG    1       25.269 -28.952   5.497  0.00  0.00    +0.060 C 
BRANCH  36  37
ATOM     37  C   LIG    1       25.049 -30.459   5.471  0.00  0.00    -0.045 A 
ATOM     38  C   LIG    1       23.894 -31.001   6.053  0.00  0.00    +0.003 A 
ATOM     39  C   LIG    1       23.665 -32.380   6.048  0.00  0.00    +0.000 A 
ATOM     40  C   LIG    1       24.577 -33.241   5.441  0.00  0.00    +0.000 A 
ATOM     41  C   LIG    1       25.730 -32.723   4.857  0.00  0.00    +0.000 A 
ATOM     42  C   LIG    1       25.977 -31.345   4.891  0.00  0.00    +0.003 A 
ENDBRANCH  36  37
ENDBRANCH  22  36
ENDBRANCH   1  22
TORSDOF 14
ENDMDL
MODEL 9
REMARK VINA RESULT:      -7.7      5.082     10.794
REMARK  Name = *****
REMARK                            x       y       z     vdW  Elec       q    Type
REMARK                         _______ _______ _______ _____ _____    ______ ____
ROOT
ATOM      1  C   LIG    1       25.829 -28.991   8.181  0.00  0.00    +0.151 C 
ENDROOT
BRANCH   1   2
ATOM      2  O   LIG    1       26.644 -27.945   8.695  0.00  0.00    -0.389 OA
ATOM      3  H   LIG    1       26.412 -27.143   8.169  0.00  0.00    +0.210 HD
ENDBRANCH   1   2
BRANCH   1   4
ATOM      4  C   LIG    1       24.886 -29.505   9.292  0.00  0.00    +0.142 C 
BRANCH   4   5
ATOM      5  N   LIG    1       25.503 -30.145  10.538  0.00  0.00    -0.174 NA
BRANCH   5   6
ATOM      6  S   LIG    1       25.661 -29.243  12.041  0.00  0.00    +0.061 S 
ATOM      7  O   LIG    1       26.487 -28.047  11.790  0.00  0.00    -0.153 OA
ATOM      8  O   LIG    1       26.177 -30.144  13.044  0.00  0.00    -0.153 OA
BRANCH   6   9
ATOM      9  C   LIG    1       24.055 -28.777  12.538  0.00  0.00    +0.106 A 
ATOM     10  C   LIG    1       23.798 -27.551  13.147  0.00  0.00    +0.030 A 
ATOM     11  C   LIG    1       22.506 -27.039  13.211  0.00  0.00    +0.024 A 
ATOM     12  C   LIG    1       21.429 -27.793  12.762  0.00  0.00    +0.025 A 
ATOM     13  C   LIG    1       21.671 -29.095  12.307  0.00  0.00    +0.024 A 
ATOM     14  C   LIG    1       22.980 -29.572  12.140  0.00  0.00    +0.030 A 
BRANCH  12  15
ATOM     15  N   LIG    1       20.135 -27.333  13.018  0.00  0.00    -0.358 N 
ATOM     16  H   LIG    1       19.741 -26.782  12.260  0.00  0.00    +0.142 HD
ATOM     17  H   LIG    1       19.495 -28.045  13.350  0.00  0.00    +0.142 HD
ENDBRANCH  12  15
ENDBRANCH   6   9
ENDBRANCH   5   6
BRANCH   5  18
ATOM     18  C   LIG    1       25.068 -31.620  10.612  0.00  0.00    +0.112 C 
BRANCH  18  20
ATOM     19  C   LIG    1       26.714 -32.633   8.962  0.00  0.00    +0.008 C 
ATOM     20  C   LIG    1       25.238 -32.452   9.332  0.00  0.00    -0.002 C 
ATOM     21  C   LIG    1       24.572 -33.813   9.515  0.00  0.00    +0.008 C 
ENDBRANCH  18  20
ENDBRANCH   5  18
ENDBRANCH   4   5
ENDBRANCH   1   4
BRANCH   1  22
ATOM     22  C   LIG    1       25.061 -28.315   7.015  0.00  0.00    +0.110 C 
BRANCH  22  23
ATOM     23  N   LIG    1       25.574 -26.952   6.894  0.00  0.00    -0.275 N 
ATOM     24  H   LIG    1       26.551 -26.818   6.958  0.00  0.00    +0.152 HD
ATOM     25  C   LIG    1       24.889 -25.949   6.295  0.00  0.00    +0.401 C 
ATOM     26  O   LIG    1       23.689 -26.008   5.970  0.00  0.00    -0.227 OA
BRANCH  25  27
ATOM     27  O   LIG    1       25.664 -24.850   6.106  0.00  0.00    -0.444 OA
BRANCH  27  28
ATOM     28  C   LIG    1       25.342 -23.775   7.001  0.00  0.00    +0.212 C 
ATOM     29  C   LIG    1       24.354 -22.830   6.355  0.00  0.00    +0.090 C 
ATOM     30  C   LIG    1       24.625 -21.518   7.057  0.00  0.00    +0.257 C 
ATOM     31  O   LIG    1       24.379 -20.467   6.124  0.00  0.00    -0.351 OA
ATOM     32  C   LIG    1       24.108 -21.040   4.843  0.00  0.00    +0.163 C 
ATOM     33  O   LIG    1       25.993 -21.522   7.468  0.00  0.00    -0.347 OA
ATOM     34  C   LIG    1       24.558 -22.485   4.896  0.00  0.00    +0.040 C 
ATOM     35  C   LIG    1       26.498 -22.863   7.398  0.00  0.00    +0.208 C 
ENDBRANCH  27  28
ENDBRANCH  25  27
ENDBRANCH  22  23
BRANCH  22  36
ATOM     36  C   LIG    1       25.196 -29.121   5.674  0.00  0.00    +0.060 C 
BRANCH  36  37
ATOM     37  C   LIG    1       25.023 -30.634   5.676  0.00  0.00    -0.045 A 
ATOM     38  C   LIG    1       23.792 -31.191   6.054  0.00  0.00    +0.003 A 
ATOM     39  C   LIG    1       23.604 -32.576   6.069  0.00  0.00    +0.000 A 
ATOM     40  C   LIG    1       24.636 -33.429   5.686  0.00  0.00    +0.000 A 
ATOM     41  C   LIG    1       25.865 -32.898   5.306  0.00  0.00    +0.000 A 
ATOM     42  C   LIG    1       26.066 -31.511   5.322  0.00  0.00    +0.003 A 
ENDBRANCH  36  37
ENDBRANCH  22  36
ENDBRANCH   1  22
TORSDOF 14
ENDMDL
