MODEL 1
REMARK VINA RESULT:      -5.2      0.000      0.000
REMARK  Name = *****
REMARK                            x       y       z     vdW  Elec       q    Type
REMARK                         _______ _______ _______ _____ _____    ______ ____
ROOT
ATOM      1  C   LIG    1       22.423 -17.820   4.358  0.00  0.00    +0.121 A 
ATOM      2  C   LIG    1       22.048 -16.668   5.049  0.00  0.00    +0.046 A 
ATOM      3  C   LIG    1       22.816 -15.507   4.982  0.00  0.00    +0.007 A 
ATOM      4  C   LIG    1       24.002 -15.483   4.243  0.00  0.00    -0.046 A 
ATOM      5  C   LIG    1       24.377 -16.634   3.538  0.00  0.00    +0.007 A 
ATOM      6  C   LIG    1       23.602 -17.803   3.607  0.00  0.00    +0.046 A 
ENDROOT
BRANCH   1   7
ATOM      7  O   LIG    1       21.683 -18.980   4.383  0.00  0.00    -0.490 OA
BRANCH   7   8
ATOM      8  C   LIG    1       22.466 -20.181   4.572  0.00  0.00    +0.248 C 
BRANCH   8   9
ATOM      9  C   LIG    1       23.922 -19.816   4.900  0.00  0.00    +0.147 C 
BRANCH   9  11
ATOM     10  C   LIG    1       23.904 -21.067   7.062  0.00  0.00    +0.131 C 
ATOM     11  N   LIG    1       24.602 -20.764   5.812  0.00  0.00    -0.315 N 
BRANCH  11  12
ATOM     12  C   LIG    1       25.979 -20.512   5.962  0.00  0.00    +0.121 A 
ATOM     13  N   LIG    1       26.684 -21.127   6.937  0.00  0.00    -0.240 NA
ATOM     14  C   LIG    1       28.010 -20.851   7.034  0.00  0.00    +0.113 A 
ATOM     15  C   LIG    1       28.696 -19.992   6.194  0.00  0.00    +0.020 A 
ATOM     16  C   LIG    1       27.976 -19.371   5.189  0.00  0.00    +0.005 A 
ATOM     17  C   LIG    1       26.608 -19.631   5.075  0.00  0.00    +0.043 A 
ENDBRANCH  11  12
ENDBRANCH   9  11
ENDBRANCH   8   9
ENDBRANCH   7   8
ENDBRANCH   1   7
BRANCH   4  18
ATOM     18  C   LIG    1       24.892 -14.259   4.254  0.00  0.00    +0.059 C 
BRANCH  18  19
ATOM     19  C   LIG    1       26.403 -14.538   4.215  0.00  0.00    +0.146 C 
ATOM     20  C   LIG    1       27.043 -14.032   2.939  0.00  0.00    +0.234 C 
ATOM     21  O   LIG    1       26.818 -14.482   1.822  0.00  0.00    -0.274 OA
ATOM     22  N   LIG    1       27.907 -13.007   3.173  0.00  0.00    -0.246 N 
ATOM     23  H   LIG    1       28.401 -12.561   2.419  0.00  0.00    +0.158 HD
ATOM     24  C   LIG    1       28.241 -12.715   4.457  0.00  0.00    +0.279 C 
ATOM     25  O   LIG    1       29.074 -11.912   4.803  0.00  0.00    -0.263 OA
ATOM     26  S   LIG    1       27.350 -13.740   5.559  0.00  0.00    -0.054 S 
ENDBRANCH  18  19
ENDBRANCH   4  18
TORSDOF 7
ENDMDL
MODEL 2
REMARK VINA RESULT:      -4.4      2.714      7.313
REMARK  Name = *****
REMARK                            x       y       z     vdW  Elec       q    Type
REMARK                         _______ _______ _______ _____ _____    ______ ____
ROOT
ATOM      1  C   LIG    1       25.251 -16.640   3.393  0.00  0.00    +0.121 A 
ATOM      2  C   LIG    1       25.439 -18.015   3.248  0.00  0.00    +0.046 A 
ATOM      3  C   LIG    1       24.465 -18.922   3.665  0.00  0.00    +0.007 A 
ATOM      4  C   LIG    1       23.288 -18.471   4.269  0.00  0.00    -0.046 A 
ATOM      5  C   LIG    1       23.091 -17.090   4.407  0.00  0.00    +0.007 A 
ATOM      6  C   LIG    1       24.072 -16.179   3.986  0.00  0.00    +0.046 A 
ENDROOT
BRANCH   1   7
ATOM      7  O   LIG    1       26.179 -15.713   2.978  0.00  0.00    -0.490 OA
BRANCH   7   8
ATOM      8  C   LIG    1       27.391 -15.691   3.767  0.00  0.00    +0.248 C 
BRANCH   8   9
ATOM      9  C   LIG    1       27.961 -14.266   3.818  0.00  0.00    +0.147 C 
BRANCH   9  11
ATOM     10  C   LIG    1       26.934 -13.690   6.021  0.00  0.00    +0.131 C 
ATOM     11  N   LIG    1       27.163 -13.313   4.625  0.00  0.00    -0.315 N 
BRANCH  11  12
ATOM     12  C   LIG    1       26.022 -12.828   3.959  0.00  0.00    +0.121 A 
ATOM     13  N   LIG    1       24.875 -12.609   4.639  0.00  0.00    -0.240 NA
ATOM     14  C   LIG    1       23.806 -12.136   3.949  0.00  0.00    +0.113 A 
ATOM     15  C   LIG    1       23.811 -11.849   2.596  0.00  0.00    +0.020 A 
ATOM     16  C   LIG    1       24.989 -12.062   1.902  0.00  0.00    +0.005 A 
ATOM     17  C   LIG    1       26.100 -12.558   2.588  0.00  0.00    +0.043 A 
ENDBRANCH  11  12
ENDBRANCH   9  11
ENDBRANCH   8   9
ENDBRANCH   7   8
ENDBRANCH   1   7
BRANCH   4  18
ATOM     18  C   LIG    1       22.279 -19.455   4.819  0.00  0.00    +0.059 C 
BRANCH  18  19
ATOM     19  C   LIG    1       22.845 -20.820   5.239  0.00  0.00    +0.146 C 
ATOM     20  C   LIG    1       23.975 -21.271   4.337  0.00  0.00    +0.234 C 
ATOM     21  O   LIG    1       23.845 -21.565   3.155  0.00  0.00    -0.274 OA
ATOM     22  N   LIG    1       25.167 -21.314   4.993  0.00  0.00    -0.246 N 
ATOM     23  H   LIG    1       26.011 -21.586   4.519  0.00  0.00    +0.158 HD
ATOM     24  C   LIG    1       25.174 -21.167   6.344  0.00  0.00    +0.279 C 
ATOM     25  O   LIG    1       26.138 -21.293   7.060  0.00  0.00    -0.263 OA
ATOM     26  S   LIG    1       23.555 -20.852   6.924  0.00  0.00    -0.054 S 
ENDBRANCH  18  19
ENDBRANCH   4  18
TORSDOF 7
ENDMDL
MODEL 3
REMARK VINA RESULT:      -4.2      2.775      7.684
REMARK  Name = *****
REMARK                            x       y       z     vdW  Elec       q    Type
REMARK                         _______ _______ _______ _____ _____    ______ ____
ROOT
ATOM      1  C   LIG    1       27.615 -18.159   4.461  0.00  0.00    +0.121 A 
ATOM      2  C   LIG    1       26.486 -18.196   3.642  0.00  0.00    +0.046 A 
ATOM      3  C   LIG    1       25.585 -19.259   3.708  0.00  0.00    +0.007 A 
ATOM      4  C   LIG    1       25.814 -20.330   4.576  0.00  0.00    -0.046 A 
ATOM      5  C   LIG    1       26.942 -20.291   5.407  0.00  0.00    +0.007 A 
ATOM      6  C   LIG    1       27.847 -19.221   5.340  0.00  0.00    +0.046 A 
ENDROOT
BRANCH   1   7
ATOM      7  O   LIG    1       28.518 -17.121   4.439  0.00  0.00    -0.490 OA
BRANCH   7   8
ATOM      8  C   LIG    1       27.928 -15.816   4.640  0.00  0.00    +0.248 C 
BRANCH   8   9
ATOM      9  C   LIG    1       27.215 -15.357   3.359  0.00  0.00    +0.147 C 
BRANCH   9  11
ATOM     10  C   LIG    1       28.472 -13.225   3.701  0.00  0.00    +0.131 C 
ATOM     11  N   LIG    1       27.341 -13.909   3.072  0.00  0.00    -0.315 N 
BRANCH  11  12
ATOM     12  C   LIG    1       26.122 -13.210   3.152  0.00  0.00    +0.121 A 
ATOM     13  N   LIG    1       25.636 -12.556   2.074  0.00  0.00    -0.240 NA
ATOM     14  C   LIG    1       24.454 -11.902   2.206  0.00  0.00    +0.113 A 
ATOM     15  C   LIG    1       23.702 -11.867   3.367  0.00  0.00    +0.020 A 
ATOM     16  C   LIG    1       24.194 -12.546   4.467  0.00  0.00    +0.005 A 
ATOM     17  C   LIG    1       25.414 -13.219   4.360  0.00  0.00    +0.043 A 
ENDBRANCH  11  12
ENDBRANCH   9  11
ENDBRANCH   8   9
ENDBRANCH   7   8
ENDBRANCH   1   7
BRANCH   4  18
ATOM     18  C   LIG    1       24.897 -21.533   4.573  0.00  0.00    +0.059 C 
BRANCH  18  19
ATOM     19  C   LIG    1       23.395 -21.221   4.659  0.00  0.00    +0.146 C 
ATOM     20  C   LIG    1       23.004 -20.667   6.013  0.00  0.00    +0.234 C 
ATOM     21  O   LIG    1       23.046 -21.300   7.062  0.00  0.00    -0.274 OA
ATOM     22  N   LIG    1       22.597 -19.371   5.937  0.00  0.00    -0.246 N 
ATOM     23  H   LIG    1       22.316 -18.864   6.760  0.00  0.00    +0.158 HD
ATOM     24  C   LIG    1       22.393 -18.822   4.711  0.00  0.00    +0.279 C 
ATOM     25  O   LIG    1       21.930 -17.727   4.498  0.00  0.00    -0.263 OA
ATOM     26  S   LIG    1       22.818 -19.968   3.460  0.00  0.00    -0.054 S 
ENDBRANCH  18  19
ENDBRANCH   4  18
TORSDOF 7
ENDMDL
MODEL 4
REMARK VINA RESULT:      -3.7      2.729      6.925
REMARK  Name = *****
REMARK                            x       y       z     vdW  Elec       q    Type
REMARK                         _______ _______ _______ _____ _____    ______ ____
ROOT
ATOM      1  C   LIG    1       23.706 -16.243   4.099  0.00  0.00    +0.121 A 
ATOM      2  C   LIG    1       24.432 -17.366   3.702  0.00  0.00    +0.046 A 
ATOM      3  C   LIG    1       23.922 -18.652   3.878  0.00  0.00    +0.007 A 
ATOM      4  C   LIG    1       22.681 -18.844   4.490  0.00  0.00    -0.046 A 
ATOM      5  C   LIG    1       21.943 -17.719   4.881  0.00  0.00    +0.007 A 
ATOM      6  C   LIG    1       22.458 -16.425   4.702  0.00  0.00    +0.046 A 
ENDROOT
BRANCH   1   7
ATOM      7  O   LIG    1       24.166 -14.958   3.926  0.00  0.00    -0.490 OA
BRANCH   7   8
ATOM      8  C   LIG    1       23.144 -14.006   3.555  0.00  0.00    +0.248 C 
BRANCH   8   9
ATOM      9  C   LIG    1       23.575 -12.587   3.953  0.00  0.00    +0.147 C 
BRANCH   9  11
ATOM     10  C   LIG    1       24.560 -11.758   1.812  0.00  0.00    +0.131 C 
ATOM     11  N   LIG    1       24.762 -12.079   3.226  0.00  0.00    -0.315 N 
BRANCH  11  12
ATOM     12  C   LIG    1       25.940 -12.801   3.495  0.00  0.00    +0.121 A 
ATOM     13  N   LIG    1       26.626 -13.390   2.491  0.00  0.00    -0.240 NA
ATOM     14  C   LIG    1       27.757 -14.071   2.807  0.00  0.00    +0.113 A 
ATOM     15  C   LIG    1       28.267 -14.194   4.087  0.00  0.00    +0.020 A 
ATOM     16  C   LIG    1       27.571 -13.580   5.113  0.00  0.00    +0.005 A 
ATOM     17  C   LIG    1       26.398 -12.883   4.816  0.00  0.00    +0.043 A 
ENDBRANCH  11  12
ENDBRANCH   9  11
ENDBRANCH   8   9
ENDBRANCH   7   8
ENDBRANCH   1   7
BRANCH   4  18
ATOM     18  C   LIG    1       22.173 -20.240   4.780  0.00  0.00    +0.059 C 
BRANCH  18  19
ATOM     19  C   LIG    1       23.238 -21.252   5.229  0.00  0.00    +0.146 C 
ATOM     20  C   LIG    1       24.461 -21.228   4.337  0.00  0.00    +0.234 C 
ATOM     21  O   LIG    1       24.471 -21.572   3.161  0.00  0.00    -0.274 OA
ATOM     22  N   LIG    1       25.563 -20.774   4.993  0.00  0.00    -0.246 N 
ATOM     23  H   LIG    1       26.450 -20.691   4.525  0.00  0.00    +0.158 HD
ATOM     24  C   LIG    1       25.499 -20.610   6.340  0.00  0.00    +0.279 C 
ATOM     25  O   LIG    1       26.426 -20.323   7.059  0.00  0.00    -0.263 OA
ATOM     26  S   LIG    1       23.885 -20.964   6.914  0.00  0.00    -0.054 S 
ENDBRANCH  18  19
ENDBRANCH   4  18
TORSDOF 7
ENDMDL
