MODEL 1
REMARK VINA RESULT:      -6.2      0.000      0.000
REMARK  Name = *****
REMARK                            x       y       z     vdW  Elec       q    Type
REMARK                         _______ _______ _______ _____ _____    ______ ____
ROOT
ATOM      1  C   LIG    1       24.814 -21.989   6.858  0.00  0.00    +0.196 A 
ATOM      2  C   LIG    1       25.602 -23.118   6.666  0.00  0.00    +0.355 A 
ATOM      3  N   LIG    1       25.032 -24.336   6.532  0.00  0.00    -0.203 N 
ATOM      4  C   LIG    1       25.910 -25.498   6.328  0.00  0.00    +0.438 C 
ATOM      5  C   LIG    1       23.689 -24.485   6.587  0.00  0.00    +0.309 A 
ATOM      6  C   LIG    1       22.866 -23.383   6.806  0.00  0.00    +0.073 A 
ATOM      7  C   LIG    1       23.434 -22.121   6.954  0.00  0.00    +0.058 A 
ENDROOT
BRANCH   1   8
ATOM      8  O   LIG    1       25.346 -20.699   7.026  0.00  0.00    -0.405 OA
BRANCH   8  11
ATOM      9  C   LIG    1       27.614 -20.004   5.708  0.00  0.00    +0.135 C 
ATOM     10  N   LIG    1       27.584 -20.105   7.158  0.00  0.00    -0.273 N 
ATOM     11  C   LIG    1       26.453 -20.481   7.860  0.00  0.00    +0.408 C 
ATOM     12  O   LIG    1       26.406 -20.614   9.077  0.00  0.00    -0.226 OA
ATOM     13  C   LIG    1       28.862 -20.043   7.843  0.00  0.00    +0.135 C 
ENDBRANCH   8  11
ENDBRANCH   1   8
TORSDOF 2
ENDMDL
MODEL 2
REMARK VINA RESULT:      -6.0      3.133      4.230
REMARK  Name = *****
REMARK                            x       y       z     vdW  Elec       q    Type
REMARK                         _______ _______ _______ _____ _____    ______ ____
ROOT
ATOM      1  C   LIG    1       28.004 -20.498   6.704  0.00  0.00    +0.196 A 
ATOM      2  C   LIG    1       27.128 -20.371   5.632  0.00  0.00    +0.355 A 
ATOM      3  N   LIG    1       25.792 -20.418   5.831  0.00  0.00    -0.203 N 
ATOM      4  C   LIG    1       24.908 -20.275   4.665  0.00  0.00    +0.438 C 
ATOM      5  C   LIG    1       25.278 -20.594   7.070  0.00  0.00    +0.309 A 
ATOM      6  C   LIG    1       26.123 -20.754   8.166  0.00  0.00    +0.073 A 
ATOM      7  C   LIG    1       27.501 -20.716   7.982  0.00  0.00    +0.058 A 
ENDROOT
BRANCH   1   8
ATOM      8  O   LIG    1       29.402 -20.479   6.561  0.00  0.00    -0.405 OA
BRANCH   8  11
ATOM      9  C   LIG    1       31.139 -20.729   8.630  0.00  0.00    +0.135 C 
ATOM     10  N   LIG    1       31.030 -19.487   7.882  0.00  0.00    -0.273 N 
ATOM     11  C   LIG    1       30.138 -19.318   6.839  0.00  0.00    +0.408 C 
ATOM     12  O   LIG    1       29.993 -18.273   6.215  0.00  0.00    -0.226 OA
ATOM     13  C   LIG    1       31.716 -18.332   8.430  0.00  0.00    +0.135 C 
ENDBRANCH   8  11
ENDBRANCH   1   8
TORSDOF 2
ENDMDL
MODEL 3
REMARK VINA RESULT:      -5.8      1.759      5.386
REMARK  Name = *****
REMARK                            x       y       z     vdW  Elec       q    Type
REMARK                         _______ _______ _______ _____ _____    ______ ____
ROOT
ATOM      1  C   LIG    1       28.316 -20.783   7.378  0.00  0.00    +0.196 A 
ATOM      2  C   LIG    1       29.493 -20.403   8.015  0.00  0.00    +0.355 A 
ATOM      3  N   LIG    1       30.269 -19.427   7.492  0.00  0.00    -0.203 N 
ATOM      4  C   LIG    1       31.501 -19.060   8.206  0.00  0.00    +0.438 C 
ATOM      5  C   LIG    1       29.925 -18.805   6.342  0.00  0.00    +0.309 A 
ATOM      6  C   LIG    1       28.769 -19.176   5.659  0.00  0.00    +0.073 A 
ATOM      7  C   LIG    1       27.960 -20.183   6.176  0.00  0.00    +0.058 A 
ENDROOT
BRANCH   1   8
ATOM      8  O   LIG    1       27.478 -21.803   7.858  0.00  0.00    -0.405 OA
BRANCH   8  11
ATOM      9  C   LIG    1       25.545 -22.982   6.363  0.00  0.00    +0.135 C 
ATOM     10  N   LIG    1       25.212 -22.156   7.512  0.00  0.00    -0.273 N 
ATOM     11  C   LIG    1       26.170 -21.521   8.280  0.00  0.00    +0.408 C 
ATOM     12  O   LIG    1       25.921 -20.786   9.229  0.00  0.00    -0.226 OA
ATOM     13  C   LIG    1       23.813 -21.808   7.682  0.00  0.00    +0.135 C 
ENDBRANCH   8  11
ENDBRANCH   1   8
TORSDOF 2
ENDMDL
MODEL 4
REMARK VINA RESULT:      -5.8      3.363      5.799
REMARK  Name = *****
REMARK                            x       y       z     vdW  Elec       q    Type
REMARK                         _______ _______ _______ _____ _____    ______ ____
ROOT
ATOM      1  C   LIG    1       29.304 -19.386   7.992  0.00  0.00    +0.196 A 
ATOM      2  C   LIG    1       28.139 -20.116   7.783  0.00  0.00    +0.355 A 
ATOM      3  N   LIG    1       27.591 -20.191   6.550  0.00  0.00    -0.203 N 
ATOM      4  C   LIG    1       26.361 -20.979   6.381  0.00  0.00    +0.438 C 
ATOM      5  C   LIG    1       28.155 -19.557   5.497  0.00  0.00    +0.309 A 
ATOM      6  C   LIG    1       29.306 -18.791   5.671  0.00  0.00    +0.073 A 
ATOM      7  C   LIG    1       29.883 -18.695   6.933  0.00  0.00    +0.058 A 
ENDROOT
BRANCH   1   8
ATOM      8  O   LIG    1       29.912 -19.251   9.252  0.00  0.00    -0.405 OA
BRANCH   8  11
ATOM      9  C   LIG    1       30.303 -16.751  10.228  0.00  0.00    +0.135 C 
ATOM     10  N   LIG    1       31.424 -17.612   9.888  0.00  0.00    -0.273 N 
ATOM     11  C   LIG    1       31.260 -18.882   9.365  0.00  0.00    +0.408 C 
ATOM     12  O   LIG    1       32.182 -19.617   9.030  0.00  0.00    -0.226 OA
ATOM     13  C   LIG    1       32.740 -16.999   9.877  0.00  0.00    +0.135 C 
ENDBRANCH   8  11
ENDBRANCH   1   8
TORSDOF 2
ENDMDL
MODEL 5
REMARK VINA RESULT:      -5.7      1.246      1.534
REMARK  Name = *****
REMARK                            x       y       z     vdW  Elec       q    Type
REMARK                         _______ _______ _______ _____ _____    ______ ____
ROOT
ATOM      1  C   LIG    1       25.621 -21.568   6.530  0.00  0.00    +0.196 A 
ATOM      2  C   LIG    1       25.390 -22.928   6.351  0.00  0.00    +0.355 A 
ATOM      3  N   LIG    1       24.164 -23.449   6.579  0.00  0.00    -0.203 N 
ATOM      4  C   LIG    1       23.971 -24.892   6.372  0.00  0.00    +0.438 C 
ATOM      5  C   LIG    1       23.140 -22.666   6.990  0.00  0.00    +0.309 A 
ATOM      6  C   LIG    1       23.338 -21.305   7.208  0.00  0.00    +0.073 A 
ATOM      7  C   LIG    1       24.594 -20.750   6.986  0.00  0.00    +0.058 A 
ENDROOT
BRANCH   1   8
ATOM      8  O   LIG    1       26.876 -20.969   6.330  0.00  0.00    -0.405 OA
BRANCH   8  11
ATOM      9  C   LIG    1       28.875 -19.209   5.815  0.00  0.00    +0.135 C 
ATOM     10  N   LIG    1       28.745 -19.843   7.116  0.00  0.00    -0.273 N 
ATOM     11  C   LIG    1       27.754 -20.763   7.405  0.00  0.00    +0.408 C 
ATOM     12  O   LIG    1       27.641 -21.344   8.478  0.00  0.00    -0.226 OA
ATOM     13  C   LIG    1       29.850 -19.669   8.041  0.00  0.00    +0.135 C 
ENDBRANCH   8  11
ENDBRANCH   1   8
TORSDOF 2
ENDMDL
MODEL 6
REMARK VINA RESULT:      -5.7      2.597      4.781
REMARK  Name = *****
REMARK                            x       y       z     vdW  Elec       q    Type
REMARK                         _______ _______ _______ _____ _____    ______ ____
ROOT
ATOM      1  C   LIG    1       23.865 -21.272   6.080  0.00  0.00    +0.196 A 
ATOM      2  C   LIG    1       24.905 -20.821   5.274  0.00  0.00    +0.355 A 
ATOM      3  N   LIG    1       24.690 -19.847   4.363  0.00  0.00    -0.203 N 
ATOM      4  C   LIG    1       25.824 -19.403   3.538  0.00  0.00    +0.438 C 
ATOM      5  C   LIG    1       23.466 -19.294   4.209  0.00  0.00    +0.309 A 
ATOM      6  C   LIG    1       22.392 -19.738   4.977  0.00  0.00    +0.073 A 
ATOM      7  C   LIG    1       22.589 -20.745   5.916  0.00  0.00    +0.058 A 
ENDROOT
BRANCH   1   8
ATOM      8  O   LIG    1       24.018 -22.295   7.031  0.00  0.00    -0.405 OA
BRANCH   8  11
ATOM      9  C   LIG    1       25.951 -24.160   6.649  0.00  0.00    +0.135 C 
ATOM     10  N   LIG    1       24.542 -24.516   6.616  0.00  0.00    -0.273 N 
ATOM     11  C   LIG    1       23.531 -23.587   6.782  0.00  0.00    +0.408 C 
ATOM     12  O   LIG    1       22.335 -23.847   6.720  0.00  0.00    -0.226 OA
ATOM     13  C   LIG    1       24.216 -25.851   6.148  0.00  0.00    +0.135 C 
ENDBRANCH   8  11
ENDBRANCH   1   8
TORSDOF 2
ENDMDL
MODEL 7
REMARK VINA RESULT:      -5.7      1.929      2.869
REMARK  Name = *****
REMARK                            x       y       z     vdW  Elec       q    Type
REMARK                         _______ _______ _______ _____ _____    ______ ____
ROOT
ATOM      1  C   LIG    1       26.959 -21.496   7.884  0.00  0.00    +0.196 A 
ATOM      2  C   LIG    1       26.632 -22.621   7.135  0.00  0.00    +0.355 A 
ATOM      3  N   LIG    1       25.344 -22.876   6.811  0.00  0.00    -0.203 N 
ATOM      4  C   LIG    1       25.051 -24.077   6.014  0.00  0.00    +0.438 C 
ATOM      5  C   LIG    1       24.350 -22.051   7.210  0.00  0.00    +0.309 A 
ATOM      6  C   LIG    1       24.633 -20.930   7.986  0.00  0.00    +0.073 A 
ATOM      7  C   LIG    1       25.951 -20.653   8.337  0.00  0.00    +0.058 A 
ENDROOT
BRANCH   1   8
ATOM      8  O   LIG    1       28.274 -21.187   8.272  0.00  0.00    -0.405 OA
BRANCH   8  11
ATOM      9  C   LIG    1       30.918 -21.243   8.879  0.00  0.00    +0.135 C 
ATOM     10  N   LIG    1       30.402 -20.375   7.833  0.00  0.00    -0.273 N 
ATOM     11  C   LIG    1       29.058 -20.303   7.515  0.00  0.00    +0.408 C 
ATOM     12  O   LIG    1       28.586 -19.553   6.669  0.00  0.00    -0.226 OA
ATOM     13  C   LIG    1       31.317 -19.385   7.295  0.00  0.00    +0.135 C 
ENDBRANCH   8  11
ENDBRANCH   1   8
TORSDOF 2
ENDMDL
MODEL 8
REMARK VINA RESULT:      -5.6      2.408      3.081
REMARK  Name = *****
REMARK                            x       y       z     vdW  Elec       q    Type
REMARK                         _______ _______ _______ _____ _____    ______ ____
ROOT
ATOM      1  C   LIG    1       25.536 -21.033   6.264  0.00  0.00    +0.196 A 
ATOM      2  C   LIG    1       25.185 -20.343   5.109  0.00  0.00    +0.355 A 
ATOM      3  N   LIG    1       23.907 -19.956   4.905  0.00  0.00    -0.203 N 
ATOM      4  C   LIG    1       23.589 -19.226   3.668  0.00  0.00    +0.438 C 
ATOM      5  C   LIG    1       22.942 -20.233   5.811  0.00  0.00    +0.309 A 
ATOM      6  C   LIG    1       23.247 -20.947   6.968  0.00  0.00    +0.073 A 
ATOM      7  C   LIG    1       24.555 -21.362   7.194  0.00  0.00    +0.058 A 
ENDROOT
BRANCH   1   8
ATOM      8  O   LIG    1       26.842 -21.482   6.525  0.00  0.00    -0.405 OA
BRANCH   8  11
ATOM      9  C   LIG    1       28.639 -19.593   5.777  0.00  0.00    +0.135 C 
ATOM     10  N   LIG    1       28.476 -19.970   7.172  0.00  0.00    -0.273 N 
ATOM     11  C   LIG    1       27.588 -20.946   7.585  0.00  0.00    +0.408 C 
ATOM     12  O   LIG    1       27.456 -21.315   8.746  0.00  0.00    -0.226 OA
ATOM     13  C   LIG    1       29.465 -19.462   8.106  0.00  0.00    +0.135 C 
ENDBRANCH   8  11
ENDBRANCH   1   8
TORSDOF 2
ENDMDL
MODEL 9
REMARK VINA RESULT:      -5.6      2.861      5.345
REMARK  Name = *****
REMARK                            x       y       z     vdW  Elec       q    Type
REMARK                         _______ _______ _______ _____ _____    ______ ____
ROOT
ATOM      1  C   LIG    1       25.272 -23.314   6.176  0.00  0.00    +0.196 A 
ATOM      2  C   LIG    1       24.452 -22.353   5.593  0.00  0.00    +0.355 A 
ATOM      3  N   LIG    1       24.287 -21.147   6.180  0.00  0.00    -0.203 N 
ATOM      4  C   LIG    1       23.412 -20.166   5.521  0.00  0.00    +0.438 C 
ATOM      5  C   LIG    1       24.907 -20.849   7.344  0.00  0.00    +0.309 A 
ATOM      6  C   LIG    1       25.713 -21.794   7.975  0.00  0.00    +0.073 A 
ATOM      7  C   LIG    1       25.891 -23.044   7.391  0.00  0.00    +0.058 A 
ENDROOT
BRANCH   1   8
ATOM      8  O   LIG    1       25.468 -24.593   5.627  0.00  0.00    -0.405 OA
BRANCH   8  11
ATOM      9  C   LIG    1       26.451 -27.047   5.020  0.00  0.00    +0.135 C 
ATOM     10  N   LIG    1       25.150 -26.889   5.650  0.00  0.00    -0.273 N 
ATOM     11  C   LIG    1       24.608 -25.653   5.950  0.00  0.00    +0.408 C 
ATOM     12  O   LIG    1       23.500 -25.484   6.443  0.00  0.00    -0.226 OA
ATOM     13  C   LIG    1       24.314 -28.074   5.728  0.00  0.00    +0.135 C 
ENDBRANCH   8  11
ENDBRANCH   1   8
TORSDOF 2
ENDMDL
