MODEL 1
REMARK VINA RESULT:      -5.2      0.000      0.000
REMARK  Name = *****
REMARK                            x       y       z     vdW  Elec       q    Type
REMARK                         _______ _______ _______ _____ _____    ______ ____
ROOT
ATOM      1  C   LIG    1       26.325 -20.450   6.566  0.00  0.00    +0.003 C 
ATOM      2  C   LIG    1       25.333 -21.515   7.060  0.00  0.00    +0.005 C 
ATOM      3  C   LIG    1       23.892 -21.155   6.702  0.00  0.00    +0.015 C 
ATOM      4  C   LIG    1       23.727 -20.923   5.196  0.00  0.00    +0.098 C 
ATOM      5  C   LIG    1       24.715 -19.873   4.689  0.00  0.00    +0.015 C 
ATOM      6  C   LIG    1       26.155 -20.229   5.053  0.00  0.00    +0.005 C 
ENDROOT
BRANCH   4   7
ATOM      7  C   LIG    1       22.309 -20.490   4.873  0.00  0.00    +0.308 C 
ATOM      8  O   LIG    1       21.968 -19.343   4.622  0.00  0.00    -0.251 OA
BRANCH   7   9
ATOM      9  O   LIG    1       21.430 -21.518   4.857  0.00  0.00    -0.480 OA
ATOM     10  H   LIG    1       21.644 -22.216   4.208  0.00  0.00    +0.295 HD
ENDBRANCH   7   9
ENDBRANCH   4   7
BRANCH   1  11
ATOM     11  C   LIG    1       27.761 -20.861   6.938  0.00  0.00    +0.081 C 
BRANCH  11  12
ATOM     12  N   LIG    1       28.723 -20.456   5.918  0.00  0.00    -0.330 NA
ATOM     13  H   LIG    1       28.250 -20.360   5.019  0.00  0.00    +0.118 HD
ATOM     14  H   LIG    1       29.089 -19.532   6.145  0.00  0.00    +0.118 HD
ENDBRANCH  11  12
ENDBRANCH   1  11
TORSDOF 4
ENDMDL
MODEL 2
REMARK VINA RESULT:      -4.7      3.754      4.767
REMARK  Name = *****
REMARK                            x       y       z     vdW  Elec       q    Type
REMARK                         _______ _______ _______ _____ _____    ______ ____
ROOT
ATOM      1  C   LIG    1       24.096 -20.870   5.339  0.00  0.00    +0.003 C 
ATOM      2  C   LIG    1       24.461 -20.792   6.830  0.00  0.00    +0.005 C 
ATOM      3  C   LIG    1       25.951 -21.036   7.062  0.00  0.00    +0.015 C 
ATOM      4  C   LIG    1       26.814 -20.067   6.245  0.00  0.00    +0.098 C 
ATOM      5  C   LIG    1       26.455 -20.127   4.760  0.00  0.00    +0.015 C 
ATOM      6  C   LIG    1       24.963 -19.891   4.529  0.00  0.00    +0.005 C 
ENDROOT
BRANCH   4   7
ATOM      7  C   LIG    1       28.288 -20.378   6.429  0.00  0.00    +0.308 C 
ATOM      8  O   LIG    1       29.204 -19.640   6.096  0.00  0.00    -0.251 OA
BRANCH   7   9
ATOM      9  O   LIG    1       28.508 -21.567   7.036  0.00  0.00    -0.480 OA
ATOM     10  H   LIG    1       28.330 -22.343   6.471  0.00  0.00    +0.295 HD
ENDBRANCH   7   9
ENDBRANCH   4   7
BRANCH   1  11
ATOM     11  C   LIG    1       22.591 -20.607   5.153  0.00  0.00    +0.081 C 
BRANCH  11  12
ATOM     12  N   LIG    1       22.310 -19.191   4.937  0.00  0.00    -0.330 NA
ATOM     13  H   LIG    1       22.468 -18.957   3.957  0.00  0.00    +0.118 HD
ATOM     14  H   LIG    1       21.323 -19.011   5.116  0.00  0.00    +0.118 HD
ENDBRANCH  11  12
ENDBRANCH   1  11
TORSDOF 4
ENDMDL
MODEL 3
REMARK VINA RESULT:      -4.7      1.515      2.043
REMARK  Name = *****
REMARK                            x       y       z     vdW  Elec       q    Type
REMARK                         _______ _______ _______ _____ _____    ______ ____
ROOT
ATOM      1  C   LIG    1       25.202 -20.479   6.092  0.00  0.00    +0.003 C 
ATOM      2  C   LIG    1       23.769 -20.914   6.439  0.00  0.00    +0.005 C 
ATOM      3  C   LIG    1       22.742 -19.864   6.021  0.00  0.00    +0.015 C 
ATOM      4  C   LIG    1       22.856 -19.527   4.529  0.00  0.00    +0.098 C 
ATOM      5  C   LIG    1       24.280 -19.102   4.168  0.00  0.00    +0.015 C 
ATOM      6  C   LIG    1       25.308 -20.149   4.593  0.00  0.00    +0.005 C 
ENDROOT
BRANCH   4   7
ATOM      7  C   LIG    1       21.882 -18.426   4.153  0.00  0.00    +0.308 C 
ATOM      8  O   LIG    1       20.802 -18.603   3.609  0.00  0.00    -0.251 OA
BRANCH   7   9
ATOM      9  O   LIG    1       22.313 -17.193   4.507  0.00  0.00    -0.480 OA
ATOM     10  H   LIG    1       21.610 -16.608   4.851  0.00  0.00    +0.295 HD
ENDBRANCH   7   9
ENDBRANCH   4   7
BRANCH   1  11
ATOM     11  C   LIG    1       26.198 -21.572   6.520  0.00  0.00    +0.081 C 
BRANCH  11  12
ATOM     12  N   LIG    1       27.579 -21.105   6.451  0.00  0.00    -0.330 NA
ATOM     13  H   LIG    1       28.203 -21.828   6.809  0.00  0.00    +0.118 HD
ATOM     14  H   LIG    1       27.840 -20.963   5.476  0.00  0.00    +0.118 HD
ENDBRANCH  11  12
ENDBRANCH   1  11
TORSDOF 4
ENDMDL
MODEL 4
REMARK VINA RESULT:      -4.4      3.797      4.712
REMARK  Name = *****
REMARK                            x       y       z     vdW  Elec       q    Type
REMARK                         _______ _______ _______ _____ _____    ______ ____
ROOT
ATOM      1  C   LIG    1       23.520 -20.380   5.347  0.00  0.00    +0.003 C 
ATOM      2  C   LIG    1       22.887 -19.402   4.344  0.00  0.00    +0.005 C 
ATOM      3  C   LIG    1       23.797 -18.206   4.069  0.00  0.00    +0.015 C 
ATOM      4  C   LIG    1       25.182 -18.652   3.586  0.00  0.00    +0.098 C 
ATOM      5  C   LIG    1       25.819 -19.633   4.571  0.00  0.00    +0.015 C 
ATOM      6  C   LIG    1       24.906 -20.825   4.851  0.00  0.00    +0.005 C 
ENDROOT
BRANCH   4   7
ATOM      7  C   LIG    1       26.094 -17.454   3.396  0.00  0.00    +0.308 C 
ATOM      8  O   LIG    1       25.738 -16.364   2.971  0.00  0.00    -0.251 OA
BRANCH   7   9
ATOM      9  O   LIG    1       27.371 -17.693   3.776  0.00  0.00    -0.480 OA
ATOM     10  H   LIG    1       27.858 -18.295   3.180  0.00  0.00    +0.295 HD
ENDBRANCH   7   9
ENDBRANCH   4   7
BRANCH   1  11
ATOM     11  C   LIG    1       22.574 -21.572   5.583  0.00  0.00    +0.081 C 
BRANCH  11  12
ATOM     12  N   LIG    1       21.370 -21.479   4.764  0.00  0.00    -0.330 NA
ATOM     13  H   LIG    1       21.626 -21.262   3.801  0.00  0.00    +0.118 HD
ATOM     14  H   LIG    1       20.909 -22.388   4.737  0.00  0.00    +0.118 HD
ENDBRANCH  11  12
ENDBRANCH   1  11
TORSDOF 4
ENDMDL
MODEL 5
REMARK VINA RESULT:      -4.4      6.624      7.411
REMARK  Name = *****
REMARK                            x       y       z     vdW  Elec       q    Type
REMARK                         _______ _______ _______ _____ _____    ______ ____
ROOT
ATOM      1  C   LIG    1       27.609 -12.925   3.821  0.00  0.00    +0.003 C 
ATOM      2  C   LIG    1       26.993 -13.271   5.186  0.00  0.00    +0.005 C 
ATOM      3  C   LIG    1       25.480 -13.464   5.092  0.00  0.00    +0.015 C 
ATOM      4  C   LIG    1       25.112 -14.527   4.050  0.00  0.00    +0.098 C 
ATOM      5  C   LIG    1       25.727 -14.200   2.688  0.00  0.00    +0.015 C 
ATOM      6  C   LIG    1       27.238 -14.000   2.784  0.00  0.00    +0.005 C 
ENDROOT
BRANCH   4   7
ATOM      7  C   LIG    1       23.605 -14.646   3.915  0.00  0.00    +0.308 C 
ATOM      8  O   LIG    1       22.906 -15.425   4.547  0.00  0.00    -0.251 OA
BRANCH   7   9
ATOM      9  O   LIG    1       23.080 -13.767   3.030  0.00  0.00    -0.480 OA
ATOM     10  H   LIG    1       22.530 -14.180   2.337  0.00  0.00    +0.295 HD
ENDBRANCH   7   9
ENDBRANCH   4   7
BRANCH   1  11
ATOM     11  C   LIG    1       29.132 -12.752   3.963  0.00  0.00    +0.081 C 
BRANCH  11  12
ATOM     12  N   LIG    1       29.473 -11.723   4.939  0.00  0.00    -0.330 NA
ATOM     13  H   LIG    1       28.737 -11.661   5.643  0.00  0.00    +0.118 HD
ATOM     14  H   LIG    1       30.319 -11.996   5.437  0.00  0.00    +0.118 HD
ENDBRANCH  11  12
ENDBRANCH   1  11
TORSDOF 4
ENDMDL
MODEL 6
REMARK VINA RESULT:      -4.4      6.577      7.714
REMARK  Name = *****
REMARK                            x       y       z     vdW  Elec       q    Type
REMARK                         _______ _______ _______ _____ _____    ______ ____
ROOT
ATOM      1  C   LIG    1       24.428 -13.062   3.016  0.00  0.00    +0.003 C 
ATOM      2  C   LIG    1       24.119 -13.967   4.220  0.00  0.00    +0.005 C 
ATOM      3  C   LIG    1       24.655 -15.383   4.017  0.00  0.00    +0.015 C 
ATOM      4  C   LIG    1       26.158 -15.378   3.719  0.00  0.00    +0.098 C 
ATOM      5  C   LIG    1       26.482 -14.474   2.529  0.00  0.00    +0.015 C 
ATOM      6  C   LIG    1       25.940 -13.060   2.729  0.00  0.00    +0.005 C 
ENDROOT
BRANCH   4   7
ATOM      7  C   LIG    1       26.654 -16.786   3.442  0.00  0.00    +0.308 C 
ATOM      8  O   LIG    1       26.014 -17.651   2.861  0.00  0.00    -0.251 OA
BRANCH   7   9
ATOM      9  O   LIG    1       27.915 -17.001   3.882  0.00  0.00    -0.480 OA
ATOM     10  H   LIG    1       28.040 -17.858   4.333  0.00  0.00    +0.295 HD
ENDBRANCH   7   9
ENDBRANCH   4   7
BRANCH   1  11
ATOM     11  C   LIG    1       23.881 -11.646   3.271  0.00  0.00    +0.081 C 
BRANCH  11  12
ATOM     12  N   LIG    1       23.519 -11.448   4.670  0.00  0.00    -0.330 NA
ATOM     13  H   LIG    1       24.257 -10.930   5.146  0.00  0.00    +0.118 HD
ATOM     14  H   LIG    1       22.684 -10.865   4.724  0.00  0.00    +0.118 HD
ENDBRANCH  11  12
ENDBRANCH   1  11
TORSDOF 4
ENDMDL
MODEL 7
REMARK VINA RESULT:      -4.3      1.546      2.436
REMARK  Name = *****
REMARK                            x       y       z     vdW  Elec       q    Type
REMARK                         _______ _______ _______ _____ _____    ______ ____
ROOT
ATOM      1  C   LIG    1       27.847 -20.113   5.806  0.00  0.00    +0.003 C 
ATOM      2  C   LIG    1       26.986 -19.326   4.804  0.00  0.00    +0.005 C 
ATOM      3  C   LIG    1       25.701 -20.073   4.453  0.00  0.00    +0.015 C 
ATOM      4  C   LIG    1       24.889 -20.418   5.706  0.00  0.00    +0.098 C 
ATOM      5  C   LIG    1       25.736 -21.193   6.716  0.00  0.00    +0.015 C 
ATOM      6  C   LIG    1       27.025 -20.449   7.062  0.00  0.00    +0.005 C 
ENDROOT
BRANCH   4   7
ATOM      7  C   LIG    1       23.659 -21.228   5.342  0.00  0.00    +0.308 C 
ATOM      8  O   LIG    1       22.766 -21.533   6.119  0.00  0.00    -0.251 OA
BRANCH   7   9
ATOM      9  O   LIG    1       23.618 -21.572   4.033  0.00  0.00    -0.480 OA
ATOM     10  H   LIG    1       24.014 -22.443   3.837  0.00  0.00    +0.295 HD
ENDBRANCH   7   9
ENDBRANCH   4   7
BRANCH   1  11
ATOM     11  C   LIG    1       29.122 -19.317   6.139  0.00  0.00    +0.081 C 
BRANCH  11  12
ATOM     12  N   LIG    1       29.305 -18.184   5.238  0.00  0.00    -0.330 NA
ATOM     13  H   LIG    1       28.625 -18.236   4.479  0.00  0.00    +0.118 HD
ATOM     14  H   LIG    1       29.106 -17.318   5.738  0.00  0.00    +0.118 HD
ENDBRANCH  11  12
ENDBRANCH   1  11
TORSDOF 4
ENDMDL
MODEL 8
REMARK VINA RESULT:      -4.1      6.730      7.938
REMARK  Name = *****
REMARK                            x       y       z     vdW  Elec       q    Type
REMARK                         _______ _______ _______ _____ _____    ______ ____
ROOT
ATOM      1  C   LIG    1       24.752 -12.810   3.687  0.00  0.00    +0.003 C 
ATOM      2  C   LIG    1       25.953 -12.960   2.738  0.00  0.00    +0.005 C 
ATOM      3  C   LIG    1       26.819 -14.163   3.107  0.00  0.00    +0.015 C 
ATOM      4  C   LIG    1       25.999 -15.457   3.145  0.00  0.00    +0.098 C 
ATOM      5  C   LIG    1       24.795 -15.319   4.078  0.00  0.00    +0.015 C 
ATOM      6  C   LIG    1       23.933 -14.112   3.714  0.00  0.00    +0.005 C 
ENDROOT
BRANCH   4   7
ATOM      7  C   LIG    1       26.860 -16.624   3.590  0.00  0.00    +0.308 C 
ATOM      8  O   LIG    1       27.909 -16.523   4.210  0.00  0.00    -0.251 OA
BRANCH   7   9
ATOM      9  O   LIG    1       26.338 -17.827   3.256  0.00  0.00    -0.480 OA
ATOM     10  H   LIG    1       26.915 -18.367   2.682  0.00  0.00    +0.295 HD
ENDBRANCH   7   9
ENDBRANCH   4   7
BRANCH   1  11
ATOM     11  C   LIG    1       23.904 -11.596   3.270  0.00  0.00    +0.081 C 
BRANCH  11  12
ATOM     12  N   LIG    1       23.845 -11.447   1.820  0.00  0.00    -0.330 NA
ATOM     13  H   LIG    1       24.771 -11.606   1.421  0.00  0.00    +0.118 HD
ATOM     14  H   LIG    1       23.241 -12.169   1.429  0.00  0.00    +0.118 HD
ENDBRANCH  11  12
ENDBRANCH   1  11
TORSDOF 4
ENDMDL
MODEL 9
REMARK VINA RESULT:      -3.9      7.289      8.412
REMARK  Name = *****
REMARK                            x       y       z     vdW  Elec       q    Type
REMARK                         _______ _______ _______ _____ _____    ______ ____
ROOT
ATOM      1  C   LIG    1       24.622 -14.785   4.367  0.00  0.00    +0.003 C 
ATOM      2  C   LIG    1       24.700 -13.251   4.430  0.00  0.00    +0.005 C 
ATOM      3  C   LIG    1       26.116 -12.768   4.737  0.00  0.00    +0.015 C 
ATOM      4  C   LIG    1       27.129 -13.317   3.726  0.00  0.00    +0.098 C 
ATOM      5  C   LIG    1       27.056 -14.842   3.645  0.00  0.00    +0.015 C 
ATOM      6  C   LIG    1       25.639 -15.325   3.346  0.00  0.00    +0.005 C 
ENDROOT
BRANCH   4   7
ATOM      7  C   LIG    1       28.538 -12.890   4.095  0.00  0.00    +0.308 C 
ATOM      8  O   LIG    1       28.833 -12.220   5.074  0.00  0.00    -0.251 OA
BRANCH   7   9
ATOM      9  O   LIG    1       29.475 -13.354   3.235  0.00  0.00    -0.480 OA
ATOM     10  H   LIG    1       29.114 -13.674   2.386  0.00  0.00    +0.295 HD
ENDBRANCH   7   9
ENDBRANCH   4   7
BRANCH   1  11
ATOM     11  C   LIG    1       23.183 -15.223   4.044  0.00  0.00    +0.081 C 
BRANCH  11  12
ATOM     12  N   LIG    1       22.464 -15.651   5.240  0.00  0.00    -0.330 NA
ATOM     13  H   LIG    1       21.466 -15.479   5.120  0.00  0.00    +0.118 HD
ATOM     14  H   LIG    1       22.566 -16.659   5.354  0.00  0.00    +0.118 HD
ENDBRANCH  11  12
ENDBRANCH   1  11
TORSDOF 4
ENDMDL
