MODEL 1
REMARK VINA RESULT:      -2.6      0.000      0.000
REMARK  Name = *****
REMARK                            x       y       z     vdW  Elec       q    Type
REMARK                         _______ _______ _______ _____ _____    ______ ____
ROOT
ATOM      1  C   LIG    1       21.321 -18.598   3.949  0.00  0.00    +0.134 C 
ATOM      2  N   LIG    1       22.490 -19.371   4.358  0.00  0.00    -0.279 N 
ATOM      3  C   LIG    1       23.773 -19.026   3.695  0.00  0.00    +0.249 C 
ATOM      4  S   LIG    1       25.259 -19.958   4.160  0.00  0.00    -0.007 S 
ATOM      5  O   LIG    1       26.171 -20.006   3.031  0.00  0.00    -0.172 OA
ATOM      6  O   LIG    1       25.722 -19.577   5.482  0.00  0.00    -0.172 OA
ATOM      7  C   LIG    1       24.541 -21.563   4.312  0.00  0.00    +0.177 C 
ATOM      8  C   LIG    1       23.390 -21.509   5.283  0.00  0.00    +0.118 C 
ATOM      9  C   LIG    1       22.228 -20.666   4.798  0.00  0.00    +0.218 C 
ATOM     10  O   LIG    1       21.084 -21.113   4.890  0.00  0.00    -0.276 OA
ENDROOT
BRANCH   3  11
ATOM     11  C   LIG    1       24.133 -17.549   3.786  0.00  0.00    -0.006 A 
ATOM     12  C   LIG    1       25.381 -17.074   3.345  0.00  0.00    +0.008 A 
ATOM     13  C   LIG    1       25.699 -15.716   3.435  0.00  0.00    +0.020 A 
ATOM     14  C   LIG    1       24.772 -14.822   3.962  0.00  0.00    +0.041 A 
ATOM     15 CL   LIG    1       25.164 -13.151   4.075  0.00  0.00    -0.084 Cl
ATOM     16  C   LIG    1       23.528 -15.271   4.398  0.00  0.00    +0.020 A 
ATOM     17  C   LIG    1       23.208 -16.628   4.309  0.00  0.00    +0.008 A 
ENDBRANCH   3  11
TORSDOF 1
ENDMDL
MODEL 2
REMARK VINA RESULT:      -2.0      4.124      6.389
REMARK  Name = *****
REMARK                            x       y       z     vdW  Elec       q    Type
REMARK                         _______ _______ _______ _____ _____    ______ ____
ROOT
ATOM      1  C   LIG    1       27.720 -15.511   4.020  0.00  0.00    +0.134 C 
ATOM      2  N   LIG    1       26.513 -14.758   4.351  0.00  0.00    -0.279 N 
ATOM      3  C   LIG    1       25.286 -15.115   3.593  0.00  0.00    +0.249 C 
ATOM      4  S   LIG    1       23.757 -14.208   3.957  0.00  0.00    -0.007 S 
ATOM      5  O   LIG    1       22.929 -14.162   2.766  0.00  0.00    -0.172 OA
ATOM      6  O   LIG    1       23.205 -14.609   5.238  0.00  0.00    -0.172 OA
ATOM      7  C   LIG    1       24.439 -12.595   4.175  0.00  0.00    +0.177 C 
ATOM      8  C   LIG    1       25.517 -12.643   5.227  0.00  0.00    +0.118 C 
ATOM      9  C   LIG    1       26.723 -13.464   4.820  0.00  0.00    +0.218 C 
ATOM     10  O   LIG    1       27.850 -13.002   4.999  0.00  0.00    -0.276 OA
ENDROOT
BRANCH   3  11
ATOM     11  C   LIG    1       24.942 -16.597   3.644  0.00  0.00    -0.006 A 
ATOM     12  C   LIG    1       23.660 -17.036   4.019  0.00  0.00    +0.008 A 
ATOM     13  C   LIG    1       23.356 -18.399   4.062  0.00  0.00    +0.020 A 
ATOM     14  C   LIG    1       24.331 -19.336   3.729  0.00  0.00    +0.041 A 
ATOM     15 CL   LIG    1       23.959 -21.014   3.785  0.00  0.00    -0.084 Cl
ATOM     16  C   LIG    1       25.606 -18.922   3.349  0.00  0.00    +0.020 A 
ATOM     17  C   LIG    1       25.910 -17.559   3.305  0.00  0.00    +0.008 A 
ENDBRANCH   3  11
TORSDOF 1
ENDMDL
MODEL 3
REMARK VINA RESULT:      -1.6      4.265      6.232
REMARK  Name = *****
REMARK                            x       y       z     vdW  Elec       q    Type
REMARK                         _______ _______ _______ _____ _____    ______ ____
ROOT
ATOM      1  C   LIG    1       22.974 -14.103   4.663  0.00  0.00    +0.134 C 
ATOM      2  N   LIG    1       24.175 -13.781   3.898  0.00  0.00    -0.279 N 
ATOM      3  C   LIG    1       25.356 -14.652   4.128  0.00  0.00    +0.249 C 
ATOM      4  S   LIG    1       26.880 -14.294   3.208  0.00  0.00    -0.007 S 
ATOM      5  O   LIG    1       28.026 -14.717   3.993  0.00  0.00    -0.172 OA
ATOM      6  O   LIG    1       26.747 -14.669   1.813  0.00  0.00    -0.172 OA
ATOM      7  C   LIG    1       26.832 -12.531   3.271  0.00  0.00    +0.177 C 
ATOM      8  C   LIG    1       25.520 -12.043   2.712  0.00  0.00    +0.118 C 
ATOM      9  C   LIG    1       24.321 -12.441   3.548  0.00  0.00    +0.218 C 
ATOM     10  O   LIG    1       23.469 -11.593   3.815  0.00  0.00    -0.276 OA
ENDROOT
BRANCH   3  11
ATOM     11  C   LIG    1       25.070 -16.136   3.945  0.00  0.00    -0.006 A 
ATOM     12  C   LIG    1       23.787 -16.665   4.167  0.00  0.00    +0.008 A 
ATOM     13  C   LIG    1       23.537 -18.029   3.996  0.00  0.00    +0.020 A 
ATOM     14  C   LIG    1       24.568 -18.876   3.599  0.00  0.00    +0.041 A 
ATOM     15 CL   LIG    1       24.263 -20.556   3.390  0.00  0.00    -0.084 Cl
ATOM     16  C   LIG    1       25.846 -18.371   3.367  0.00  0.00    +0.020 A 
ATOM     17  C   LIG    1       26.096 -17.007   3.537  0.00  0.00    +0.008 A 
ENDBRANCH   3  11
TORSDOF 1
ENDMDL
MODEL 4
REMARK VINA RESULT:      -0.3      2.438      3.031
REMARK  Name = *****
REMARK                            x       y       z     vdW  Elec       q    Type
REMARK                         _______ _______ _______ _____ _____    ______ ____
ROOT
ATOM      1  C   LIG    1       24.139 -19.604   3.853  0.00  0.00    +0.134 C 
ATOM      2  N   LIG    1       25.076 -19.935   4.924  0.00  0.00    -0.279 N 
ATOM      3  C   LIG    1       26.508 -19.639   4.660  0.00  0.00    +0.249 C 
ATOM      4  S   LIG    1       27.719 -20.036   5.953  0.00  0.00    -0.007 S 
ATOM      5  O   LIG    1       28.998 -20.340   5.337  0.00  0.00    -0.172 OA
ATOM      6  O   LIG    1       27.624 -19.104   7.062  0.00  0.00    -0.172 OA
ATOM      7  C   LIG    1       27.037 -21.566   6.509  0.00  0.00    +0.177 C 
ATOM      8  C   LIG    1       25.598 -21.359   6.907  0.00  0.00    +0.118 C 
ATOM      9  C   LIG    1       24.695 -20.992   5.747  0.00  0.00    +0.218 C 
ATOM     10  O   LIG    1       23.617 -21.572   5.620  0.00  0.00    -0.276 OA
ENDROOT
BRANCH   3  11
ATOM     11  C   LIG    1       26.769 -18.199   4.240  0.00  0.00    -0.006 A 
ATOM     12  C   LIG    1       25.848 -17.491   3.449  0.00  0.00    +0.008 A 
ATOM     13  C   LIG    1       26.100 -16.170   3.070  0.00  0.00    +0.020 A 
ATOM     14  C   LIG    1       27.274 -15.544   3.481  0.00  0.00    +0.041 A 
ATOM     15 CL   LIG    1       27.586 -13.919   3.012  0.00  0.00    -0.084 Cl
ATOM     16  C   LIG    1       28.196 -16.226   4.271  0.00  0.00    +0.020 A 
ATOM     17  C   LIG    1       27.946 -17.547   4.651  0.00  0.00    +0.008 A 
ENDBRANCH   3  11
TORSDOF 1
ENDMDL
MODEL 5
REMARK VINA RESULT:      -0.3      3.449      4.666
REMARK  Name = *****
REMARK                            x       y       z     vdW  Elec       q    Type
REMARK                         _______ _______ _______ _____ _____    ______ ____
ROOT
ATOM      1  C   LIG    1       25.248 -16.916   3.769  0.00  0.00    +0.134 C 
ATOM      2  N   LIG    1       24.154 -17.748   4.264  0.00  0.00    -0.279 N 
ATOM      3  C   LIG    1       24.379 -19.216   4.235  0.00  0.00    +0.249 C 
ATOM      4  S   LIG    1       23.051 -20.300   4.833  0.00  0.00    -0.007 S 
ATOM      5  O   LIG    1       23.118 -21.572   4.137  0.00  0.00    -0.172 OA
ATOM      6  O   LIG    1       22.941 -20.242   6.279  0.00  0.00    -0.172 OA
ATOM      7  C   LIG    1       21.666 -19.425   4.178  0.00  0.00    +0.177 C 
ATOM      8  C   LIG    1       21.701 -17.996   4.657  0.00  0.00    +0.118 C 
ATOM      9  C   LIG    1       22.879 -17.207   4.121  0.00  0.00    +0.218 C 
ATOM     10  O   LIG    1       22.686 -16.082   3.661  0.00  0.00    -0.276 OA
ENDROOT
BRANCH   3  11
ATOM     11  C   LIG    1       25.656 -19.655   4.939  0.00  0.00    -0.006 A 
ATOM     12  C   LIG    1       26.919 -19.234   4.489  0.00  0.00    +0.008 A 
ATOM     13  C   LIG    1       28.083 -19.645   5.143  0.00  0.00    +0.020 A 
ATOM     14  C   LIG    1       27.995 -20.478   6.255  0.00  0.00    +0.041 A 
ATOM     15 CL   LIG    1       29.427 -20.986   7.059  0.00  0.00    -0.084 Cl
ATOM     16  C   LIG    1       26.752 -20.901   6.721  0.00  0.00    +0.020 A 
ATOM     17  C   LIG    1       25.587 -20.491   6.068  0.00  0.00    +0.008 A 
ENDBRANCH   3  11
TORSDOF 1
ENDMDL
