MODEL 1
REMARK VINA RESULT:      -7.5      0.000      0.000
REMARK  Name = *****
REMARK                            x       y       z     vdW  Elec       q    Type
REMARK                         _______ _______ _______ _____ _____    ______ ____
ROOT
ATOM      1  C   LIG    1       29.364 -19.080   7.538  0.00  0.00    +0.173 C 
ENDROOT
BRANCH   1   7
ATOM      2  O   LIG    1       32.737 -17.502  10.623  0.00  0.00    -0.158 OA
ATOM      3  S   LIG    1       32.091 -16.996   9.434  0.00  0.00    +0.032 S 
ATOM      4  N   LIG    1       32.220 -18.140   8.230  0.00  0.00    -0.180 NA
ATOM      5  H   LIG    1       32.099 -17.781   7.287  0.00  0.00    +0.149 HD
ATOM      6  C   LIG    1       31.610 -19.417   8.516  0.00  0.00    +0.192 C 
ATOM      7  N   LIG    1       30.170 -19.344   8.724  0.00  0.00    -0.274 NA
ATOM      8  C   LIG    1       29.845 -18.437   9.842  0.00  0.00    +0.111 C 
ATOM      9  C   LIG    1       30.335 -17.005   9.691  0.00  0.00    +0.200 C 
ATOM     10  O   LIG    1       32.462 -15.732   8.840  0.00  0.00    -0.158 OA
ENDBRANCH   1   7
BRANCH   1  11
ATOM     11  N   LIG    1       28.983 -20.289   6.816  0.00  0.00    -0.274 NA
ATOM     12  C   LIG    1       29.082 -21.538   7.560  0.00  0.00    +0.192 C 
ATOM     13  N   LIG    1       28.087 -21.672   8.597  0.00  0.00    -0.180 NA
ATOM     14  H   LIG    1       28.245 -21.136   9.447  0.00  0.00    +0.149 HD
ATOM     15  S   LIG    1       26.505 -21.698   8.076  0.00  0.00    +0.032 S 
ATOM     16  O   LIG    1       26.332 -22.830   7.193  0.00  0.00    -0.158 OA
ATOM     17  O   LIG    1       25.684 -21.508   9.248  0.00  0.00    -0.158 OA
ATOM     18  C   LIG    1       26.463 -20.209   7.111  0.00  0.00    +0.200 C 
ATOM     19  C   LIG    1       27.661 -20.168   6.171  0.00  0.00    +0.111 C 
ENDBRANCH   1  11
TORSDOF 2
ENDMDL
MODEL 2
REMARK VINA RESULT:      -7.5      0.064      6.103
REMARK  Name = *****
REMARK                            x       y       z     vdW  Elec       q    Type
REMARK                         _______ _______ _______ _____ _____    ______ ____
ROOT
ATOM      1  C   LIG    1       29.424 -19.057   7.539  0.00  0.00    +0.173 C 
ENDROOT
BRANCH   1   7
ATOM      2  O   LIG    1       26.390 -22.801   7.144  0.00  0.00    -0.158 OA
ATOM      3  S   LIG    1       26.544 -21.672   8.031  0.00  0.00    +0.032 S 
ATOM      4  N   LIG    1       28.113 -21.645   8.591  0.00  0.00    -0.180 NA
ATOM      5  H   LIG    1       28.251 -21.111   9.445  0.00  0.00    +0.149 HD
ATOM      6  C   LIG    1       29.134 -21.513   7.579  0.00  0.00    +0.192 C 
ATOM      7  N   LIG    1       29.050 -20.270   6.822  0.00  0.00    -0.274 NA
ATOM      8  C   LIG    1       27.742 -20.149   6.151  0.00  0.00    +0.111 C 
ATOM      9  C   LIG    1       26.527 -20.182   7.067  0.00  0.00    +0.200 C 
ATOM     10  O   LIG    1       25.694 -21.482   9.185  0.00  0.00    -0.158 OA
ENDBRANCH   1   7
BRANCH   1  11
ATOM     11  N   LIG    1       30.201 -19.316   8.747  0.00  0.00    -0.274 NA
ATOM     12  C   LIG    1       31.646 -19.393   8.576  0.00  0.00    +0.192 C 
ATOM     13  N   LIG    1       32.261 -18.121   8.281  0.00  0.00    -0.180 NA
ATOM     14  H   LIG    1       32.152 -17.777   7.330  0.00  0.00    +0.149 HD
ATOM     15  S   LIG    1       32.110 -16.958   9.463  0.00  0.00    +0.032 S 
ATOM     16  O   LIG    1       32.738 -17.447  10.670  0.00  0.00    -0.158 OA
ATOM     17  O   LIG    1       32.488 -15.704   8.856  0.00  0.00    -0.158 OA
ATOM     18  C   LIG    1       30.350 -16.965   9.693  0.00  0.00    +0.200 C 
ATOM     19  C   LIG    1       29.854 -18.397   9.848  0.00  0.00    +0.111 C 
ENDBRANCH   1  11
TORSDOF 2
ENDMDL
MODEL 3
REMARK VINA RESULT:      -6.6      2.626      3.319
REMARK  Name = *****
REMARK                            x       y       z     vdW  Elec       q    Type
REMARK                         _______ _______ _______ _____ _____    ______ ____
ROOT
ATOM      1  C   LIG    1       27.337 -20.492   7.606  0.00  0.00    +0.173 C 
ENDROOT
BRANCH   1   7
ATOM      2  O   LIG    1       31.986 -19.437   6.798  0.00  0.00    -0.158 OA
ATOM      3  S   LIG    1       30.908 -18.872   7.575  0.00  0.00    +0.032 S 
ATOM      4  N   LIG    1       29.592 -18.653   6.578  0.00  0.00    -0.180 NA
ATOM      5  H   LIG    1       28.907 -17.983   6.918  0.00  0.00    +0.149 HD
ATOM      6  C   LIG    1       29.070 -19.850   5.962  0.00  0.00    +0.192 C 
ATOM      7  N   LIG    1       28.577 -20.833   6.918  0.00  0.00    -0.274 NA
ATOM      8  C   LIG    1       29.646 -21.243   7.850  0.00  0.00    +0.111 C 
ATOM      9  C   LIG    1       30.274 -20.122   8.664  0.00  0.00    +0.200 C 
ATOM     10  O   LIG    1       31.063 -17.646   8.324  0.00  0.00    -0.158 OA
ENDBRANCH   1   7
BRANCH   1  11
ATOM     11  N   LIG    1       26.509 -21.653   7.915  0.00  0.00    -0.274 NA
ATOM     12  C   LIG    1       25.344 -21.405   8.753  0.00  0.00    +0.192 C 
ATOM     13  N   LIG    1       24.302 -20.661   8.087  0.00  0.00    -0.180 NA
ATOM     14  H   LIG    1       24.458 -19.661   7.983  0.00  0.00    +0.149 HD
ATOM     15  S   LIG    1       23.627 -21.402   6.757  0.00  0.00    +0.032 S 
ATOM     16  O   LIG    1       23.032 -22.650   7.180  0.00  0.00    -0.158 OA
ATOM     17  O   LIG    1       22.868 -20.388   6.063  0.00  0.00    -0.158 OA
ATOM     18  C   LIG    1       25.088 -21.757   5.814  0.00  0.00    +0.200 C 
ATOM     19  C   LIG    1       26.133 -22.413   6.707  0.00  0.00    +0.111 C 
ENDBRANCH   1  11
TORSDOF 2
ENDMDL
MODEL 4
REMARK VINA RESULT:      -6.6      2.631      6.680
REMARK  Name = *****
REMARK                            x       y       z     vdW  Elec       q    Type
REMARK                         _______ _______ _______ _____ _____    ______ ____
ROOT
ATOM      1  C   LIG    1       27.326 -20.489   7.594  0.00  0.00    +0.173 C 
ENDROOT
BRANCH   1   7
ATOM      2  O   LIG    1       23.034 -22.676   7.174  0.00  0.00    -0.158 OA
ATOM      3  S   LIG    1       23.616 -21.427   6.742  0.00  0.00    +0.032 S 
ATOM      4  N   LIG    1       24.282 -20.663   8.064  0.00  0.00    -0.180 NA
ATOM      5  H   LIG    1       24.424 -19.663   7.951  0.00  0.00    +0.149 HD
ATOM      6  C   LIG    1       25.329 -21.390   8.742  0.00  0.00    +0.192 C 
ATOM      7  N   LIG    1       26.497 -21.647   7.908  0.00  0.00    -0.274 NA
ATOM      8  C   LIG    1       26.126 -22.419   6.706  0.00  0.00    +0.111 C 
ATOM      9  C   LIG    1       25.083 -21.774   5.806  0.00  0.00    +0.200 C 
ATOM     10  O   LIG    1       22.847 -20.427   6.036  0.00  0.00    -0.158 OA
ENDBRANCH   1   7
BRANCH   1  11
ATOM     11  N   LIG    1       28.566 -20.836   6.907  0.00  0.00    -0.274 NA
ATOM     12  C   LIG    1       29.068 -19.853   5.955  0.00  0.00    +0.192 C 
ATOM     13  N   LIG    1       29.581 -18.657   6.579  0.00  0.00    -0.180 NA
ATOM     14  H   LIG    1       28.889 -17.994   6.920  0.00  0.00    +0.149 HD
ATOM     15  S   LIG    1       30.891 -18.874   7.583  0.00  0.00    +0.032 S 
ATOM     16  O   LIG    1       31.977 -19.429   6.806  0.00  0.00    -0.158 OA
ATOM     17  O   LIG    1       31.036 -17.653   8.339  0.00  0.00    -0.158 OA
ATOM     18  C   LIG    1       30.260 -20.134   8.662  0.00  0.00    +0.200 C 
ATOM     19  C   LIG    1       29.630 -21.251   7.840  0.00  0.00    +0.111 C 
ENDBRANCH   1  11
TORSDOF 2
ENDMDL
MODEL 5
REMARK VINA RESULT:      -6.6      1.914      2.731
REMARK  Name = *****
REMARK                            x       y       z     vdW  Elec       q    Type
REMARK                         _______ _______ _______ _____ _____    ______ ____
ROOT
ATOM      1  C   LIG    1       28.535 -20.928   7.494  0.00  0.00    +0.173 C 
ENDROOT
BRANCH   1   7
ATOM      2  O   LIG    1       32.087 -17.919   8.804  0.00  0.00    -0.158 OA
ATOM      3  S   LIG    1       31.006 -18.611   9.468  0.00  0.00    +0.032 S 
ATOM      4  N   LIG    1       29.586 -18.274   8.665  0.00  0.00    -0.180 NA
ATOM      5  H   LIG    1       28.742 -18.429   9.209  0.00  0.00    +0.149 HD
ATOM      6  C   LIG    1       29.542 -18.679   7.280  0.00  0.00    +0.192 C 
ATOM      7  N   LIG    1       29.677 -20.117   7.086  0.00  0.00    -0.274 NA
ATOM      8  C   LIG    1       30.949 -20.608   7.652  0.00  0.00    +0.111 C 
ATOM      9  C   LIG    1       31.152 -20.348   9.137  0.00  0.00    +0.200 C 
ATOM     10  O   LIG    1       30.733 -18.432  10.876  0.00  0.00    -0.158 OA
ENDBRANCH   1   7
BRANCH   1  11
ATOM     11  N   LIG    1       27.258 -20.237   7.358  0.00  0.00    -0.274 NA
ATOM     12  C   LIG    1       26.546 -20.446   6.103  0.00  0.00    +0.192 C 
ATOM     13  N   LIG    1       26.004 -21.776   5.962  0.00  0.00    -0.180 NA
ATOM     14  H   LIG    1       26.667 -22.510   5.725  0.00  0.00    +0.149 HD
ATOM     15  S   LIG    1       24.859 -22.210   7.091  0.00  0.00    +0.032 S 
ATOM     16  O   LIG    1       23.742 -21.299   6.985  0.00  0.00    -0.158 OA
ATOM     17  O   LIG    1       24.695 -23.640   6.980  0.00  0.00    -0.158 OA
ATOM     18  C   LIG    1       25.742 -21.858   8.591  0.00  0.00    +0.200 C 
ATOM     19  C   LIG    1       26.365 -20.470   8.510  0.00  0.00    +0.111 C 
ENDBRANCH   1  11
TORSDOF 2
ENDMDL
MODEL 6
REMARK VINA RESULT:      -6.6      1.944      6.323
REMARK  Name = *****
REMARK                            x       y       z     vdW  Elec       q    Type
REMARK                         _______ _______ _______ _____ _____    ______ ____
ROOT
ATOM      1  C   LIG    1       28.510 -21.017   7.563  0.00  0.00    +0.173 C 
ENDROOT
BRANCH   1   7
ATOM      2  O   LIG    1       23.715 -21.208   6.970  0.00  0.00    -0.158 OA
ATOM      3  S   LIG    1       24.792 -22.164   7.080  0.00  0.00    +0.032 S 
ATOM      4  N   LIG    1       25.972 -21.765   5.974  0.00  0.00    -0.180 NA
ATOM      5  H   LIG    1       26.606 -22.523   5.736  0.00  0.00    +0.149 HD
ATOM      6  C   LIG    1       26.566 -20.459   6.140  0.00  0.00    +0.192 C 
ATOM      7  N   LIG    1       27.257 -20.287   7.411  0.00  0.00    -0.274 NA
ATOM      8  C   LIG    1       26.336 -20.503   8.544  0.00  0.00    +0.111 C 
ATOM      9  C   LIG    1       25.666 -21.868   8.596  0.00  0.00    +0.200 C 
ATOM     10  O   LIG    1       24.570 -23.586   6.948  0.00  0.00    -0.158 OA
ENDBRANCH   1   7
BRANCH   1  11
ATOM     11  N   LIG    1       29.681 -20.243   7.166  0.00  0.00    -0.274 NA
ATOM     12  C   LIG    1       29.599 -18.803   7.373  0.00  0.00    +0.192 C 
ATOM     13  N   LIG    1       29.638 -18.418   8.764  0.00  0.00    -0.180 NA
ATOM     14  H   LIG    1       28.782 -18.558   9.295  0.00  0.00    +0.149 HD
ATOM     15  S   LIG    1       31.036 -18.811   9.580  0.00  0.00    +0.032 S 
ATOM     16  O   LIG    1       32.145 -18.141   8.938  0.00  0.00    -0.158 OA
ATOM     17  O   LIG    1       30.751 -18.645  10.985  0.00  0.00    -0.158 OA
ATOM     18  C   LIG    1       31.134 -20.547   9.225  0.00  0.00    +0.200 C 
ATOM     19  C   LIG    1       30.932 -20.782   7.734  0.00  0.00    +0.111 C 
ENDBRANCH   1  11
TORSDOF 2
ENDMDL
MODEL 7
REMARK VINA RESULT:      -6.6      2.465      6.701
REMARK  Name = *****
REMARK                            x       y       z     vdW  Elec       q    Type
REMARK                         _______ _______ _______ _____ _____    ______ ____
ROOT
ATOM      1  C   LIG    1       27.732 -20.635   7.069  0.00  0.00    +0.173 C 
ENDROOT
BRANCH   1   7
ATOM      2  O   LIG    1       23.481 -22.847   6.424  0.00  0.00    -0.158 OA
ATOM      3  S   LIG    1       24.860 -23.119   6.093  0.00  0.00    +0.032 S 
ATOM      4  N   LIG    1       25.487 -21.796   5.298  0.00  0.00    -0.180 NA
ATOM      5  H   LIG    1       26.318 -21.987   4.745  0.00  0.00    +0.149 HD
ATOM      6  C   LIG    1       25.482 -20.561   6.046  0.00  0.00    +0.192 C 
ATOM      7  N   LIG    1       26.286 -20.607   7.260  0.00  0.00    -0.274 NA
ATOM      8  C   LIG    1       25.814 -21.674   8.163  0.00  0.00    +0.111 C 
ATOM      9  C   LIG    1       25.824 -23.081   7.582  0.00  0.00    +0.200 C 
ATOM     10  O   LIG    1       25.248 -24.280   5.324  0.00  0.00    -0.158 OA
ENDBRANCH   1   7
BRANCH   1  11
ATOM     11  N   LIG    1       28.481 -20.561   8.319  0.00  0.00    -0.274 NA
ATOM     12  C   LIG    1       29.659 -21.413   8.413  0.00  0.00    +0.192 C 
ATOM     13  N   LIG    1       30.748 -20.986   7.568  0.00  0.00    -0.180 NA
ATOM     14  H   LIG    1       30.659 -21.195   6.577  0.00  0.00    +0.149 HD
ATOM     15  S   LIG    1       31.376 -19.482   7.910  0.00  0.00    +0.032 S 
ATOM     16  O   LIG    1       31.887 -19.494   9.262  0.00  0.00    -0.158 OA
ATOM     17  O   LIG    1       32.201 -19.117   6.782  0.00  0.00    -0.158 OA
ATOM     18  C   LIG    1       29.897 -18.502   7.867  0.00  0.00    +0.200 C 
ATOM     19  C   LIG    1       28.809 -19.172   8.697  0.00  0.00    +0.111 C 
ENDBRANCH   1  11
TORSDOF 2
ENDMDL
MODEL 8
REMARK VINA RESULT:      -6.6      2.444      3.125
REMARK  Name = *****
REMARK                            x       y       z     vdW  Elec       q    Type
REMARK                         _______ _______ _______ _____ _____    ______ ____
ROOT
ATOM      1  C   LIG    1       27.741 -20.591   7.049  0.00  0.00    +0.173 C 
ENDROOT
BRANCH   1   7
ATOM      2  O   LIG    1       31.888 -19.484   9.275  0.00  0.00    -0.158 OA
ATOM      3  S   LIG    1       31.396 -19.468   7.918  0.00  0.00    +0.032 S 
ATOM      4  N   LIG    1       30.760 -20.967   7.565  0.00  0.00    -0.180 NA
ATOM      5  H   LIG    1       30.684 -21.175   6.573  0.00  0.00    +0.149 HD
ATOM      6  C   LIG    1       29.656 -21.387   8.396  0.00  0.00    +0.192 C 
ATOM      7  N   LIG    1       28.488 -20.521   8.299  0.00  0.00    -0.274 NA
ATOM      8  C   LIG    1       28.827 -19.135   8.678  0.00  0.00    +0.111 C 
ATOM      9  C   LIG    1       29.925 -18.478   7.854  0.00  0.00    +0.200 C 
ATOM     10  O   LIG    1       32.240 -19.109   6.801  0.00  0.00    -0.158 OA
ENDBRANCH   1   7
BRANCH   1  11
ATOM     11  N   LIG    1       26.295 -20.550   7.237  0.00  0.00    -0.274 NA
ATOM     12  C   LIG    1       25.490 -20.545   6.023  0.00  0.00    +0.192 C 
ATOM     13  N   LIG    1       25.506 -21.803   5.315  0.00  0.00    -0.180 NA
ATOM     14  H   LIG    1       26.344 -22.006   4.776  0.00  0.00    +0.149 HD
ATOM     15  S   LIG    1       24.880 -23.104   6.145  0.00  0.00    +0.032 S 
ATOM     16  O   LIG    1       23.495 -22.826   6.455  0.00  0.00    -0.158 OA
ATOM     17  O   LIG    1       25.280 -24.285   5.418  0.00  0.00    -0.158 OA
ATOM     18  C   LIG    1       25.830 -23.013   7.641  0.00  0.00    +0.200 C 
ATOM     19  C   LIG    1       25.820 -21.586   8.175  0.00  0.00    +0.111 C 
ENDBRANCH   1  11
TORSDOF 2
ENDMDL
MODEL 9
REMARK VINA RESULT:      -6.3      3.481      4.872
REMARK  Name = *****
REMARK                            x       y       z     vdW  Elec       q    Type
REMARK                         _______ _______ _______ _____ _____    ______ ____
ROOT
ATOM      1  C   LIG    1       26.412 -21.634   5.931  0.00  0.00    +0.173 C 
ENDROOT
BRANCH   1   7
ATOM      2  O   LIG    1       29.391 -19.093   8.769  0.00  0.00    -0.158 OA
ATOM      3  S   LIG    1       29.341 -20.439   8.248  0.00  0.00    +0.032 S 
ATOM      4  N   LIG    1       27.852 -21.094   8.606  0.00  0.00    -0.180 NA
ATOM      5  H   LIG    1       27.816 -22.109   8.583  0.00  0.00    +0.149 HD
ATOM      6  C   LIG    1       26.715 -20.398   8.051  0.00  0.00    +0.192 C 
ATOM      7  N   LIG    1       26.701 -20.368   6.594  0.00  0.00    -0.274 NA
ATOM      8  C   LIG    1       27.918 -19.719   6.069  0.00  0.00    +0.111 C 
ATOM      9  C   LIG    1       29.235 -20.363   6.478  0.00  0.00    +0.200 C 
ATOM     10  O   LIG    1       30.324 -21.436   8.607  0.00  0.00    -0.158 OA
ENDBRANCH   1   7
BRANCH   1  11
ATOM     11  N   LIG    1       25.185 -22.267   6.403  0.00  0.00    -0.274 NA
ATOM     12  C   LIG    1       24.243 -22.686   5.374  0.00  0.00    +0.192 C 
ATOM     13  N   LIG    1       24.698 -23.816   4.600  0.00  0.00    -0.180 NA
ATOM     14  H   LIG    1       25.406 -23.625   3.895  0.00  0.00    +0.149 HD
ATOM     15  S   LIG    1       24.932 -25.226   5.457  0.00  0.00    +0.032 S 
ATOM     16  O   LIG    1       23.673 -25.616   6.050  0.00  0.00    -0.158 OA
ATOM     17  O   LIG    1       25.679 -26.110   4.594  0.00  0.00    -0.158 OA
ATOM     18  C   LIG    1       26.012 -24.644   6.739  0.00  0.00    +0.200 C 
ATOM     19  C   LIG    1       25.448 -23.368   7.350  0.00  0.00    +0.111 C 
ENDBRANCH   1  11
TORSDOF 2
ENDMDL
