MODEL 1
REMARK VINA RESULT:      -2.9      0.000      0.000
REMARK  Name = *****
REMARK                            x       y       z     vdW  Elec       q    Type
REMARK                         _______ _______ _______ _____ _____    ______ ____
ROOT
ATOM      1  N   LIG    1       25.079 -17.210   3.678  0.00  0.00    -0.322 N 
ATOM      2  C   LIG    1       25.105 -15.847   3.779  0.00  0.00    +0.151 A 
ATOM      3  C   LIG    1       24.076 -14.895   4.040  0.00  0.00    +0.282 C 
ATOM      4  N   LIG    1       24.494 -13.577   3.808  0.00  0.00    -0.262 N 
ATOM      5  C   LIG    1       25.796 -13.178   3.446  0.00  0.00    +0.333 C 
ATOM      6  N   LIG    1       26.752 -14.183   3.293  0.00  0.00    -0.280 N 
ATOM      7  C   LIG    1       28.098 -13.861   2.853  0.00  0.00    +0.155 C 
ATOM      8  O   LIG    1       26.068 -11.986   3.270  0.00  0.00    -0.246 OA
ATOM      9  C   LIG    1       23.511 -12.522   3.955  0.00  0.00    +0.157 C 
ATOM     10  O   LIG    1       22.959 -15.206   4.423  0.00  0.00    -0.265 OA
ATOM     11  C   LIG    1       26.379 -15.496   3.453  0.00  0.00    +0.168 A 
ATOM     12  N   LIG    1       27.177 -16.585   3.271  0.00  0.00    -0.218 NA
ATOM     13  C   LIG    1       26.366 -17.613   3.419  0.00  0.00    +0.202 A 
ENDROOT
BRANCH   1  14
ATOM     14  C   LIG    1       23.909 -18.073   3.685  0.00  0.00    +0.156 C 
BRANCH  14  15
ATOM     15  C   LIG    1       24.271 -19.531   4.017  0.00  0.00    +0.148 C 
BRANCH  15  16
ATOM     16  O   LIG    1       24.119 -20.384   2.869  0.00  0.00    -0.389 OA
ATOM     17  H   LIG    1       24.556 -19.956   2.108  0.00  0.00    +0.210 HD
ENDBRANCH  15  16
BRANCH  15  18
ATOM     18  C   LIG    1       23.394 -20.110   5.152  0.00  0.00    +0.117 C 
BRANCH  18  20
ATOM     19  C   LIG    1       23.231 -21.571   7.060  0.00  0.00    +0.105 C 
ATOM     20  N   LIG    1       24.099 -20.635   6.332  0.00  0.00    -0.301 NA
BRANCH  20  21
ATOM     21  C   LIG    1       25.388 -21.275   6.006  0.00  0.00    +0.112 C 
BRANCH  21  22
ATOM     22  C   LIG    1       26.661 -20.501   6.379  0.00  0.00    +0.171 C 
BRANCH  22  23
ATOM     23  O   LIG    1       27.520 -20.433   5.248  0.00  0.00    -0.394 OA
ATOM     24  H   LIG    1       27.669 -21.348   4.953  0.00  0.00    +0.209 HD
ENDBRANCH  22  23
ENDBRANCH  21  22
ENDBRANCH  20  21
ENDBRANCH  18  20
ENDBRANCH  15  18
ENDBRANCH  14  15
ENDBRANCH   1  14
TORSDOF 8
ENDMDL
MODEL 2
REMARK VINA RESULT:      -2.6      1.798      6.856
REMARK  Name = *****
REMARK                            x       y       z     vdW  Elec       q    Type
REMARK                         _______ _______ _______ _____ _____    ______ ____
ROOT
ATOM      1  N   LIG    1       26.214 -18.309   3.742  0.00  0.00    -0.322 N 
ATOM      2  C   LIG    1       25.261 -19.144   4.256  0.00  0.00    +0.151 A 
ATOM      3  C   LIG    1       23.855 -19.225   4.042  0.00  0.00    +0.282 C 
ATOM      4  N   LIG    1       23.219 -20.070   4.963  0.00  0.00    -0.262 N 
ATOM      5  C   LIG    1       23.863 -20.845   5.948  0.00  0.00    +0.333 C 
ATOM      6  N   LIG    1       25.253 -20.756   6.023  0.00  0.00    -0.280 N 
ATOM      7  C   LIG    1       25.985 -21.468   7.055  0.00  0.00    +0.155 C 
ATOM      8  O   LIG    1       23.213 -21.567   6.711  0.00  0.00    -0.246 OA
ATOM      9  C   LIG    1       21.775 -20.168   4.904  0.00  0.00    +0.157 C 
ATOM     10  O   LIG    1       23.278 -18.620   3.152  0.00  0.00    -0.265 OA
ATOM     11  C   LIG    1       25.919 -19.897   5.180  0.00  0.00    +0.168 A 
ATOM     12  N   LIG    1       27.258 -19.652   5.180  0.00  0.00    -0.218 NA
ATOM     13  C   LIG    1       27.414 -18.688   4.294  0.00  0.00    +0.202 A 
ENDROOT
BRANCH   1  14
ATOM     14  C   LIG    1       26.003 -17.144   2.898  0.00  0.00    +0.156 C 
BRANCH  14  15
ATOM     15  C   LIG    1       26.017 -15.836   3.708  0.00  0.00    +0.148 C 
BRANCH  15  16
ATOM     16  O   LIG    1       24.691 -15.302   3.865  0.00  0.00    -0.389 OA
ATOM     17  H   LIG    1       24.612 -14.507   3.305  0.00  0.00    +0.210 HD
ENDBRANCH  15  16
BRANCH  15  18
ATOM     18  C   LIG    1       26.888 -14.744   3.042  0.00  0.00    +0.117 C 
BRANCH  18  20
ATOM     19  C   LIG    1       27.691 -12.570   3.699  0.00  0.00    +0.105 C 
ATOM     20  N   LIG    1       26.508 -13.346   3.301  0.00  0.00    -0.301 NA
BRANCH  20  21
ATOM     21  C   LIG    1       25.830 -12.703   2.159  0.00  0.00    +0.112 C 
BRANCH  21  22
ATOM     22  C   LIG    1       24.340 -12.372   2.333  0.00  0.00    +0.171 C 
BRANCH  22  23
ATOM     23  O   LIG    1       23.971 -12.562   3.693  0.00  0.00    -0.394 OA
ATOM     24  H   LIG    1       24.060 -11.699   4.132  0.00  0.00    +0.209 HD
ENDBRANCH  22  23
ENDBRANCH  21  22
ENDBRANCH  20  21
ENDBRANCH  18  20
ENDBRANCH  15  18
ENDBRANCH  14  15
ENDBRANCH   1  14
TORSDOF 8
ENDMDL
MODEL 3
REMARK VINA RESULT:      -2.1      1.491      2.598
REMARK  Name = *****
REMARK                            x       y       z     vdW  Elec       q    Type
REMARK                         _______ _______ _______ _____ _____    ______ ____
ROOT
ATOM      1  N   LIG    1       24.029 -16.923   3.909  0.00  0.00    -0.322 N 
ATOM      2  C   LIG    1       24.878 -15.854   3.827  0.00  0.00    +0.151 A 
ATOM      3  C   LIG    1       26.273 -15.769   3.549  0.00  0.00    +0.282 C 
ATOM      4  N   LIG    1       26.796 -14.495   3.812  0.00  0.00    -0.262 N 
ATOM      5  C   LIG    1       26.053 -13.368   4.217  0.00  0.00    +0.333 C 
ATOM      6  N   LIG    1       24.678 -13.536   4.385  0.00  0.00    -0.280 N 
ATOM      7  C   LIG    1       23.853 -12.444   4.868  0.00  0.00    +0.155 C 
ATOM      8  O   LIG    1       26.606 -12.282   4.418  0.00  0.00    -0.246 OA
ATOM      9  C   LIG    1       28.224 -14.305   3.650  0.00  0.00    +0.157 C 
ATOM     10  O   LIG    1       26.929 -16.709   3.129  0.00  0.00    -0.265 OA
ATOM     11  C   LIG    1       24.125 -14.781   4.195  0.00  0.00    +0.168 A 
ATOM     12  N   LIG    1       22.818 -15.115   4.386  0.00  0.00    -0.218 NA
ATOM     13  C   LIG    1       22.784 -16.420   4.200  0.00  0.00    +0.202 A 
ENDROOT
BRANCH   1  14
ATOM     14  C   LIG    1       24.380 -18.332   3.855  0.00  0.00    +0.156 C 
BRANCH  14  15
ATOM     15  C   LIG    1       23.169 -19.238   4.145  0.00  0.00    +0.148 C 
BRANCH  15  16
ATOM     16  O   LIG    1       22.340 -18.687   5.182  0.00  0.00    -0.389 OA
ATOM     17  H   LIG    1       22.831 -18.732   6.025  0.00  0.00    +0.210 HD
ENDBRANCH  15  16
BRANCH  15  18
ATOM     18  C   LIG    1       23.592 -20.658   4.586  0.00  0.00    +0.117 C 
BRANCH  18  20
ATOM     19  C   LIG    1       23.197 -21.572   6.780  0.00  0.00    +0.105 C 
ATOM     20  N   LIG    1       24.129 -20.796   5.950  0.00  0.00    -0.301 NA
BRANCH  20  21
ATOM     21  C   LIG    1       25.477 -21.396   5.990  0.00  0.00    +0.112 C 
BRANCH  21  22
ATOM     22  C   LIG    1       26.660 -20.433   6.174  0.00  0.00    +0.171 C 
BRANCH  22  23
ATOM     23  O   LIG    1       27.225 -20.135   4.904  0.00  0.00    -0.394 OA
ATOM     24  H   LIG    1       26.487 -19.897   4.317  0.00  0.00    +0.209 HD
ENDBRANCH  22  23
ENDBRANCH  21  22
ENDBRANCH  20  21
ENDBRANCH  18  20
ENDBRANCH  15  18
ENDBRANCH  14  15
ENDBRANCH   1  14
TORSDOF 8
ENDMDL
MODEL 4
REMARK VINA RESULT:      -2.0      1.622      6.305
REMARK  Name = *****
REMARK                            x       y       z     vdW  Elec       q    Type
REMARK                         _______ _______ _______ _____ _____    ______ ____
ROOT
ATOM      1  N   LIG    1       25.910 -16.902   3.451  0.00  0.00    -0.322 N 
ATOM      2  C   LIG    1       25.623 -18.156   3.913  0.00  0.00    +0.151 A 
ATOM      3  C   LIG    1       24.404 -18.894   3.959  0.00  0.00    +0.282 C 
ATOM      4  N   LIG    1       24.507 -20.050   4.745  0.00  0.00    -0.262 N 
ATOM      5  C   LIG    1       25.681 -20.522   5.365  0.00  0.00    +0.333 C 
ATOM      6  N   LIG    1       26.842 -19.768   5.193  0.00  0.00    -0.280 N 
ATOM      7  C   LIG    1       28.075 -20.148   5.857  0.00  0.00    +0.155 C 
ATOM      8  O   LIG    1       25.671 -21.560   6.035  0.00  0.00    -0.246 OA
ATOM      9  C   LIG    1       23.308 -20.841   4.941  0.00  0.00    +0.157 C 
ATOM     10  O   LIG    1       23.390 -18.547   3.374  0.00  0.00    -0.265 OA
ATOM     11  C   LIG    1       26.781 -18.594   4.478  0.00  0.00    +0.168 A 
ATOM     12  N   LIG    1       27.807 -17.721   4.283  0.00  0.00    -0.218 NA
ATOM     13  C   LIG    1       27.255 -16.704   3.651  0.00  0.00    +0.202 A 
ENDROOT
BRANCH   1  14
ATOM     14  C   LIG    1       24.970 -15.899   2.978  0.00  0.00    +0.156 C 
BRANCH  14  15
ATOM     15  C   LIG    1       24.620 -14.877   4.074  0.00  0.00    +0.148 C 
BRANCH  15  16
ATOM     16  O   LIG    1       23.209 -14.871   4.355  0.00  0.00    -0.389 OA
ATOM     17  H   LIG    1       22.741 -15.247   3.584  0.00  0.00    +0.210 HD
ENDBRANCH  15  16
BRANCH  15  18
ATOM     18  C   LIG    1       25.027 -13.436   3.684  0.00  0.00    +0.117 C 
BRANCH  18  20
ATOM     19  C   LIG    1       26.676 -13.625   5.430  0.00  0.00    +0.105 C 
ATOM     20  N   LIG    1       26.339 -12.968   4.160  0.00  0.00    -0.301 NA
BRANCH  20  21
ATOM     21  C   LIG    1       27.421 -13.162   3.176  0.00  0.00    +0.112 C 
BRANCH  21  22
ATOM     22  C   LIG    1       28.855 -13.226   3.723  0.00  0.00    +0.171 C 
BRANCH  22  23
ATOM     23  O   LIG    1       29.053 -12.165   4.649  0.00  0.00    -0.394 OA
ATOM     24  H   LIG    1       29.434 -12.560   5.452  0.00  0.00    +0.209 HD
ENDBRANCH  22  23
ENDBRANCH  21  22
ENDBRANCH  20  21
ENDBRANCH  18  20
ENDBRANCH  15  18
ENDBRANCH  14  15
ENDBRANCH   1  14
TORSDOF 8
ENDMDL
MODEL 5
REMARK VINA RESULT:      -1.9      2.084      3.476
REMARK  Name = *****
REMARK                            x       y       z     vdW  Elec       q    Type
REMARK                         _______ _______ _______ _____ _____    ______ ____
ROOT
ATOM      1  N   LIG    1       24.463 -19.097   3.819  0.00  0.00    -0.322 N 
ATOM      2  C   LIG    1       24.733 -17.761   3.713  0.00  0.00    +0.151 A 
ATOM      3  C   LIG    1       25.929 -17.058   3.385  0.00  0.00    +0.282 C 
ATOM      4  N   LIG    1       25.829 -15.682   3.636  0.00  0.00    -0.262 N 
ATOM      5  C   LIG    1       24.671 -15.008   4.074  0.00  0.00    +0.333 C 
ATOM      6  N   LIG    1       23.527 -15.777   4.290  0.00  0.00    -0.280 N 
ATOM      7  C   LIG    1       22.316 -15.170   4.808  0.00  0.00    +0.155 C 
ATOM      8  O   LIG    1       24.681 -13.787   4.261  0.00  0.00    -0.246 OA
ATOM      9  C   LIG    1       27.010 -14.870   3.425  0.00  0.00    +0.157 C 
ATOM     10  O   LIG    1       26.924 -17.605   2.937  0.00  0.00    -0.265 OA
ATOM     11  C   LIG    1       23.590 -17.140   4.113  0.00  0.00    +0.168 A 
ATOM     12  N   LIG    1       22.583 -18.026   4.349  0.00  0.00    -0.218 NA
ATOM     13  C   LIG    1       23.136 -19.207   4.157  0.00  0.00    +0.202 A 
ENDROOT
BRANCH   1  14
ATOM     14  C   LIG    1       25.410 -20.197   3.745  0.00  0.00    +0.156 C 
BRANCH  14  15
ATOM     15  C   LIG    1       25.460 -21.002   5.055  0.00  0.00    +0.148 C 
BRANCH  15  16
ATOM     16  O   LIG    1       24.171 -21.549   5.384  0.00  0.00    -0.389 OA
ATOM     17  H   LIG    1       24.299 -22.265   6.036  0.00  0.00    +0.210 HD
ENDBRANCH  15  16
BRANCH  15  18
ATOM     18  C   LIG    1       25.926 -20.143   6.254  0.00  0.00    +0.117 C 
BRANCH  18  20
ATOM     19  C   LIG    1       27.694 -21.566   7.062  0.00  0.00    +0.105 C 
ATOM     20  N   LIG    1       27.354 -20.211   6.603  0.00  0.00    -0.301 NA
BRANCH  20  21
ATOM     21  C   LIG    1       28.245 -19.802   5.500  0.00  0.00    +0.112 C 
BRANCH  21  22
ATOM     22  C   LIG    1       29.221 -18.651   5.786  0.00  0.00    +0.171 C 
BRANCH  22  23
ATOM     23  O   LIG    1       29.026 -17.618   4.829  0.00  0.00    -0.394 OA
ATOM     24  H   LIG    1       29.541 -17.864   4.041  0.00  0.00    +0.209 HD
ENDBRANCH  22  23
ENDBRANCH  21  22
ENDBRANCH  20  21
ENDBRANCH  18  20
ENDBRANCH  15  18
ENDBRANCH  14  15
ENDBRANCH   1  14
TORSDOF 8
ENDMDL
MODEL 6
REMARK VINA RESULT:      -1.4      2.176      6.824
REMARK  Name = *****
REMARK                            x       y       z     vdW  Elec       q    Type
REMARK                         _______ _______ _______ _____ _____    ______ ____
ROOT
ATOM      1  N   LIG    1       25.975 -17.781   3.471  0.00  0.00    -0.322 N 
ATOM      2  C   LIG    1       26.565 -18.532   4.449  0.00  0.00    +0.151 A 
ATOM      3  C   LIG    1       27.875 -18.498   5.011  0.00  0.00    +0.282 C 
ATOM      4  N   LIG    1       28.140 -19.612   5.819  0.00  0.00    -0.262 N 
ATOM      5  C   LIG    1       27.222 -20.630   6.145  0.00  0.00    +0.333 C 
ATOM      6  N   LIG    1       25.938 -20.528   5.608  0.00  0.00    -0.280 N 
ATOM      7  C   LIG    1       24.956 -21.572   5.838  0.00  0.00    +0.155 C 
ATOM      8  O   LIG    1       27.551 -21.571   6.874  0.00  0.00    -0.246 OA
ATOM      9  C   LIG    1       29.471 -19.737   6.379  0.00  0.00    +0.157 C 
ATOM     10  O   LIG    1       28.668 -17.593   4.804  0.00  0.00    -0.265 OA
ATOM     11  C   LIG    1       25.645 -19.484   4.762  0.00  0.00    +0.168 A 
ATOM     12  N   LIG    1       24.465 -19.289   4.110  0.00  0.00    -0.218 NA
ATOM     13  C   LIG    1       24.689 -18.245   3.337  0.00  0.00    +0.202 A 
ENDROOT
BRANCH   1  14
ATOM     14  C   LIG    1       26.608 -16.787   2.619  0.00  0.00    +0.156 C 
BRANCH  14  15
ATOM     15  C   LIG    1       25.893 -15.426   2.695  0.00  0.00    +0.148 C 
BRANCH  15  16
ATOM     16  O   LIG    1       26.555 -14.441   1.883  0.00  0.00    -0.389 OA
ATOM     17  H   LIG    1       26.412 -13.564   2.286  0.00  0.00    +0.210 HD
ENDBRANCH  15  16
BRANCH  15  18
ATOM     18  C   LIG    1       25.828 -14.878   4.140  0.00  0.00    +0.117 C 
BRANCH  18  20
ATOM     19  C   LIG    1       24.633 -12.859   4.687  0.00  0.00    +0.105 C 
ATOM     20  N   LIG    1       25.935 -13.419   4.299  0.00  0.00    -0.301 NA
BRANCH  20  21
ATOM     21  C   LIG    1       26.979 -13.011   5.260  0.00  0.00    +0.112 C 
BRANCH  21  22
ATOM     22  C   LIG    1       28.305 -12.505   4.672  0.00  0.00    +0.171 C 
BRANCH  22  23
ATOM     23  O   LIG    1       29.105 -11.963   5.714  0.00  0.00    -0.394 OA
ATOM     24  H   LIG    1       29.466 -12.716   6.212  0.00  0.00    +0.209 HD
ENDBRANCH  22  23
ENDBRANCH  21  22
ENDBRANCH  20  21
ENDBRANCH  18  20
ENDBRANCH  15  18
ENDBRANCH  14  15
ENDBRANCH   1  14
TORSDOF 8
ENDMDL
MODEL 7
REMARK VINA RESULT:      -1.4      2.199      6.755
REMARK  Name = *****
REMARK                            x       y       z     vdW  Elec       q    Type
REMARK                         _______ _______ _______ _____ _____    ______ ____
ROOT
ATOM      1  N   LIG    1       23.471 -15.968   4.164  0.00  0.00    -0.322 N 
ATOM      2  C   LIG    1       23.911 -17.258   4.051  0.00  0.00    +0.151 A 
ATOM      3  C   LIG    1       25.101 -17.809   3.492  0.00  0.00    +0.282 C 
ATOM      4  N   LIG    1       25.035 -19.203   3.360  0.00  0.00    -0.262 N 
ATOM      5  C   LIG    1       23.976 -20.022   3.799  0.00  0.00    +0.333 C 
ATOM      6  N   LIG    1       22.891 -19.391   4.408  0.00  0.00    -0.280 N 
ATOM      7  C   LIG    1       21.730 -20.156   4.824  0.00  0.00    +0.155 C 
ATOM      8  O   LIG    1       24.015 -21.247   3.642  0.00  0.00    -0.246 OA
ATOM      9  C   LIG    1       26.151 -19.873   2.722  0.00  0.00    +0.157 C 
ATOM     10  O   LIG    1       26.063 -17.131   3.167  0.00  0.00    -0.265 OA
ATOM     11  C   LIG    1       22.881 -18.020   4.509  0.00  0.00    +0.168 A 
ATOM     12  N   LIG    1       21.868 -17.261   5.013  0.00  0.00    -0.218 NA
ATOM     13  C   LIG    1       22.253 -16.019   4.798  0.00  0.00    +0.202 A 
ENDROOT
BRANCH   1  14
ATOM     14  C   LIG    1       24.080 -14.776   3.598  0.00  0.00    +0.156 C 
BRANCH  14  15
ATOM     15  C   LIG    1       24.366 -13.710   4.671  0.00  0.00    +0.148 C 
BRANCH  15  16
ATOM     16  O   LIG    1       23.731 -12.460   4.351  0.00  0.00    -0.389 OA
ATOM     17  H   LIG    1       22.848 -12.449   4.767  0.00  0.00    +0.210 HD
ENDBRANCH  15  16
BRANCH  15  18
ATOM     18  C   LIG    1       25.880 -13.439   4.839  0.00  0.00    +0.117 C 
BRANCH  18  20
ATOM     19  C   LIG    1       26.520 -13.122   2.538  0.00  0.00    +0.105 C 
ATOM     20  N   LIG    1       26.760 -13.908   3.757  0.00  0.00    -0.301 NA
BRANCH  20  21
ATOM     21  C   LIG    1       28.192 -13.880   4.115  0.00  0.00    +0.112 C 
BRANCH  21  22
ATOM     22  C   LIG    1       28.884 -12.509   4.102  0.00  0.00    +0.171 C 
BRANCH  22  23
ATOM     23  O   LIG    1       28.962 -12.009   5.430  0.00  0.00    -0.394 OA
ATOM     24  H   LIG    1       29.880 -11.718   5.568  0.00  0.00    +0.209 HD
ENDBRANCH  22  23
ENDBRANCH  21  22
ENDBRANCH  20  21
ENDBRANCH  18  20
ENDBRANCH  15  18
ENDBRANCH  14  15
ENDBRANCH   1  14
TORSDOF 8
ENDMDL
MODEL 8
REMARK VINA RESULT:      -1.4      1.711      3.186
REMARK  Name = *****
REMARK                            x       y       z     vdW  Elec       q    Type
REMARK                         _______ _______ _______ _____ _____    ______ ____
ROOT
ATOM      1  N   LIG    1       24.145 -17.434   3.659  0.00  0.00    -0.322 N 
ATOM      2  C   LIG    1       24.864 -16.273   3.734  0.00  0.00    +0.151 A 
ATOM      3  C   LIG    1       26.228 -15.981   3.444  0.00  0.00    +0.282 C 
ATOM      4  N   LIG    1       26.614 -14.713   3.898  0.00  0.00    -0.262 N 
ATOM      5  C   LIG    1       25.765 -13.760   4.498  0.00  0.00    +0.333 C 
ATOM      6  N   LIG    1       24.426 -14.114   4.665  0.00  0.00    -0.280 N 
ATOM      7  C   LIG    1       23.504 -13.217   5.337  0.00  0.00    +0.155 C 
ATOM      8  O   LIG    1       26.201 -12.663   4.861  0.00  0.00    -0.246 OA
ATOM      9  C   LIG    1       28.004 -14.333   3.740  0.00  0.00    +0.157 C 
ATOM     10  O   LIG    1       26.969 -16.759   2.862  0.00  0.00    -0.265 OA
ATOM     11  C   LIG    1       24.010 -15.369   4.287  0.00  0.00    +0.168 A 
ATOM     12  N   LIG    1       22.758 -15.881   4.450  0.00  0.00    -0.218 NA
ATOM     13  C   LIG    1       22.864 -17.134   4.054  0.00  0.00    +0.202 A 
ENDROOT
BRANCH   1  14
ATOM     14  C   LIG    1       24.650 -18.766   3.369  0.00  0.00    +0.156 C 
BRANCH  14  15
ATOM     15  C   LIG    1       25.386 -19.377   4.574  0.00  0.00    +0.148 C 
BRANCH  15  16
ATOM     16  O   LIG    1       26.805 -19.158   4.488  0.00  0.00    -0.389 OA
ATOM     17  H   LIG    1       27.255 -20.021   4.566  0.00  0.00    +0.210 HD
ENDBRANCH  15  16
BRANCH  15  18
ATOM     18  C   LIG    1       25.153 -20.902   4.692  0.00  0.00    +0.117 C 
BRANCH  18  20
ATOM     19  C   LIG    1       25.413 -20.558   7.062  0.00  0.00    +0.105 C 
ATOM     20  N   LIG    1       24.820 -21.419   6.029  0.00  0.00    -0.301 NA
BRANCH  20  21
ATOM     21  C   LIG    1       23.370 -21.571   6.253  0.00  0.00    +0.112 C 
BRANCH  21  22
ATOM     22  C   LIG    1       22.442 -20.665   5.430  0.00  0.00    +0.171 C 
BRANCH  22  23
ATOM     23  O   LIG    1       21.485 -21.466   4.748  0.00  0.00    -0.394 OA
ATOM     24  H   LIG    1       21.053 -22.021   5.420  0.00  0.00    +0.209 HD
ENDBRANCH  22  23
ENDBRANCH  21  22
ENDBRANCH  20  21
ENDBRANCH  18  20
ENDBRANCH  15  18
ENDBRANCH  14  15
ENDBRANCH   1  14
TORSDOF 8
ENDMDL
MODEL 9
REMARK VINA RESULT:      -1.0      2.087      6.898
REMARK  Name = *****
REMARK                            x       y       z     vdW  Elec       q    Type
REMARK                         _______ _______ _______ _____ _____    ______ ____
ROOT
ATOM      1  N   LIG    1       26.087 -17.848   3.454  0.00  0.00    -0.322 N 
ATOM      2  C   LIG    1       26.642 -18.564   4.478  0.00  0.00    +0.151 A 
ATOM      3  C   LIG    1       27.928 -18.506   5.089  0.00  0.00    +0.282 C 
ATOM      4  N   LIG    1       28.166 -19.593   5.941  0.00  0.00    -0.262 N 
ATOM      5  C   LIG    1       27.240 -20.606   6.263  0.00  0.00    +0.333 C 
ATOM      6  N   LIG    1       25.978 -20.527   5.673  0.00  0.00    -0.280 N 
ATOM      7  C   LIG    1       24.992 -21.568   5.897  0.00  0.00    +0.155 C 
ATOM      8  O   LIG    1       27.544 -21.522   7.033  0.00  0.00    -0.246 OA
ATOM      9  C   LIG    1       29.475 -19.694   6.556  0.00  0.00    +0.157 C 
ATOM     10  O   LIG    1       28.725 -17.604   4.884  0.00  0.00    -0.265 OA
ATOM     11  C   LIG    1       25.714 -19.512   4.784  0.00  0.00    +0.168 A 
ATOM     12  N   LIG    1       24.560 -19.343   4.080  0.00  0.00    -0.218 NA
ATOM     13  C   LIG    1       24.809 -18.322   3.284  0.00  0.00    +0.202 A 
ENDROOT
BRANCH   1  14
ATOM     14  C   LIG    1       26.749 -16.878   2.597  0.00  0.00    +0.156 C 
BRANCH  14  15
ATOM     15  C   LIG    1       26.317 -15.436   2.920  0.00  0.00    +0.148 C 
BRANCH  15  16
ATOM     16  O   LIG    1       26.700 -14.527   1.873  0.00  0.00    -0.389 OA
ATOM     17  H   LIG    1       27.400 -14.950   1.340  0.00  0.00    +0.210 HD
ENDBRANCH  15  16
BRANCH  15  18
ATOM     18  C   LIG    1       26.937 -14.920   4.240  0.00  0.00    +0.117 C 
BRANCH  18  20
ATOM     19  C   LIG    1       26.942 -12.662   5.078  0.00  0.00    +0.105 C 
ATOM     20  N   LIG    1       26.168 -13.907   4.981  0.00  0.00    -0.301 NA
BRANCH  20  21
ATOM     21  C   LIG    1       24.837 -13.643   4.400  0.00  0.00    +0.112 C 
BRANCH  21  22
ATOM     22  C   LIG    1       24.664 -12.324   3.633  0.00  0.00    +0.171 C 
BRANCH  22  23
ATOM     23  O   LIG    1       23.988 -12.576   2.407  0.00  0.00    -0.394 OA
ATOM     24  H   LIG    1       23.372 -11.836   2.268  0.00  0.00    +0.209 HD
ENDBRANCH  22  23
ENDBRANCH  21  22
ENDBRANCH  20  21
ENDBRANCH  18  20
ENDBRANCH  15  18
ENDBRANCH  14  15
ENDBRANCH   1  14
TORSDOF 8
ENDMDL
