MODEL 1
REMARK VINA RESULT:      -6.1      0.000      0.000
REMARK  Name = *****
REMARK                            x       y       z     vdW  Elec       q    Type
REMARK                         _______ _______ _______ _____ _____    ______ ____
ROOT
ATOM      1  C   LIG    1       25.400 -29.777  10.106  0.00  0.00    +0.108 C 
ATOM      2  C   LIG    1       25.178 -31.206   9.551  0.00  0.00    +0.042 C 
ATOM      3  C   LIG    1       24.381 -32.140  10.463  0.00  0.00    +0.109 C 
ATOM      4  C   LIG    1       24.162 -33.527   9.872  0.00  0.00    +0.153 C 
ATOM      5  C   LIG    1       24.743 -33.825   8.524  0.00  0.00    +0.045 C 
ATOM      6  C   LIG    1       24.489 -32.676   7.509  0.00  0.00    +0.013 C 
ATOM      7  C   LIG    1       23.100 -32.906   6.866  0.00  0.00    +0.015 C 
ATOM      8  C   LIG    1       25.614 -32.586   6.435  0.00  0.00    +0.120 C 
ATOM      9  O   LIG    1       26.916 -32.631   7.051  0.00  0.00    -0.458 OA
ATOM     10  C   LIG    1       27.818 -33.200   6.198  0.00  0.00    +0.308 C 
ATOM     11  O   LIG    1       29.015 -33.261   6.408  0.00  0.00    -0.251 OA
ATOM     12  C   LIG    1       27.115 -33.679   4.963  0.00  0.00    +0.124 C 
ATOM     13  C   LIG    1       25.668 -33.691   5.400  0.00  0.00    +0.060 C 
ATOM     14  C   LIG    1       25.436 -31.181   5.856  0.00  0.00    +0.049 C 
ATOM     15  C   LIG    1       25.192 -30.326   7.097  0.00  0.00    +0.008 C 
ATOM     16  O   LIG    1       25.144 -33.291  10.880  0.00  0.00    -0.363 OA
ATOM     17  C   LIG    1       23.431 -31.582  11.548  0.00  0.00    +0.021 C 
ATOM     18  C   LIG    1       23.677 -32.291  12.906  0.00  0.00    +0.019 C 
ATOM     19  C   LIG    1       23.651 -30.091  11.790  0.00  0.00    -0.057 C 
ATOM     20  C   LIG    1       22.668 -29.228  12.100  0.00  0.00    +0.046 C 
ATOM     21  C   LIG    1       21.264 -29.676  12.256  0.00  0.00    +0.156 C 
ATOM     22  O   LIG    1       20.408 -28.867  12.603  0.00  0.00    -0.293 OA
ATOM     23  C   LIG    1       20.943 -31.133  12.031  0.00  0.00    +0.080 C 
ATOM     24  C   LIG    1       21.958 -31.799  11.109  0.00  0.00    +0.022 C 
ATOM     25  C   LIG    1       24.509 -31.233   8.145  0.00  0.00    +0.006 C 
ATOM     26  C   LIG    1       25.068 -29.627  11.585  0.00  0.00    +0.046 C 
ENDROOT
BRANCH   1  27
ATOM     27  C   LIG    1       26.818 -29.275   9.870  0.00  0.00    +0.311 C 
ATOM     28  O   LIG    1       27.071 -28.262   9.230  0.00  0.00    -0.251 OA
BRANCH  27  30
ATOM     29  C   LIG    1       28.498 -29.495  11.493  0.00  0.00    +0.280 C 
ATOM     30  O   LIG    1       27.748 -30.087  10.432  0.00  0.00    -0.468 OA
ENDBRANCH  27  30
ENDBRANCH   1  27
TORSDOF 2
ENDMDL
MODEL 2
REMARK VINA RESULT:      -5.3      1.773      2.463
REMARK  Name = *****
REMARK                            x       y       z     vdW  Elec       q    Type
REMARK                         _______ _______ _______ _____ _____    ______ ____
ROOT
ATOM      1  C   LIG    1       25.422 -28.628  11.352  0.00  0.00    +0.108 C 
ATOM      2  C   LIG    1       24.916 -30.087  11.235  0.00  0.00    +0.042 C 
ATOM      3  C   LIG    1       24.242 -30.643  12.491  0.00  0.00    +0.109 C 
ATOM      4  C   LIG    1       23.737 -32.070  12.330  0.00  0.00    +0.153 C 
ATOM      5  C   LIG    1       23.959 -32.759  11.018  0.00  0.00    +0.045 C 
ATOM      6  C   LIG    1       23.618 -31.844   9.810  0.00  0.00    +0.013 C 
ATOM      7  C   LIG    1       22.102 -31.976   9.523  0.00  0.00    +0.015 C 
ATOM      8  C   LIG    1       24.473 -32.190   8.555  0.00  0.00    +0.120 C 
ATOM      9  O   LIG    1       25.866 -32.312   8.902  0.00  0.00    -0.458 OA
ATOM     10  C   LIG    1       26.480 -33.203   8.068  0.00  0.00    +0.308 C 
ATOM     11  O   LIG    1       27.678 -33.416   8.055  0.00  0.00    -0.251 OA
ATOM     12  C   LIG    1       25.466 -33.824   7.155  0.00  0.00    +0.124 C 
ATOM     13  C   LIG    1       24.163 -33.494   7.848  0.00  0.00    +0.060 C 
ATOM     14  C   LIG    1       24.333 -30.943   7.679  0.00  0.00    +0.049 C 
ATOM     15  C   LIG    1       24.477 -29.800   8.681  0.00  0.00    +0.008 C 
ATOM     16  O   LIG    1       24.941 -31.781  13.037  0.00  0.00    -0.363 OA
ATOM     17  C   LIG    1       23.634 -29.702  13.557  0.00  0.00    +0.021 C 
ATOM     18  C   LIG    1       24.096 -30.116  14.979  0.00  0.00    +0.019 C 
ATOM     19  C   LIG    1       24.075 -28.253  13.361  0.00  0.00    -0.057 C 
ATOM     20  C   LIG    1       23.294 -27.190  13.620  0.00  0.00    +0.046 C 
ATOM     21  C   LIG    1       21.919 -27.349  14.150  0.00  0.00    +0.156 C 
ATOM     22  O   LIG    1       21.263 -26.350  14.434  0.00  0.00    -0.293 OA
ATOM     23  C   LIG    1       21.388 -28.743  14.373  0.00  0.00    +0.080 C 
ATOM     24  C   LIG    1       22.085 -29.762  13.477  0.00  0.00    +0.022 C 
ATOM     25  C   LIG    1       23.948 -30.319  10.038  0.00  0.00    +0.006 C 
ATOM     26  C   LIG    1       25.452 -28.093  12.777  0.00  0.00    +0.046 C 
ENDROOT
BRANCH   1  27
ATOM     27  C   LIG    1       26.798 -28.437  10.729  0.00  0.00    +0.311 C 
ATOM     28  O   LIG    1       26.984 -28.384   9.519  0.00  0.00    -0.251 OA
BRANCH  27  30
ATOM     29  C   LIG    1       28.683 -29.459  11.684  0.00  0.00    +0.280 C 
ATOM     30  O   LIG    1       27.776 -28.356  11.666  0.00  0.00    -0.468 OA
ENDBRANCH  27  30
ENDBRANCH   1  27
TORSDOF 2
ENDMDL
MODEL 3
REMARK VINA RESULT:      -5.2      3.472      6.543
REMARK  Name = *****
REMARK                            x       y       z     vdW  Elec       q    Type
REMARK                         _______ _______ _______ _____ _____    ______ ____
ROOT
ATOM      1  C   LIG    1       23.456 -28.145  13.427  0.00  0.00    +0.108 C 
ATOM      2  C   LIG    1       23.565 -29.339  12.447  0.00  0.00    +0.042 C 
ATOM      3  C   LIG    1       24.892 -29.440  11.693  0.00  0.00    +0.109 C 
ATOM      4  C   LIG    1       24.970 -30.640  10.758  0.00  0.00    +0.153 C 
ATOM      5  C   LIG    1       23.782 -31.548  10.665  0.00  0.00    +0.045 C 
ATOM      6  C   LIG    1       23.196 -31.893  12.063  0.00  0.00    +0.013 C 
ATOM      7  C   LIG    1       23.974 -33.110  12.620  0.00  0.00    +0.015 C 
ATOM      8  C   LIG    1       21.664 -32.166  12.002  0.00  0.00    +0.120 C 
ATOM      9  O   LIG    1       20.989 -31.138  11.253  0.00  0.00    -0.458 OA
ATOM     10  C   LIG    1       19.878 -31.653  10.648  0.00  0.00    +0.308 C 
ATOM     11  O   LIG    1       19.055 -30.988  10.046  0.00  0.00    -0.251 OA
ATOM     12  C   LIG    1       19.811 -33.131  10.885  0.00  0.00    +0.124 C 
ATOM     13  C   LIG    1       21.219 -33.450  11.333  0.00  0.00    +0.060 C 
ATOM     14  C   LIG    1       21.224 -32.024  13.461  0.00  0.00    +0.049 C 
ATOM     15  C   LIG    1       21.983 -30.786  13.931  0.00  0.00    +0.008 C 
ATOM     16  O   LIG    1       24.727 -29.324  10.264  0.00  0.00    -0.363 OA
ATOM     17  C   LIG    1       26.177 -28.775  12.239  0.00  0.00    +0.021 C 
ATOM     18  C   LIG    1       26.889 -27.966  11.123  0.00  0.00    +0.019 C 
ATOM     19  C   LIG    1       25.877 -27.790  13.366  0.00  0.00    -0.057 C 
ATOM     20  C   LIG    1       26.687 -27.586  14.419  0.00  0.00    +0.046 C 
ATOM     21  C   LIG    1       27.977 -28.305  14.555  0.00  0.00    +0.156 C 
ATOM     22  O   LIG    1       28.717 -28.042  15.500  0.00  0.00    -0.293 OA
ATOM     23  C   LIG    1       28.361 -29.305  13.494  0.00  0.00    +0.080 C 
ATOM     24  C   LIG    1       27.136 -29.869  12.780  0.00  0.00    +0.022 C 
ATOM     25  C   LIG    1       23.293 -30.720  13.113  0.00  0.00    +0.006 C 
ATOM     26  C   LIG    1       24.547 -27.096  13.253  0.00  0.00    +0.046 C 
ENDROOT
BRANCH   1  27
ATOM     27  C   LIG    1       22.099 -27.455  13.356  0.00  0.00    +0.311 C 
ATOM     28  O   LIG    1       21.201 -27.821  12.609  0.00  0.00    -0.251 OA
BRANCH  27  30
ATOM     29  C   LIG    1       21.053 -26.520  15.237  0.00  0.00    +0.280 C 
ATOM     30  O   LIG    1       22.023 -26.392  14.196  0.00  0.00    -0.468 OA
ENDBRANCH  27  30
ENDBRANCH   1  27
TORSDOF 2
ENDMDL
MODEL 4
REMARK VINA RESULT:      -4.9      3.173      6.857
REMARK  Name = *****
REMARK                            x       y       z     vdW  Elec       q    Type
REMARK                         _______ _______ _______ _____ _____    ______ ____
ROOT
ATOM      1  C   LIG    1       25.278 -28.760  11.691  0.00  0.00    +0.108 C 
ATOM      2  C   LIG    1       24.625 -29.409  12.937  0.00  0.00    +0.042 C 
ATOM      3  C   LIG    1       25.418 -29.260  14.236  0.00  0.00    +0.109 C 
ATOM      4  C   LIG    1       24.733 -29.889  15.442  0.00  0.00    +0.153 C 
ATOM      5  C   LIG    1       23.417 -30.576  15.234  0.00  0.00    +0.045 C 
ATOM      6  C   LIG    1       22.455 -29.742  14.344  0.00  0.00    +0.013 C 
ATOM      7  C   LIG    1       21.695 -28.752  15.260  0.00  0.00    +0.015 C 
ATOM      8  C   LIG    1       21.477 -30.646  13.536  0.00  0.00    +0.120 C 
ATOM      9  O   LIG    1       22.187 -31.722  12.892  0.00  0.00    -0.458 OA
ATOM     10  C   LIG    1       21.373 -32.812  12.769  0.00  0.00    +0.308 C 
ATOM     11  O   LIG    1       21.671 -33.824  12.162  0.00  0.00    -0.251 OA
ATOM     12  C   LIG    1       20.063 -32.545  13.447  0.00  0.00    +0.124 C 
ATOM     13  C   LIG    1       20.387 -31.351  14.316  0.00  0.00    +0.060 C 
ATOM     14  C   LIG    1       20.969 -29.716  12.433  0.00  0.00    +0.049 C 
ATOM     15  C   LIG    1       22.235 -28.991  11.983  0.00  0.00    +0.008 C 
ATOM     16  O   LIG    1       25.824 -30.531  14.785  0.00  0.00    -0.363 OA
ATOM     17  C   LIG    1       26.458 -28.130  14.416  0.00  0.00    +0.021 C 
ATOM     18  C   LIG    1       27.787 -28.696  14.982  0.00  0.00    +0.019 C 
ATOM     19  C   LIG    1       26.803 -27.453  13.091  0.00  0.00    -0.057 C 
ATOM     20  C   LIG    1       27.086 -26.145  12.969  0.00  0.00    +0.046 C 
ATOM     21  C   LIG    1       27.108 -25.243  14.145  0.00  0.00    +0.156 C 
ATOM     22  O   LIG    1       27.435 -24.068  13.998  0.00  0.00    -0.293 OA
ATOM     23  C   LIG    1       26.775 -25.816  15.500  0.00  0.00    +0.080 C 
ATOM     24  C   LIG    1       25.895 -27.058  15.387  0.00  0.00    +0.022 C 
ATOM     25  C   LIG    1       23.174 -28.916  13.209  0.00  0.00    +0.006 C 
ATOM     26  C   LIG    1       26.734 -28.358  11.891  0.00  0.00    +0.046 C 
ENDROOT
BRANCH   1  27
ATOM     27  C   LIG    1       25.181 -29.644  10.455  0.00  0.00    +0.311 C 
ATOM     28  O   LIG    1       24.725 -30.781  10.479  0.00  0.00    -0.251 OA
BRANCH  27  30
ATOM     29  C   LIG    1       25.093 -29.463   8.116  0.00  0.00    +0.280 C 
ATOM     30  O   LIG    1       25.671 -29.031   9.348  0.00  0.00    -0.468 OA
ENDBRANCH  27  30
ENDBRANCH   1  27
TORSDOF 2
ENDMDL
MODEL 5
REMARK VINA RESULT:      -4.8      3.417      8.287
REMARK  Name = *****
REMARK                            x       y       z     vdW  Elec       q    Type
REMARK                         _______ _______ _______ _____ _____    ______ ____
ROOT
ATOM      1  C   LIG    1       22.557 -30.409  11.472  0.00  0.00    +0.108 C 
ATOM      2  C   LIG    1       22.480 -29.801  12.894  0.00  0.00    +0.042 C 
ATOM      3  C   LIG    1       23.697 -30.068  13.781  0.00  0.00    +0.109 C 
ATOM      4  C   LIG    1       23.594 -29.434  15.162  0.00  0.00    +0.153 C 
ATOM      5  C   LIG    1       22.354 -28.664  15.500  0.00  0.00    +0.045 C 
ATOM      6  C   LIG    1       21.925 -27.710  14.351  0.00  0.00    +0.013 C 
ATOM      7  C   LIG    1       22.696 -26.378  14.522  0.00  0.00    +0.015 C 
ATOM      8  C   LIG    1       20.384 -27.485  14.324  0.00  0.00    +0.120 C 
ATOM      9  O   LIG    1       19.681 -28.738  14.422  0.00  0.00    -0.458 OA
ATOM     10  C   LIG    1       18.478 -28.553  15.041  0.00  0.00    +0.308 C 
ATOM     11  O   LIG    1       17.626 -29.415  15.156  0.00  0.00    -0.251 OA
ATOM     12  C   LIG    1       18.358 -27.131  15.500  0.00  0.00    +0.124 C 
ATOM     13  C   LIG    1       19.790 -26.651  15.441  0.00  0.00    +0.060 C 
ATOM     14  C   LIG    1       20.134 -26.935  12.918  0.00  0.00    +0.049 C 
ATOM     15  C   LIG    1       21.012 -27.823  12.040  0.00  0.00    +0.008 C 
ATOM     16  O   LIG    1       23.366 -30.828  14.962  0.00  0.00    -0.363 OA
ATOM     17  C   LIG    1       25.074 -30.416  13.169  0.00  0.00    +0.021 C 
ATOM     18  C   LIG    1       25.689 -31.653  13.875  0.00  0.00    +0.019 C 
ATOM     19  C   LIG    1       24.969 -30.768  11.687  0.00  0.00    -0.057 C 
ATOM     20  C   LIG    1       25.912 -30.469  10.776  0.00  0.00    +0.046 C 
ATOM     21  C   LIG    1       27.166 -29.777  11.158  0.00  0.00    +0.156 C 
ATOM     22  O   LIG    1       28.029 -29.580  10.306  0.00  0.00    -0.293 OA
ATOM     23  C   LIG    1       27.361 -29.381  12.600  0.00  0.00    +0.080 C 
ATOM     24  C   LIG    1       26.030 -29.202  13.322  0.00  0.00    +0.022 C 
ATOM     25  C   LIG    1       22.214 -28.267  12.904  0.00  0.00    +0.006 C 
ATOM     26  C   LIG    1       23.676 -31.427  11.291  0.00  0.00    +0.046 C 
ENDROOT
BRANCH   1  27
ATOM     27  C   LIG    1       21.243 -31.045  11.037  0.00  0.00    +0.311 C 
ATOM     28  O   LIG    1       20.998 -31.349   9.876  0.00  0.00    -0.251 OA
BRANCH  27  30
ATOM     29  C   LIG    1       19.045 -31.526  11.706  0.00  0.00    +0.280 C 
ATOM     30  O   LIG    1       20.388 -31.210  12.078  0.00  0.00    -0.468 OA
ENDBRANCH  27  30
ENDBRANCH   1  27
TORSDOF 2
ENDMDL
MODEL 6
REMARK VINA RESULT:      -4.7      2.610      7.054
REMARK  Name = *****
REMARK                            x       y       z     vdW  Elec       q    Type
REMARK                         _______ _______ _______ _____ _____    ______ ____
ROOT
ATOM      1  C   LIG    1       22.740 -31.844   9.186  0.00  0.00    +0.108 C 
ATOM      2  C   LIG    1       23.221 -31.259  10.537  0.00  0.00    +0.042 C 
ATOM      3  C   LIG    1       24.666 -30.761  10.551  0.00  0.00    +0.109 C 
ATOM      4  C   LIG    1       25.094 -30.171  11.888  0.00  0.00    +0.153 C 
ATOM      5  C   LIG    1       24.100 -30.159  13.010  0.00  0.00    +0.045 C 
ATOM      6  C   LIG    1       22.697 -29.679  12.545  0.00  0.00    +0.013 C 
ATOM      7  C   LIG    1       22.671 -28.133  12.620  0.00  0.00    +0.015 C 
ATOM      8  C   LIG    1       21.554 -30.316  13.389  0.00  0.00    +0.120 C 
ATOM      9  O   LIG    1       21.743 -31.739  13.518  0.00  0.00    -0.458 OA
ATOM     10  C   LIG    1       21.215 -32.177  14.699  0.00  0.00    +0.308 C 
ATOM     11  O   LIG    1       21.128 -33.348  15.019  0.00  0.00    -0.251 OA
ATOM     12  C   LIG    1       20.722 -31.008  15.497  0.00  0.00    +0.124 C 
ATOM     13  C   LIG    1       21.407 -29.843  14.821  0.00  0.00    +0.060 C 
ATOM     14  C   LIG    1       20.313 -30.103  12.519  0.00  0.00    +0.049 C 
ATOM     15  C   LIG    1       20.811 -30.450  11.118  0.00  0.00    +0.008 C 
ATOM     16  O   LIG    1       25.492 -31.481  11.489  0.00  0.00    -0.363 OA
ATOM     17  C   LIG    1       25.390 -30.366   9.242  0.00  0.00    +0.021 C 
ATOM     18  C   LIG    1       26.796 -31.020   9.177  0.00  0.00    +0.019 C 
ATOM     19  C   LIG    1       24.633 -30.838   8.004  0.00  0.00    -0.057 C 
ATOM     20  C   LIG    1       24.588 -30.156   6.846  0.00  0.00    +0.046 C 
ATOM     21  C   LIG    1       25.309 -28.872   6.675  0.00  0.00    +0.156 C 
ATOM     22  O   LIG    1       25.295 -28.314   5.581  0.00  0.00    -0.293 OA
ATOM     23  C   LIG    1       26.083 -28.318   7.845  0.00  0.00    +0.080 C 
ATOM     24  C   LIG    1       25.533 -28.821   9.175  0.00  0.00    +0.022 C 
ATOM     25  C   LIG    1       22.319 -30.111  11.076  0.00  0.00    +0.006 C 
ATOM     26  C   LIG    1       23.862 -32.117   8.193  0.00  0.00    +0.046 C 
ENDROOT
BRANCH   1  27
ATOM     27  C   LIG    1       21.922 -33.117   9.360  0.00  0.00    +0.311 C 
ATOM     28  O   LIG    1       21.348 -33.677   8.434  0.00  0.00    -0.251 OA
BRANCH  27  30
ATOM     29  C   LIG    1       20.592 -33.821  11.161  0.00  0.00    +0.280 C 
ATOM     30  O   LIG    1       21.895 -33.534  10.651  0.00  0.00    -0.468 OA
ENDBRANCH  27  30
ENDBRANCH   1  27
TORSDOF 2
ENDMDL
MODEL 7
REMARK VINA RESULT:      -4.7      2.067      6.722
REMARK  Name = *****
REMARK                            x       y       z     vdW  Elec       q    Type
REMARK                         _______ _______ _______ _____ _____    ______ ____
ROOT
ATOM      1  C   LIG    1       26.006 -29.754  11.103  0.00  0.00    +0.108 C 
ATOM      2  C   LIG    1       24.534 -30.227  11.209  0.00  0.00    +0.042 C 
ATOM      3  C   LIG    1       23.953 -30.828   9.928  0.00  0.00    +0.109 C 
ATOM      4  C   LIG    1       22.514 -31.303  10.078  0.00  0.00    +0.153 C 
ATOM      5  C   LIG    1       21.840 -31.123  11.404  0.00  0.00    +0.045 C 
ATOM      6  C   LIG    1       22.754 -31.543  12.588  0.00  0.00    +0.013 C 
ATOM      7  C   LIG    1       22.584 -33.067  12.806  0.00  0.00    +0.015 C 
ATOM      8  C   LIG    1       22.439 -30.738  13.883  0.00  0.00    +0.120 C 
ATOM      9  O   LIG    1       22.352 -29.327  13.601  0.00  0.00    -0.458 OA
ATOM     10  C   LIG    1       21.483 -28.730  14.469  0.00  0.00    +0.308 C 
ATOM     11  O   LIG    1       21.302 -27.528  14.539  0.00  0.00    -0.251 OA
ATOM     12  C   LIG    1       20.842 -29.768  15.340  0.00  0.00    +0.124 C 
ATOM     13  C   LIG    1       21.133 -31.045  14.586  0.00  0.00    +0.060 C 
ATOM     14  C   LIG    1       23.688 -30.949  14.741  0.00  0.00    +0.049 C 
ATOM     15  C   LIG    1       24.828 -30.789  13.738  0.00  0.00    +0.008 C 
ATOM     16  O   LIG    1       22.830 -30.076   9.424  0.00  0.00    -0.363 OA
ATOM     17  C   LIG    1       24.870 -31.411   8.828  0.00  0.00    +0.021 C 
ATOM     18  C   LIG    1       24.458 -30.874   7.432  0.00  0.00    +0.019 C 
ATOM     19  C   LIG    1       26.331 -31.017   9.032  0.00  0.00    -0.057 C 
ATOM     20  C   LIG    1       27.372 -31.812   8.729  0.00  0.00    +0.046 C 
ATOM     21  C   LIG    1       27.173 -33.157   8.138  0.00  0.00    +0.156 C 
ATOM     22  O   LIG    1       28.153 -33.825   7.816  0.00  0.00    -0.293 OA
ATOM     23  C   LIG    1       25.764 -33.641   7.903  0.00  0.00    +0.080 C 
ATOM     24  C   LIG    1       24.770 -32.960   8.838  0.00  0.00    +0.022 C 
ATOM     25  C   LIG    1       24.286 -31.242  12.363  0.00  0.00    +0.006 C 
ATOM     26  C   LIG    1       26.531 -29.672   9.676  0.00  0.00    +0.046 C 
ENDROOT
BRANCH   1  27
ATOM     27  C   LIG    1       26.236 -28.413  11.787  0.00  0.00    +0.311 C 
ATOM     28  O   LIG    1       27.335 -27.876  11.854  0.00  0.00    -0.251 OA
BRANCH  27  30
ATOM     29  C   LIG    1       25.287 -27.029  13.428  0.00  0.00    +0.280 C 
ATOM     30  O   LIG    1       25.094 -27.908  12.318  0.00  0.00    -0.468 OA
ENDBRANCH  27  30
ENDBRANCH   1  27
TORSDOF 2
ENDMDL
MODEL 8
REMARK VINA RESULT:      -4.7      2.190      6.518
REMARK  Name = *****
REMARK                            x       y       z     vdW  Elec       q    Type
REMARK                         _______ _______ _______ _____ _____    ______ ____
ROOT
ATOM      1  C   LIG    1       25.518 -29.117   6.933  0.00  0.00    +0.108 C 
ATOM      2  C   LIG    1       25.072 -29.995   8.129  0.00  0.00    +0.042 C 
ATOM      3  C   LIG    1       24.389 -31.309   7.749  0.00  0.00    +0.109 C 
ATOM      4  C   LIG    1       23.987 -32.156   8.950  0.00  0.00    +0.153 C 
ATOM      5  C   LIG    1       24.276 -31.626  10.321  0.00  0.00    +0.045 C 
ATOM      6  C   LIG    1       25.709 -31.038  10.433  0.00  0.00    +0.013 C 
ATOM      7  C   LIG    1       26.677 -32.198  10.773  0.00  0.00    +0.015 C 
ATOM      8  C   LIG    1       25.790 -29.894  11.487  0.00  0.00    +0.120 C 
ATOM      9  O   LIG    1       24.716 -28.951  11.304  0.00  0.00    -0.458 OA
ATOM     10  C   LIG    1       24.379 -28.387  12.501  0.00  0.00    +0.308 C 
ATOM     11  O   LIG    1       23.584 -27.475  12.629  0.00  0.00    -0.251 OA
ATOM     12  C   LIG    1       25.169 -29.027  13.603  0.00  0.00    +0.124 C 
ATOM     13  C   LIG    1       25.676 -30.290  12.945  0.00  0.00    +0.060 C 
ATOM     14  C   LIG    1       27.090 -29.173  11.124  0.00  0.00    +0.049 C 
ATOM     15  C   LIG    1       27.031 -29.102   9.600  0.00  0.00    +0.008 C 
ATOM     16  O   LIG    1       23.030 -31.385   8.227  0.00  0.00    -0.363 OA
ATOM     17  C   LIG    1       24.610 -31.956   6.361  0.00  0.00    +0.021 C 
ATOM     18  C   LIG    1       23.254 -32.364   5.727  0.00  0.00    +0.019 C 
ATOM     19  C   LIG    1       25.276 -30.994   5.381  0.00  0.00    -0.057 C 
ATOM     20  C   LIG    1       26.153 -31.374   4.435  0.00  0.00    +0.046 C 
ATOM     21  C   LIG    1       26.529 -32.797   4.255  0.00  0.00    +0.156 C 
ATOM     22  O   LIG    1       27.284 -33.109   3.338  0.00  0.00    -0.293 OA
ATOM     23  C   LIG    1       25.928 -33.825   5.180  0.00  0.00    +0.080 C 
ATOM     24  C   LIG    1       25.511 -33.211   6.513  0.00  0.00    +0.022 C 
ATOM     25  C   LIG    1       26.224 -30.331   9.121  0.00  0.00    +0.006 C 
ATOM     26  C   LIG    1       24.931 -29.545   5.595  0.00  0.00    +0.046 C 
ENDROOT
BRANCH   1  27
ATOM     27  C   LIG    1       25.214 -27.640   7.150  0.00  0.00    +0.311 C 
ATOM     28  O   LIG    1       25.915 -26.906   7.836  0.00  0.00    -0.251 OA
BRANCH  27  30
ATOM     29  C   LIG    1       24.122 -25.940   5.956  0.00  0.00    +0.280 C 
ATOM     30  O   LIG    1       24.079 -27.254   6.515  0.00  0.00    -0.468 OA
ENDBRANCH  27  30
ENDBRANCH   1  27
TORSDOF 2
ENDMDL
MODEL 9
REMARK VINA RESULT:      -4.4      2.485      6.648
REMARK  Name = *****
REMARK                            x       y       z     vdW  Elec       q    Type
REMARK                         _______ _______ _______ _____ _____    ______ ____
ROOT
ATOM      1  C   LIG    1       23.487 -30.319   9.597  0.00  0.00    +0.108 C 
ATOM      2  C   LIG    1       24.896 -30.196  10.228  0.00  0.00    +0.042 C 
ATOM      3  C   LIG    1       26.040 -30.007   9.230  0.00  0.00    +0.109 C 
ATOM      4  C   LIG    1       27.405 -29.866   9.890  0.00  0.00    +0.153 C 
ATOM      5  C   LIG    1       27.484 -29.942  11.384  0.00  0.00    +0.045 C 
ATOM      6  C   LIG    1       26.377 -29.099  12.074  0.00  0.00    +0.013 C 
ATOM      7  C   LIG    1       26.896 -27.646  12.207  0.00  0.00    +0.015 C 
ATOM      8  C   LIG    1       25.966 -29.692  13.453  0.00  0.00    +0.120 C 
ATOM      9  O   LIG    1       25.731 -31.110  13.353  0.00  0.00    -0.458 OA
ATOM     10  C   LIG    1       26.023 -31.718  14.540  0.00  0.00    +0.308 C 
ATOM     11  O   LIG    1       25.810 -32.892  14.779  0.00  0.00    -0.251 OA
ATOM     12  C   LIG    1       26.590 -30.714  15.498  0.00  0.00    +0.124 C 
ATOM     13  C   LIG    1       26.969 -29.573  14.582  0.00  0.00    +0.060 C 
ATOM     14  C   LIG    1       24.614 -29.030  13.732  0.00  0.00    +0.049 C 
ATOM     15  C   LIG    1       23.908 -29.106  12.381  0.00  0.00    +0.008 C 
ATOM     16  O   LIG    1       26.997 -31.086   9.274  0.00  0.00    -0.363 OA
ATOM     17  C   LIG    1       25.782 -29.446   7.812  0.00  0.00    +0.021 C 
ATOM     18  C   LIG    1       26.483 -30.323   6.742  0.00  0.00    +0.019 C 
ATOM     19  C   LIG    1       24.296 -29.436   7.461  0.00  0.00    -0.057 C 
ATOM     20  C   LIG    1       23.709 -28.491   6.707  0.00  0.00    +0.046 C 
ATOM     21  C   LIG    1       24.487 -27.371   6.126  0.00  0.00    +0.156 C 
ATOM     22  O   LIG    1       23.924 -26.564   5.390  0.00  0.00    -0.293 OA
ATOM     23  C   LIG    1       25.963 -27.288   6.420  0.00  0.00    +0.080 C 
ATOM     24  C   LIG    1       26.319 -27.992   7.726  0.00  0.00    +0.022 C 
ATOM     25  C   LIG    1       25.007 -29.066  11.293  0.00  0.00    +0.006 C 
ATOM     26  C   LIG    1       23.499 -30.547   8.091  0.00  0.00    +0.046 C 
ENDROOT
BRANCH   1  27
ATOM     27  C   LIG    1       22.650 -31.411  10.249  0.00  0.00    +0.311 C 
ATOM     28  O   LIG    1       23.115 -32.241  11.020  0.00  0.00    -0.251 OA
BRANCH  27  30
ATOM     29  C   LIG    1       20.470 -30.730  10.792  0.00  0.00    +0.280 C 
ATOM     30  O   LIG    1       21.351 -31.359   9.860  0.00  0.00    -0.468 OA
ENDBRANCH  27  30
ENDBRANCH   1  27
TORSDOF 2
ENDMDL
