MODEL 1
REMARK VINA RESULT:      -6.0      0.000      0.000
REMARK  Name = *****
REMARK                            x       y       z     vdW  Elec       q    Type
REMARK                         _______ _______ _______ _____ _____    ______ ____
ROOT
ATOM      1  C   LIG    1       25.829 -27.769   7.291  0.00  0.00    -0.043 A 
ATOM      2  C   LIG    1       25.071 -28.820   6.873  0.00  0.00    +0.021 A 
ATOM      3  C   LIG    1       24.793 -29.919   7.714  0.00  0.00    +0.057 A 
ATOM      4  I   LIG    1       24.053 -31.375   6.326  0.00  0.00    -0.040 I 
ATOM      5  C   LIG    1       25.151 -29.929   9.102  0.00  0.00    +0.154 A 
ATOM      6  C   LIG    1       25.940 -28.833   9.506  0.00  0.00    +0.057 A 
ATOM      7  I   LIG    1       26.857 -28.411  11.374  0.00  0.00    -0.040 I 
ATOM      8  C   LIG    1       26.302 -27.851   8.578  0.00  0.00    +0.021 A 
ENDROOT
BRANCH   1   9
ATOM      9  C   LIG    1       26.194 -26.667   6.335  0.00  0.00    +0.065 C 
BRANCH   9  10
ATOM     10  CA  LIG    1       25.542 -25.309   6.651  0.00  0.00    +0.165 C 
BRANCH  10  11
ATOM     11  N   LIG    1       26.242 -24.226   5.927  0.00  0.00    -0.318 NA
ATOM     12  H1  LIG    1       25.689 -24.012   5.089  0.00  0.00    +0.119 HD
ATOM     13  H2  LIG    1       26.175 -23.375   6.487  0.00  0.00    +0.119 HD
ENDBRANCH  10  11
BRANCH  10  14
ATOM     14  C   LIG    1       24.038 -25.266   6.229  0.00  0.00    +0.322 C 
ATOM     15  O   LIG    1       23.243 -24.586   6.762  0.00  0.00    -0.249 OA
BRANCH  14  16
ATOM     16  OXT LIG    1       23.673 -26.112   5.215  0.00  0.00    -0.479 OA
ATOM     17  HXT LIG    1       24.121 -26.951   5.120  0.00  0.00    +0.295 HD
ENDBRANCH  14  16
ENDBRANCH  10  14
ENDBRANCH   9  10
ENDBRANCH   1   9
BRANCH   5  18
ATOM     18  O   LIG    1       24.897 -30.887  10.082  0.00  0.00    -0.454 OA
BRANCH  18  19
ATOM     19  C   LIG    1       23.666 -30.954  10.704  0.00  0.00    +0.131 A 
ATOM     20  C   LIG    1       23.252 -29.993  11.626  0.00  0.00    +0.064 A 
ATOM     21  C   LIG    1       21.893 -29.877  11.966  0.00  0.00    +0.059 A 
ATOM     22  I   LIG    1       21.249 -28.200  13.089  0.00  0.00    -0.040 I 
ATOM     23  C   LIG    1       20.971 -30.795  11.467  0.00  0.00    +0.143 A 
ATOM     24  C   LIG    1       21.436 -31.895  10.740  0.00  0.00    +0.059 A 
ATOM     25  I   LIG    1       20.095 -33.395  10.155  0.00  0.00    -0.040 I 
ATOM     26  C   LIG    1       22.794 -32.002  10.387  0.00  0.00    +0.064 A 
BRANCH  23  27
ATOM     27  O   LIG    1       19.639 -30.606  11.718  0.00  0.00    -0.505 OA
ATOM     28  H   LIG    1       19.416 -29.683  11.510  0.00  0.00    +0.292 HD
ENDBRANCH  23  27
ENDBRANCH  18  19
ENDBRANCH   5  18
TORSDOF 8
ENDMDL
MODEL 2
REMARK VINA RESULT:      -5.9      3.844      6.874
REMARK  Name = *****
REMARK                            x       y       z     vdW  Elec       q    Type
REMARK                         _______ _______ _______ _____ _____    ______ ____
ROOT
ATOM      1  C   LIG    1       21.867 -28.016  13.098  0.00  0.00    -0.043 A 
ATOM      2  C   LIG    1       21.335 -29.111  12.489  0.00  0.00    +0.021 A 
ATOM      3  C   LIG    1       22.124 -29.995  11.723  0.00  0.00    +0.057 A 
ATOM      4  I   LIG    1       20.641 -31.125  10.665  0.00  0.00    -0.040 I 
ATOM      5  C   LIG    1       23.552 -29.892  11.668  0.00  0.00    +0.154 A 
ATOM      6  C   LIG    1       24.077 -28.747  12.300  0.00  0.00    +0.057 A 
ATOM      7  I   LIG    1       26.070 -28.023  12.407  0.00  0.00    -0.040 I 
ATOM      8  C   LIG    1       23.217 -27.832  12.917  0.00  0.00    +0.021 A 
ENDROOT
BRANCH   1   9
ATOM      9  C   LIG    1       20.979 -27.038  13.816  0.00  0.00    +0.065 C 
BRANCH   9  10
ATOM     10  CA  LIG    1       19.565 -27.564  14.117  0.00  0.00    +0.165 C 
BRANCH  10  11
ATOM     11  N   LIG    1       19.560 -28.315  15.390  0.00  0.00    -0.318 NA
ATOM     12  H1  LIG    1       18.627 -28.209  15.805  0.00  0.00    +0.119 HD
ATOM     13  H2  LIG    1       19.618 -29.311  15.173  0.00  0.00    +0.119 HD
ENDBRANCH  10  11
BRANCH  10  14
ATOM     14  C   LIG    1       18.522 -26.408  14.246  0.00  0.00    +0.322 C 
ATOM     15  O   LIG    1       18.374 -25.585  13.420  0.00  0.00    -0.249 OA
BRANCH  14  16
ATOM     16  OXT LIG    1       17.805 -26.371  15.413  0.00  0.00    -0.479 OA
ATOM     17  HXT LIG    1       17.998 -27.005  16.101  0.00  0.00    +0.295 HD
ENDBRANCH  14  16
ENDBRANCH  10  14
ENDBRANCH   9  10
ENDBRANCH   1   9
BRANCH   5  18
ATOM     18  O   LIG    1       24.482 -30.710  11.027  0.00  0.00    -0.454 OA
BRANCH  18  19
ATOM     19  C   LIG    1       24.494 -30.824   9.651  0.00  0.00    +0.131 A 
ATOM     20  C   LIG    1       24.213 -32.029   9.007  0.00  0.00    +0.064 A 
ATOM     21  C   LIG    1       23.879 -32.042   7.642  0.00  0.00    +0.059 A 
ATOM     22  I   LIG    1       23.123 -33.825   6.781  0.00  0.00    -0.040 I 
ATOM     23  C   LIG    1       23.937 -30.864   6.902  0.00  0.00    +0.143 A 
ATOM     24  C   LIG    1       24.453 -29.711   7.502  0.00  0.00    +0.059 A 
ATOM     25  I   LIG    1       24.741 -27.983   6.353  0.00  0.00    -0.040 I 
ATOM     26  C   LIG    1       24.772 -29.695   8.872  0.00  0.00    +0.064 A 
BRANCH  23  27
ATOM     27  O   LIG    1       23.506 -30.870   5.602  0.00  0.00    -0.505 OA
ATOM     28  H   LIG    1       23.147 -29.991   5.395  0.00  0.00    +0.292 HD
ENDBRANCH  23  27
ENDBRANCH  18  19
ENDBRANCH   5  18
TORSDOF 8
ENDMDL
MODEL 3
REMARK VINA RESULT:      -5.6      1.446      1.675
REMARK  Name = *****
REMARK                            x       y       z     vdW  Elec       q    Type
REMARK                         _______ _______ _______ _____ _____    ______ ____
ROOT
ATOM      1  C   LIG    1       25.165 -29.223   7.182  0.00  0.00    -0.043 A 
ATOM      2  C   LIG    1       24.360 -30.313   7.312  0.00  0.00    +0.021 A 
ATOM      3  C   LIG    1       24.175 -30.960   8.552  0.00  0.00    +0.057 A 
ATOM      4  I   LIG    1       23.275 -32.815   7.965  0.00  0.00    -0.040 I 
ATOM      5  C   LIG    1       24.689 -30.425   9.778  0.00  0.00    +0.154 A 
ATOM      6  C   LIG    1       25.524 -29.300   9.615  0.00  0.00    +0.057 A 
ATOM      7  I   LIG    1       26.650 -28.203  11.042  0.00  0.00    -0.040 I 
ATOM      8  C   LIG    1       25.782 -28.799   8.335  0.00  0.00    +0.021 A 
ENDROOT
BRANCH   1   9
ATOM      9  C   LIG    1       25.423 -28.624   5.828  0.00  0.00    +0.065 C 
BRANCH   9  10
ATOM     10  CA  LIG    1       25.971 -27.187   5.862  0.00  0.00    +0.165 C 
BRANCH  10  11
ATOM     11  N   LIG    1       27.167 -27.075   5.000  0.00  0.00    -0.318 NA
ATOM     12  H1  LIG    1       27.528 -26.119   5.099  0.00  0.00    +0.119 HD
ATOM     13  H2  LIG    1       27.904 -27.656   5.402  0.00  0.00    +0.119 HD
ENDBRANCH  10  11
BRANCH  10  14
ATOM     14  C   LIG    1       24.922 -26.146   5.353  0.00  0.00    +0.322 C 
ATOM     15  O   LIG    1       25.196 -25.265   4.625  0.00  0.00    -0.249 OA
BRANCH  14  16
ATOM     16  OXT LIG    1       23.650 -26.283   5.844  0.00  0.00    -0.479 OA
ATOM     17  HXT LIG    1       23.506 -26.806   6.631  0.00  0.00    +0.295 HD
ENDBRANCH  14  16
ENDBRANCH  10  14
ENDBRANCH   9  10
ENDBRANCH   1   9
BRANCH   5  18
ATOM     18  O   LIG    1       24.544 -30.888  11.085  0.00  0.00    -0.454 OA
BRANCH  18  19
ATOM     19  C   LIG    1       23.380 -30.661  11.791  0.00  0.00    +0.131 A 
ATOM     20  C   LIG    1       23.084 -29.417  12.348  0.00  0.00    +0.064 A 
ATOM     21  C   LIG    1       21.769 -29.110  12.738  0.00  0.00    +0.059 A 
ATOM     22  I   LIG    1       21.285 -27.111  13.250  0.00  0.00    -0.040 I 
ATOM     23  C   LIG    1       20.779 -30.086  12.671  0.00  0.00    +0.143 A 
ATOM     24  C   LIG    1       21.140 -31.397  12.341  0.00  0.00    +0.059 A 
ATOM     25  I   LIG    1       19.708 -32.923  12.434  0.00  0.00    -0.040 I 
ATOM     26  C   LIG    1       22.453 -31.700  11.936  0.00  0.00    +0.064 A 
BRANCH  23  27
ATOM     27  O   LIG    1       19.483 -29.743  12.950  0.00  0.00    -0.505 OA
ATOM     28  H   LIG    1       19.099 -30.434  13.517  0.00  0.00    +0.292 HD
ENDBRANCH  23  27
ENDBRANCH  18  19
ENDBRANCH   5  18
TORSDOF 8
ENDMDL
MODEL 4
REMARK VINA RESULT:      -5.5      1.385      1.964
REMARK  Name = *****
REMARK                            x       y       z     vdW  Elec       q    Type
REMARK                         _______ _______ _______ _____ _____    ______ ____
ROOT
ATOM      1  C   LIG    1       25.828 -27.839   7.309  0.00  0.00    -0.043 A 
ATOM      2  C   LIG    1       25.089 -28.916   6.922  0.00  0.00    +0.021 A 
ATOM      3  C   LIG    1       24.900 -30.031   7.765  0.00  0.00    +0.057 A 
ATOM      4  I   LIG    1       24.141 -31.504   6.404  0.00  0.00    -0.040 I 
ATOM      5  C   LIG    1       25.332 -30.039   9.131  0.00  0.00    +0.154 A 
ATOM      6  C   LIG    1       26.100 -28.917   9.504  0.00  0.00    +0.057 A 
ATOM      7  I   LIG    1       27.101 -28.475  11.324  0.00  0.00    -0.040 I 
ATOM      8  C   LIG    1       26.373 -27.914   8.568  0.00  0.00    +0.021 A 
ENDROOT
BRANCH   1   9
ATOM      9  C   LIG    1       26.099 -26.717   6.346  0.00  0.00    +0.065 C 
BRANCH   9  10
ATOM     10  CA  LIG    1       25.461 -25.373   6.741  0.00  0.00    +0.165 C 
BRANCH  10  11
ATOM     11  N   LIG    1       26.208 -24.254   6.130  0.00  0.00    -0.318 NA
ATOM     12  H1  LIG    1       25.972 -23.404   6.656  0.00  0.00    +0.119 HD
ATOM     13  H2  LIG    1       27.201 -24.391   6.323  0.00  0.00    +0.119 HD
ENDBRANCH  10  11
BRANCH  10  14
ATOM     14  C   LIG    1       23.976 -25.265   6.268  0.00  0.00    +0.322 C 
ATOM     15  O   LIG    1       23.196 -24.544   6.769  0.00  0.00    -0.249 OA
BRANCH  14  16
ATOM     16  OXT LIG    1       23.606 -26.104   5.250  0.00  0.00    -0.479 OA
ATOM     17  HXT LIG    1       24.277 -26.601   4.786  0.00  0.00    +0.295 HD
ENDBRANCH  14  16
ENDBRANCH  10  14
ENDBRANCH   9  10
ENDBRANCH   1   9
BRANCH   5  18
ATOM     18  O   LIG    1       25.169 -31.015  10.114  0.00  0.00    -0.454 OA
BRANCH  18  19
ATOM     19  C   LIG    1       24.110 -30.958  10.997  0.00  0.00    +0.131 A 
ATOM     20  C   LIG    1       22.789 -30.852  10.562  0.00  0.00    +0.064 A 
ATOM     21  C   LIG    1       21.729 -31.155  11.434  0.00  0.00    +0.059 A 
ATOM     22  I   LIG    1       19.766 -31.324  10.653  0.00  0.00    -0.040 I 
ATOM     23  C   LIG    1       21.991 -31.452  12.769  0.00  0.00    +0.143 A 
ATOM     24  C   LIG    1       23.297 -31.317  13.249  0.00  0.00    +0.059 A 
ATOM     25  I   LIG    1       23.681 -31.559  15.295  0.00  0.00    -0.040 I 
ATOM     26  C   LIG    1       24.360 -31.029  12.373  0.00  0.00    +0.064 A 
BRANCH  23  27
ATOM     27  O   LIG    1       20.961 -31.850  13.578  0.00  0.00    -0.505 OA
ATOM     28  H   LIG    1       20.371 -31.090  13.718  0.00  0.00    +0.292 HD
ENDBRANCH  23  27
ENDBRANCH  18  19
ENDBRANCH   5  18
TORSDOF 8
ENDMDL
MODEL 5
REMARK VINA RESULT:      -5.5      1.974      2.735
REMARK  Name = *****
REMARK                            x       y       z     vdW  Elec       q    Type
REMARK                         _______ _______ _______ _____ _____    ______ ____
ROOT
ATOM      1  C   LIG    1       25.127 -29.042   7.546  0.00  0.00    -0.043 A 
ATOM      2  C   LIG    1       24.347 -30.149   7.690  0.00  0.00    +0.021 A 
ATOM      3  C   LIG    1       24.269 -30.852   8.911  0.00  0.00    +0.057 A 
ATOM      4  I   LIG    1       23.344 -32.692   8.316  0.00  0.00    -0.040 I 
ATOM      5  C   LIG    1       24.873 -30.363  10.115  0.00  0.00    +0.154 A 
ATOM      6  C   LIG    1       25.681 -29.221   9.936  0.00  0.00    +0.057 A 
ATOM      7  I   LIG    1       26.906 -28.170  11.317  0.00  0.00    -0.040 I 
ATOM      8  C   LIG    1       25.830 -28.661   8.664  0.00  0.00    +0.021 A 
ENDROOT
BRANCH   1   9
ATOM      9  C   LIG    1       25.270 -28.382   6.203  0.00  0.00    +0.065 C 
BRANCH   9  10
ATOM     10  CA  LIG    1       25.792 -26.935   6.258  0.00  0.00    +0.165 C 
BRANCH  10  11
ATOM     11  N   LIG    1       26.978 -26.787   5.388  0.00  0.00    -0.318 NA
ATOM     12  H1  LIG    1       27.348 -27.728   5.211  0.00  0.00    +0.119 HD
ATOM     13  H2  LIG    1       26.662 -26.473   4.470  0.00  0.00    +0.119 HD
ENDBRANCH  10  11
BRANCH  10  14
ATOM     14  C   LIG    1       24.720 -25.905   5.777  0.00  0.00    +0.322 C 
ATOM     15  O   LIG    1       23.700 -25.735   6.334  0.00  0.00    -0.249 OA
BRANCH  14  16
ATOM     16  OXT LIG    1       25.012 -25.226   4.623  0.00  0.00    -0.479 OA
ATOM     17  HXT LIG    1       24.466 -24.486   4.364  0.00  0.00    +0.295 HD
ENDBRANCH  14  16
ENDBRANCH  10  14
ENDBRANCH   9  10
ENDBRANCH   1   9
BRANCH   5  18
ATOM     18  O   LIG    1       24.839 -30.884  11.407  0.00  0.00    -0.454 OA
BRANCH  18  19
ATOM     19  C   LIG    1       23.729 -30.713  12.209  0.00  0.00    +0.131 A 
ATOM     20  C   LIG    1       23.240 -31.735  13.023  0.00  0.00    +0.064 A 
ATOM     21  C   LIG    1       22.357 -31.442  14.076  0.00  0.00    +0.059 A 
ATOM     22  I   LIG    1       21.910 -32.947  15.499  0.00  0.00    -0.040 I 
ATOM     23  C   LIG    1       21.878 -30.144  14.240  0.00  0.00    +0.143 A 
ATOM     24  C   LIG    1       22.185 -29.181  13.273  0.00  0.00    +0.059 A 
ATOM     25  I   LIG    1       21.313 -27.280  13.388  0.00  0.00    -0.040 I 
ATOM     26  C   LIG    1       23.082 -29.472  12.229  0.00  0.00    +0.064 A 
BRANCH  23  27
ATOM     27  O   LIG    1       21.106 -29.851  15.332  0.00  0.00    -0.505 OA
ATOM     28  H   LIG    1       21.485 -30.302  16.105  0.00  0.00    +0.292 HD
ENDBRANCH  23  27
ENDBRANCH  18  19
ENDBRANCH   5  18
TORSDOF 8
ENDMDL
MODEL 6
REMARK VINA RESULT:      -5.4      2.049      2.182
REMARK  Name = *****
REMARK                            x       y       z     vdW  Elec       q    Type
REMARK                         _______ _______ _______ _____ _____    ______ ____
ROOT
ATOM      1  C   LIG    1       24.856 -28.604   6.901  0.00  0.00    -0.043 A 
ATOM      2  C   LIG    1       24.302 -29.799   6.557  0.00  0.00    +0.021 A 
ATOM      3  C   LIG    1       24.462 -30.952   7.354  0.00  0.00    +0.057 A 
ATOM      4  I   LIG    1       23.832 -32.512   6.026  0.00  0.00    -0.040 I 
ATOM      5  C   LIG    1       25.076 -30.907   8.648  0.00  0.00    +0.154 A 
ATOM      6  C   LIG    1       25.646 -29.661   8.978  0.00  0.00    +0.057 A 
ATOM      7  I   LIG    1       26.784 -29.070  10.671  0.00  0.00    -0.040 I 
ATOM      8  C   LIG    1       25.577 -28.598   8.072  0.00  0.00    +0.021 A 
ENDROOT
BRANCH   1   9
ATOM      9  C   LIG    1       24.755 -27.424   5.976  0.00  0.00    +0.065 C 
BRANCH   9  10
ATOM     10  CA  LIG    1       25.909 -26.414   6.104  0.00  0.00    +0.165 C 
BRANCH  10  11
ATOM     11  N   LIG    1       27.060 -26.845   5.283  0.00  0.00    -0.318 NA
ATOM     12  H1  LIG    1       26.691 -27.144   4.372  0.00  0.00    +0.119 HD
ATOM     13  H2  LIG    1       27.618 -26.021   5.060  0.00  0.00    +0.119 HD
ENDBRANCH  10  11
BRANCH  10  14
ATOM     14  C   LIG    1       25.496 -24.985   5.627  0.00  0.00    +0.322 C 
ATOM     15  O   LIG    1       25.710 -24.014   6.253  0.00  0.00    -0.249 OA
BRANCH  14  16
ATOM     16  OXT LIG    1       24.815 -24.919   4.439  0.00  0.00    -0.479 OA
ATOM     17  HXT LIG    1       24.939 -24.162   3.870  0.00  0.00    +0.295 HD
ENDBRANCH  14  16
ENDBRANCH  10  14
ENDBRANCH   9  10
ENDBRANCH   1   9
BRANCH   5  18
ATOM     18  O   LIG    1       25.253 -31.922   9.588  0.00  0.00    -0.454 OA
BRANCH  18  19
ATOM     19  C   LIG    1       24.309 -32.148  10.570  0.00  0.00    +0.131 A 
ATOM     20  C   LIG    1       24.660 -32.596  11.843  0.00  0.00    +0.064 A 
ATOM     21  C   LIG    1       23.754 -32.476  12.911  0.00  0.00    +0.059 A 
ATOM     22  I   LIG    1       24.433 -32.837  14.886  0.00  0.00    -0.040 I 
ATOM     23  C   LIG    1       22.462 -32.012  12.677  0.00  0.00    +0.143 A 
ATOM     24  C   LIG    1       22.048 -31.796  11.359  0.00  0.00    +0.059 A 
ATOM     25  I   LIG    1       20.051 -31.296  10.967  0.00  0.00    -0.040 I 
ATOM     26  C   LIG    1       22.959 -31.902  10.293  0.00  0.00    +0.064 A 
BRANCH  23  27
ATOM     27  O   LIG    1       21.627 -31.797  13.741  0.00  0.00    -0.505 OA
ATOM     28  H   LIG    1       20.757 -31.532  13.398  0.00  0.00    +0.292 HD
ENDBRANCH  23  27
ENDBRANCH  18  19
ENDBRANCH   5  18
TORSDOF 8
ENDMDL
MODEL 7
REMARK VINA RESULT:      -5.4      1.732      2.898
REMARK  Name = *****
REMARK                            x       y       z     vdW  Elec       q    Type
REMARK                         _______ _______ _______ _____ _____    ______ ____
ROOT
ATOM      1  C   LIG    1       25.981 -27.731   7.154  0.00  0.00    -0.043 A 
ATOM      2  C   LIG    1       26.449 -27.783   8.432  0.00  0.00    +0.021 A 
ATOM      3  C   LIG    1       26.227 -28.901   9.263  0.00  0.00    +0.057 A 
ATOM      4  I   LIG    1       26.732 -28.134  11.200  0.00  0.00    -0.040 I 
ATOM      5  C   LIG    1       25.638 -30.113   8.773  0.00  0.00    +0.154 A 
ATOM      6  C   LIG    1       25.156 -30.031   7.451  0.00  0.00    +0.057 A 
ATOM      7  I   LIG    1       24.087 -31.446   6.283  0.00  0.00    -0.040 I 
ATOM      8  C   LIG    1       25.281 -28.837   6.733  0.00  0.00    +0.021 A 
ENDROOT
BRANCH   1   9
ATOM      9  C   LIG    1       26.143 -26.482   6.334  0.00  0.00    +0.065 C 
BRANCH   9  10
ATOM     10  CA  LIG    1       25.386 -25.259   6.881  0.00  0.00    +0.165 C 
BRANCH  10  11
ATOM     11  N   LIG    1       26.087 -24.014   6.503  0.00  0.00    -0.318 NA
ATOM     12  H1  LIG    1       26.780 -24.258   5.785  0.00  0.00    +0.119 HD
ATOM     13  H2  LIG    1       25.425 -23.414   6.008  0.00  0.00    +0.119 HD
ENDBRANCH  10  11
BRANCH  10  14
ATOM     14  C   LIG    1       23.930 -25.171   6.322  0.00  0.00    +0.322 C 
ATOM     15  O   LIG    1       23.113 -24.457   6.773  0.00  0.00    -0.249 OA
BRANCH  14  16
ATOM     16  OXT LIG    1       23.629 -26.019   5.288  0.00  0.00    -0.479 OA
ATOM     17  HXT LIG    1       22.742 -26.026   4.931  0.00  0.00    +0.295 HD
ENDBRANCH  14  16
ENDBRANCH  10  14
ENDBRANCH   9  10
ENDBRANCH   1   9
BRANCH   5  18
ATOM     18  O   LIG    1       25.411 -31.323   9.427  0.00  0.00    -0.454 OA
BRANCH  18  19
ATOM     19  C   LIG    1       24.513 -31.404  10.472  0.00  0.00    +0.131 A 
ATOM     20  C   LIG    1       23.181 -31.014  10.335  0.00  0.00    +0.064 A 
ATOM     21  C   LIG    1       22.221 -31.431  11.272  0.00  0.00    +0.059 A 
ATOM     22  I   LIG    1       20.166 -31.121  10.853  0.00  0.00    -0.040 I 
ATOM     23  C   LIG    1       22.616 -32.143  12.402  0.00  0.00    +0.143 A 
ATOM     24  C   LIG    1       23.981 -32.317  12.651  0.00  0.00    +0.059 A 
ATOM     25  I   LIG    1       24.606 -33.202  14.444  0.00  0.00    -0.040 I 
ATOM     26  C   LIG    1       24.941 -31.912  11.705  0.00  0.00    +0.064 A 
BRANCH  23  27
ATOM     27  O   LIG    1       21.660 -32.636  13.249  0.00  0.00    -0.505 OA
ATOM     28  H   LIG    1       21.553 -32.011  13.987  0.00  0.00    +0.292 HD
ENDBRANCH  23  27
ENDBRANCH  18  19
ENDBRANCH   5  18
TORSDOF 8
ENDMDL
MODEL 8
REMARK VINA RESULT:      -5.4      3.208      4.803
REMARK  Name = *****
REMARK                            x       y       z     vdW  Elec       q    Type
REMARK                         _______ _______ _______ _____ _____    ______ ____
ROOT
ATOM      1  C   LIG    1       24.181 -31.580   7.999  0.00  0.00    -0.043 A 
ATOM      2  C   LIG    1       25.182 -30.812   8.512  0.00  0.00    +0.021 A 
ATOM      3  C   LIG    1       25.255 -30.502   9.886  0.00  0.00    +0.057 A 
ATOM      4  I   LIG    1       26.682 -28.902   9.915  0.00  0.00    -0.040 I 
ATOM      5  C   LIG    1       24.381 -31.100  10.852  0.00  0.00    +0.154 A 
ATOM      6  C   LIG    1       23.351 -31.885  10.295  0.00  0.00    +0.057 A 
ATOM      7  I   LIG    1       21.718 -32.876  11.224  0.00  0.00    -0.040 I 
ATOM      8  C   LIG    1       23.253 -32.029   8.907  0.00  0.00    +0.021 A 
ENDROOT
BRANCH   1   9
ATOM      9  C   LIG    1       24.075 -31.800   6.516  0.00  0.00    +0.065 C 
BRANCH   9  10
ATOM     10  CA  LIG    1       25.073 -30.983   5.678  0.00  0.00    +0.165 C 
BRANCH  10  11
ATOM     11  N   LIG    1       25.295 -31.634   4.370  0.00  0.00    -0.318 NA
ATOM     12  H1  LIG    1       26.259 -31.989   4.364  0.00  0.00    +0.119 HD
ATOM     13  H2  LIG    1       24.725 -32.480   4.334  0.00  0.00    +0.119 HD
ENDBRANCH  10  11
BRANCH  10  14
ATOM     14  C   LIG    1       24.561 -29.532   5.403  0.00  0.00    +0.322 C 
ATOM     15  O   LIG    1       25.280 -28.611   5.287  0.00  0.00    -0.249 OA
BRANCH  14  16
ATOM     16  OXT LIG    1       23.200 -29.374   5.349  0.00  0.00    -0.479 OA
ATOM     17  HXT LIG    1       22.669 -30.039   4.916  0.00  0.00    +0.295 HD
ENDBRANCH  14  16
ENDBRANCH  10  14
ENDBRANCH   9  10
ENDBRANCH   1   9
BRANCH   5  18
ATOM     18  O   LIG    1       24.357 -30.965  12.239  0.00  0.00    -0.454 OA
BRANCH  18  19
ATOM     19  C   LIG    1       24.159 -29.731  12.826  0.00  0.00    +0.131 A 
ATOM     20  C   LIG    1       25.223 -28.944  13.268  0.00  0.00    +0.064 A 
ATOM     21  C   LIG    1       25.033 -27.575  13.522  0.00  0.00    +0.059 A 
ATOM     22  I   LIG    1       26.725 -26.342  13.852  0.00  0.00    -0.040 I 
ATOM     23  C   LIG    1       23.757 -27.023  13.439  0.00  0.00    +0.143 A 
ATOM     24  C   LIG    1       22.664 -27.871  13.232  0.00  0.00    +0.059 A 
ATOM     25  I   LIG    1       20.720 -27.095  13.307  0.00  0.00    -0.040 I 
ATOM     26  C   LIG    1       22.856 -29.238  12.963  0.00  0.00    +0.064 A 
BRANCH  23  27
ATOM     27  O   LIG    1       23.605 -25.670  13.582  0.00  0.00    -0.505 OA
ATOM     28  H   LIG    1       22.656 -25.477  13.671  0.00  0.00    +0.292 HD
ENDBRANCH  23  27
ENDBRANCH  18  19
ENDBRANCH   5  18
TORSDOF 8
ENDMDL
MODEL 9
REMARK VINA RESULT:      -5.4      2.239      3.317
REMARK  Name = *****
REMARK                            x       y       z     vdW  Elec       q    Type
REMARK                         _______ _______ _______ _____ _____    ______ ____
ROOT
ATOM      1  C   LIG    1       24.991 -28.723   6.798  0.00  0.00    -0.043 A 
ATOM      2  C   LIG    1       25.632 -28.688   7.999  0.00  0.00    +0.021 A 
ATOM      3  C   LIG    1       25.716 -29.822   8.833  0.00  0.00    +0.057 A 
ATOM      4  I   LIG    1       26.346 -28.969  10.697  0.00  0.00    -0.040 I 
ATOM      5  C   LIG    1       25.278 -31.118   8.407  0.00  0.00    +0.154 A 
ATOM      6  C   LIG    1       24.612 -31.127   7.164  0.00  0.00    +0.057 A 
ATOM      7  I   LIG    1       23.646 -32.709   6.129  0.00  0.00    -0.040 I 
ATOM      8  C   LIG    1       24.435 -29.933   6.457  0.00  0.00    +0.021 A 
ENDROOT
BRANCH   1   9
ATOM      9  C   LIG    1       24.828 -27.470   5.985  0.00  0.00    +0.065 C 
BRANCH   9  10
ATOM     10  CA  LIG    1       25.963 -26.445   6.161  0.00  0.00    +0.165 C 
BRANCH  10  11
ATOM     11  N   LIG    1       27.132 -26.831   5.343  0.00  0.00    -0.318 NA
ATOM     12  H1  LIG    1       27.098 -26.277   4.478  0.00  0.00    +0.119 HD
ATOM     13  H2  LIG    1       27.974 -26.496   5.813  0.00  0.00    +0.119 HD
ENDBRANCH  10  11
BRANCH  10  14
ATOM     14  C   LIG    1       25.531 -25.009   5.722  0.00  0.00    +0.322 C 
ATOM     15  O   LIG    1       25.745 -24.051   6.368  0.00  0.00    -0.249 OA
BRANCH  14  16
ATOM     16  OXT LIG    1       24.836 -24.922   4.544  0.00  0.00    -0.479 OA
ATOM     17  HXT LIG    1       25.278 -25.134   3.723  0.00  0.00    +0.295 HD
ENDBRANCH  14  16
ENDBRANCH  10  14
ENDBRANCH   9  10
ENDBRANCH   1   9
BRANCH   5  18
ATOM     18  O   LIG    1       25.347 -32.346   9.065  0.00  0.00    -0.454 OA
BRANCH  18  19
ATOM     19  C   LIG    1       24.631 -32.569  10.223  0.00  0.00    +0.131 A 
ATOM     20  C   LIG    1       25.228 -33.077  11.376  0.00  0.00    +0.064 A 
ATOM     21  C   LIG    1       24.584 -32.958  12.620  0.00  0.00    +0.059 A 
ATOM     22  I   LIG    1       25.659 -33.418  14.388  0.00  0.00    -0.040 I 
ATOM     23  C   LIG    1       23.296 -32.432  12.688  0.00  0.00    +0.143 A 
ATOM     24  C   LIG    1       22.615 -32.152  11.499  0.00  0.00    +0.059 A 
ATOM     25  I   LIG    1       20.608 -31.555  11.568  0.00  0.00    -0.040 I 
ATOM     26  C   LIG    1       23.266 -32.257  10.256  0.00  0.00    +0.064 A 
BRANCH  23  27
ATOM     27  O   LIG    1       22.725 -32.222  13.914  0.00  0.00    -0.505 OA
ATOM     28  H   LIG    1       23.219 -31.517  14.365  0.00  0.00    +0.292 HD
ENDBRANCH  23  27
ENDBRANCH  18  19
ENDBRANCH   5  18
TORSDOF 8
ENDMDL
