MODEL 1
REMARK VINA RESULT:       8.4      0.000      0.000
REMARK  Name = *****
REMARK                            x       y       z     vdW  Elec       q    Type
REMARK                         _______ _______ _______ _____ _____    ______ ____
ROOT
ATOM      1  C   LIG    1       23.764 -19.348   4.913  0.00  0.00    +0.189 C 
ATOM      2  C   LIG    1       22.967 -18.106   4.265  0.00  0.00    +0.022 C 
ATOM      3  C   LIG    1       23.960 -17.610   3.171  0.00  0.00    +0.006 C 
ATOM      4  C   LIG    1       24.940 -16.479   3.614  0.00  0.00    +0.037 C 
ATOM      5  C   LIG    1       24.192 -15.261   4.195  0.00  0.00    +0.153 C 
ATOM      6  C   LIG    1       23.429 -15.761   5.451  0.00  0.00    +0.154 C 
ATOM      7  F   LIG    1       23.230 -14.940   3.254  0.00  0.00    -0.238 F 
ATOM      8  C   LIG    1       25.082 -13.925   4.406  0.00  0.00    +0.047 C 
ATOM      9  C   LIG    1       26.309 -13.822   3.459  0.00  0.00    -0.020 C 
ATOM     10  C   LIG    1       27.211 -12.827   3.645  0.00  0.00    +0.054 C 
ATOM     11  C   LIG    1       27.808 -12.943   5.029  0.00  0.00    +0.179 C 
ATOM     12  C   LIG    1       26.855 -13.292   6.119  0.00  0.00    +0.047 C 
ATOM     13  O   LIG    1       28.974 -12.651   5.253  0.00  0.00    -0.288 OA
ATOM     14  C   LIG    1       26.888 -15.103   2.930  0.00  0.00    +0.194 C 
ATOM     15  F   LIG    1       27.585 -15.742   3.913  0.00  0.00    -0.241 F 
ATOM     16  C   LIG    1       24.179 -12.687   4.112  0.00  0.00    +0.023 C 
ATOM     17  C   LIG    1       25.610 -13.714   5.834  0.00  0.00    -0.009 C 
ATOM     18  C   LIG    1       25.817 -16.046   2.432  0.00  0.00    +0.048 C 
ATOM     19  C   LIG    1       24.732 -18.873   2.725  0.00  0.00    +0.012 C 
ATOM     20  C   LIG    1       21.653 -18.579   3.556  0.00  0.00    +0.016 C 
ATOM     21  C   LIG    1       22.500 -16.955   5.193  0.00  0.00    +0.046 C 
ATOM     22  C   LIG    1       24.273 -20.043   3.606  0.00  0.00    +0.039 C 
ATOM     23  C   LIG    1       25.361 -21.114   3.639  0.00  0.00    +0.012 C 
ENDROOT
BRANCH   6  24
ATOM     24  O   LIG    1       22.619 -14.715   6.008  0.00  0.00    -0.389 OA
ATOM     25  H   LIG    1       21.796 -14.675   5.483  0.00  0.00    +0.210 HD
ENDBRANCH   6  24
BRANCH   1  26
ATOM     26  C   LIG    1       22.852 -20.196   5.870  0.00  0.00    +0.236 C 
ATOM     27  O   LIG    1       22.698 -19.904   7.054  0.00  0.00    -0.281 OA
BRANCH  26  28
ATOM     28  S   LIG    1       21.978 -21.570   5.183  0.00  0.00    -0.051 S 
BRANCH  28  29
ATOM     29  C   LIG    1       20.880 -20.692   4.058  0.00  0.00    +0.290 C 
ATOM     30  F   LIG    1       19.601 -20.811   4.514  0.00  0.00    -0.237 F 
ENDBRANCH  28  29
ENDBRANCH  26  28
ENDBRANCH   1  26
BRANCH   1  31
ATOM     31  O   LIG    1       24.878 -18.776   5.663  0.00  0.00    -0.449 OA
BRANCH  31  32
ATOM     32  C   LIG    1       25.869 -19.615   6.086  0.00  0.00    +0.308 C 
ATOM     33  O   LIG    1       25.739 -20.482   6.924  0.00  0.00    -0.251 OA
BRANCH  32  35
ATOM     34  C   LIG    1       28.247 -20.209   6.021  0.00  0.00    +0.015 C 
ATOM     35  C   LIG    1       27.182 -19.322   5.401  0.00  0.00    +0.117 C 
ENDBRANCH  32  35
ENDBRANCH  31  32
ENDBRANCH   1  31
TORSDOF 7
ENDMDL
