MODEL 1
REMARK VINA RESULT:       8.1      0.000      0.000
REMARK  Name = *****
REMARK                            x       y       z     vdW  Elec       q    Type
REMARK                         _______ _______ _______ _____ _____    ______ ____
ROOT
ATOM      1  C   LIG    1       23.093 -18.449   4.007  0.00  0.00    +0.064 A 
ATOM      2  C   LIG    1       24.421 -18.911   3.741  0.00  0.00    +0.049 A 
ATOM      3  I   LIG    1       24.663 -20.951   3.018  0.00  0.00    -0.041 I 
ATOM      4  C   LIG    1       25.530 -18.014   3.760  0.00  0.00    +0.065 A 
ATOM      5  C   LIG    1       25.244 -16.617   3.789  0.00  0.00    +0.040 A 
ATOM      6  I   LIG    1       26.691 -15.208   3.031  0.00  0.00    -0.042 I 
ATOM      7  C   LIG    1       23.936 -16.125   4.046  0.00  0.00    +0.065 A 
ATOM      8  C   LIG    1       22.898 -17.058   4.240  0.00  0.00    +0.049 A 
ATOM      9  I   LIG    1       21.036 -16.349   5.174  0.00  0.00    -0.041 I 
ENDROOT
BRANCH   4  10
ATOM     10  C   LIG    1       26.975 -18.543   3.824  0.00  0.00    +0.246 C 
ATOM     11  N   LIG    1       27.788 -17.931   4.774  0.00  0.00    -0.309 N 
ATOM     12  H   LIG    1       27.451 -17.151   5.311  0.00  0.00    +0.149 HD
ATOM     13  O   LIG    1       27.387 -19.452   3.142  0.00  0.00    -0.270 OA
BRANCH  11  14
ATOM     14  C   LIG    1       29.203 -18.291   4.964  0.00  0.00    +0.138 C 
BRANCH  14  15
ATOM     15  C   LIG    1       29.401 -19.589   5.784  0.00  0.00    +0.157 C 
BRANCH  15  16
ATOM     16  O   LIG    1       29.095 -20.721   4.958  0.00  0.00    -0.388 OA
ATOM     17  H   LIG    1       28.860 -21.442   5.573  0.00  0.00    +0.210 HD
ENDBRANCH  15  16
BRANCH  15  18
ATOM     18  C   LIG    1       28.557 -19.650   7.062  0.00  0.00    +0.188 C 
BRANCH  18  19
ATOM     19  O   LIG    1       27.196 -19.874   6.709  0.00  0.00    -0.392 OA
ATOM     20  H   LIG    1       26.757 -20.234   7.506  0.00  0.00    +0.209 HD
ENDBRANCH  18  19
ENDBRANCH  15  18
ENDBRANCH  14  15
ENDBRANCH  11  14
ENDBRANCH   4  10
BRANCH   1  23
ATOM     21  C   LIG    1       19.481 -19.671   3.565  0.00  0.00    +0.110 C 
ATOM     22  C   LIG    1       20.760 -18.870   3.413  0.00  0.00    +0.217 C 
ATOM     23  N   LIG    1       21.939 -19.334   4.012  0.00  0.00    -0.267 N 
ATOM     24  O   LIG    1       20.718 -17.816   2.770  0.00  0.00    -0.276 OA
BRANCH  23  25
ATOM     25  C   LIG    1       22.065 -20.626   4.739  0.00  0.00    +0.147 C 
BRANCH  25  26
ATOM     26  C   LIG    1       22.331 -20.479   6.255  0.00  0.00    +0.158 C 
BRANCH  26  27
ATOM     27  O   LIG    1       22.807 -19.169   6.573  0.00  0.00    -0.388 OA
ATOM     28  H   LIG    1       23.673 -19.276   7.005  0.00  0.00    +0.210 HD
ENDBRANCH  26  27
BRANCH  26  29
ATOM     29  C   LIG    1       23.420 -21.435   6.738  0.00  0.00    +0.188 C 
BRANCH  29  30
ATOM     30  O   LIG    1       24.715 -20.939   6.450  0.00  0.00    -0.392 OA
ATOM     31  H   LIG    1       24.628 -20.308   5.716  0.00  0.00    +0.209 HD
ENDBRANCH  29  30
ENDBRANCH  26  29
ENDBRANCH  25  26
ENDBRANCH  23  25
ENDBRANCH   1  23
BRANCH   7  32
ATOM     32  C   LIG    1       23.652 -14.650   4.087  0.00  0.00    +0.246 C 
ATOM     33  N   LIG    1       24.383 -13.910   4.978  0.00  0.00    -0.309 N 
ATOM     34  H   LIG    1       25.249 -14.314   5.330  0.00  0.00    +0.149 HD
ATOM     35  O   LIG    1       22.789 -14.140   3.346  0.00  0.00    -0.270 OA
BRANCH  33  36
ATOM     36  C   LIG    1       24.246 -12.465   5.124  0.00  0.00    +0.138 C 
BRANCH  36  37
ATOM     37  C   LIG    1       24.646 -11.740   3.827  0.00  0.00    +0.157 C 
BRANCH  37  38
ATOM     38  O   LIG    1       23.497 -11.490   3.009  0.00  0.00    -0.388 OA
ATOM     39  H   LIG    1       23.532 -12.100   2.250  0.00  0.00    +0.210 HD
ENDBRANCH  37  38
BRANCH  37  40
ATOM     40  C   LIG    1       25.673 -12.543   3.031  0.00  0.00    +0.188 C 
BRANCH  40  41
ATOM     41  O   LIG    1       25.125 -13.027   1.815  0.00  0.00    -0.392 OA
ATOM     42  H   LIG    1       24.174 -12.820   1.820  0.00  0.00    +0.209 HD
ENDBRANCH  40  41
ENDBRANCH  37  40
ENDBRANCH  36  37
ENDBRANCH  33  36
ENDBRANCH   7  32
TORSDOF 18
ENDMDL
MODEL 2
REMARK VINA RESULT:      11.1      1.645      5.653
REMARK  Name = *****
REMARK                            x       y       z     vdW  Elec       q    Type
REMARK                         _______ _______ _______ _____ _____    ______ ____
ROOT
ATOM      1  C   LIG    1       23.031 -18.325   4.027  0.00  0.00    +0.064 A 
ATOM      2  C   LIG    1       23.241 -16.919   4.199  0.00  0.00    +0.049 A 
ATOM      3  I   LIG    1       21.615 -15.744   5.047  0.00  0.00    -0.041 I 
ATOM      4  C   LIG    1       24.529 -16.339   4.006  0.00  0.00    +0.065 A 
ATOM      5  C   LIG    1       25.641 -17.227   3.900  0.00  0.00    +0.040 A 
ATOM      6  I   LIG    1       27.620 -16.537   4.408  0.00  0.00    -0.042 I 
ATOM      7  C   LIG    1       25.467 -18.627   3.733  0.00  0.00    +0.065 A 
ATOM      8  C   LIG    1       24.155 -19.139   3.710  0.00  0.00    +0.049 A 
ATOM      9  I   LIG    1       23.853 -21.166   2.906  0.00  0.00    -0.041 I 
ENDROOT
BRANCH   4  10
ATOM     10  C   LIG    1       24.696 -14.816   3.845  0.00  0.00    +0.246 C 
ATOM     11  N   LIG    1       25.734 -14.419   3.008  0.00  0.00    -0.309 N 
ATOM     12  H   LIG    1       26.362 -15.098   2.612  0.00  0.00    +0.149 HD
ATOM     13  O   LIG    1       23.964 -14.004   4.361  0.00  0.00    -0.270 OA
BRANCH  11  14
ATOM     14  C   LIG    1       26.057 -13.005   2.751  0.00  0.00    +0.138 C 
BRANCH  14  15
ATOM     15  C   LIG    1       27.275 -12.498   3.558  0.00  0.00    +0.157 C 
BRANCH  15  16
ATOM     16  O   LIG    1       28.473 -13.077   3.021  0.00  0.00    -0.388 OA
ATOM     17  H   LIG    1       28.258 -14.013   2.841  0.00  0.00    +0.210 HD
ENDBRANCH  15  16
BRANCH  15  18
ATOM     18  C   LIG    1       27.195 -12.800   5.059  0.00  0.00    +0.188 C 
BRANCH  18  19
ATOM     19  O   LIG    1       28.390 -12.349   5.687  0.00  0.00    -0.392 OA
ATOM     20  H   LIG    1       28.115 -11.820   6.463  0.00  0.00    +0.209 HD
ENDBRANCH  18  19
ENDBRANCH  15  18
ENDBRANCH  14  15
ENDBRANCH  11  14
ENDBRANCH   4  10
BRANCH   1  23
ATOM     21  C   LIG    1       19.352 -19.228   3.410  0.00  0.00    +0.110 C 
ATOM     22  C   LIG    1       20.778 -18.763   3.187  0.00  0.00    +0.217 C 
ATOM     23  N   LIG    1       21.731 -18.951   4.198  0.00  0.00    -0.267 N 
ATOM     24  O   LIG    1       21.055 -18.216   2.114  0.00  0.00    -0.276 OA
BRANCH  23  25
ATOM     25  C   LIG    1       21.471 -19.662   5.480  0.00  0.00    +0.147 C 
BRANCH  25  26
ATOM     26  C   LIG    1       22.725 -19.858   6.363  0.00  0.00    +0.158 C 
BRANCH  26  27
ATOM     27  O   LIG    1       23.873 -19.236   5.779  0.00  0.00    -0.388 OA
ATOM     28  H   LIG    1       23.783 -18.277   5.923  0.00  0.00    +0.210 HD
ENDBRANCH  26  27
BRANCH  26  29
ATOM     29  C   LIG    1       23.093 -21.332   6.514  0.00  0.00    +0.188 C 
BRANCH  29  30
ATOM     30  O   LIG    1       24.443 -21.572   6.157  0.00  0.00    -0.392 OA
ATOM     31  H   LIG    1       24.489 -21.580   5.186  0.00  0.00    +0.209 HD
ENDBRANCH  29  30
ENDBRANCH  26  29
ENDBRANCH  25  26
ENDBRANCH  23  25
ENDBRANCH   1  23
BRANCH   7  32
ATOM     32  C   LIG    1       26.647 -19.549   3.608  0.00  0.00    +0.246 C 
ATOM     33  N   LIG    1       27.620 -19.432   4.564  0.00  0.00    -0.309 N 
ATOM     34  H   LIG    1       27.373 -18.971   5.437  0.00  0.00    +0.149 HD
ATOM     35  O   LIG    1       26.724 -20.372   2.673  0.00  0.00    -0.270 OA
BRANCH  33  36
ATOM     36  C   LIG    1       28.816 -20.269   4.598  0.00  0.00    +0.138 C 
BRANCH  36  37
ATOM     37  C   LIG    1       28.893 -21.064   5.913  0.00  0.00    +0.157 C 
BRANCH  37  38
ATOM     38  O   LIG    1       27.600 -21.551   6.291  0.00  0.00    -0.388 OA
ATOM     39  H   LIG    1       27.720 -22.419   6.716  0.00  0.00    +0.210 HD
ENDBRANCH  37  38
BRANCH  37  40
ATOM     40  C   LIG    1       29.470 -20.217   7.046  0.00  0.00    +0.188 C 
BRANCH  40  41
ATOM     41  O   LIG    1       29.474 -18.837   6.714  0.00  0.00    -0.392 OA
ATOM     42  H   LIG    1       30.267 -18.441   7.117  0.00  0.00    +0.209 HD
ENDBRANCH  40  41
ENDBRANCH  37  40
ENDBRANCH  36  37
ENDBRANCH  33  36
ENDBRANCH   7  32
TORSDOF 18
ENDMDL
