MODEL 1
REMARK VINA RESULT:      -4.6      0.000      0.000
REMARK  Name = *****
REMARK                            x       y       z     vdW  Elec       q    Type
REMARK                         _______ _______ _______ _____ _____    ______ ____
ROOT
ATOM      1  N   LIG    1       25.293 -17.100   3.246  0.00  0.00    -0.312 N 
ATOM      2  H   LIG    1       24.529 -16.984   2.574  0.00  0.00    +0.152 HD
ENDROOT
BRANCH   1   7
ATOM      3  C   LIG    1       22.401 -20.756   5.153  0.00  0.00    +0.045 C 
ATOM      4  C   LIG    1       23.740 -20.177   4.775  0.00  0.00    -0.030 A 
ATOM      5  C   LIG    1       23.922 -18.969   4.060  0.00  0.00    +0.066 A 
ATOM      6 CL   LIG    1       22.546 -18.213   3.305  0.00  0.00    -0.081 Cl
ATOM      7  C   LIG    1       25.208 -18.368   3.898  0.00  0.00    +0.069 A 
ATOM      8  C   LIG    1       26.307 -19.065   4.444  0.00  0.00    +0.064 A 
ATOM      9 CL   LIG    1       27.915 -18.426   4.541  0.00  0.00    -0.082 Cl
ATOM     10  C   LIG    1       26.139 -20.311   5.062  0.00  0.00    +0.022 A 
ATOM     11  C   LIG    1       24.871 -20.849   5.248  0.00  0.00    +0.006 A 
ENDBRANCH   1   7
BRANCH   1  12
ATOM     12  C   LIG    1       25.872 -15.864   3.621  0.00  0.00    +0.045 A 
ATOM     13  C   LIG    1       25.099 -14.738   3.988  0.00  0.00    +0.080 A 
ATOM     14  C   LIG    1       25.725 -13.530   4.362  0.00  0.00    +0.017 A 
ATOM     15  C   LIG    1       27.113 -13.424   4.384  0.00  0.00    +0.001 A 
ATOM     16  C   LIG    1       27.883 -14.511   3.993  0.00  0.00    +0.002 A 
ATOM     17  C   LIG    1       27.269 -15.701   3.590  0.00  0.00    +0.024 A 
BRANCH  13  18
ATOM     18  C   LIG    1       23.613 -14.699   4.000  0.00  0.00    +0.339 C 
ATOM     19  O   LIG    1       22.891 -15.408   4.667  0.00  0.00    -0.245 OA
BRANCH  18  20
ATOM     20  O   LIG    1       23.092 -13.822   3.117  0.00  0.00    -0.477 OA
ATOM     21  H   LIG    1       22.568 -13.225   3.696  0.00  0.00    +0.295 HD
ENDBRANCH  18  20
ENDBRANCH  13  18
ENDBRANCH   1  12
TORSDOF 4
ENDMDL
MODEL 2
REMARK VINA RESULT:      -4.4      2.505      6.217
REMARK  Name = *****
REMARK                            x       y       z     vdW  Elec       q    Type
REMARK                         _______ _______ _______ _____ _____    ______ ____
ROOT
ATOM      1  N   LIG    1       24.672 -18.438   3.790  0.00  0.00    -0.312 N 
ATOM      2  H   LIG    1       25.559 -18.716   3.360  0.00  0.00    +0.152 HD
ENDROOT
BRANCH   1   7
ATOM      3  C   LIG    1       27.014 -13.983   3.959  0.00  0.00    +0.045 C 
ATOM      4  C   LIG    1       25.772 -14.833   3.903  0.00  0.00    -0.030 A 
ATOM      5  C   LIG    1       25.764 -16.239   3.733  0.00  0.00    +0.066 A 
ATOM      6 CL   LIG    1       27.238 -17.046   3.275  0.00  0.00    -0.081 Cl
ATOM      7  C   LIG    1       24.574 -17.015   3.883  0.00  0.00    +0.069 A 
ATOM      8  C   LIG    1       23.385 -16.309   4.159  0.00  0.00    +0.064 A 
ATOM      9 CL   LIG    1       21.880 -17.059   4.577  0.00  0.00    -0.082 Cl
ATOM     10  C   LIG    1       23.374 -14.909   4.226  0.00  0.00    +0.022 A 
ATOM     11  C   LIG    1       24.554 -14.182   4.125  0.00  0.00    +0.006 A 
ENDBRANCH   1   7
BRANCH   1  12
ATOM     12  C   LIG    1       24.077 -19.491   4.525  0.00  0.00    +0.045 A 
ATOM     13  C   LIG    1       24.810 -20.310   5.415  0.00  0.00    +0.080 A 
ATOM     14  C   LIG    1       24.169 -21.343   6.132  0.00  0.00    +0.017 A 
ATOM     15  C   LIG    1       22.804 -21.571   5.983  0.00  0.00    +0.001 A 
ATOM     16  C   LIG    1       22.079 -20.796   5.088  0.00  0.00    +0.002 A 
ATOM     17  C   LIG    1       22.715 -19.793   4.350  0.00  0.00    +0.024 A 
BRANCH  13  18
ATOM     18  C   LIG    1       26.270 -20.192   5.666  0.00  0.00    +0.339 C 
ATOM     19  O   LIG    1       26.799 -20.116   6.753  0.00  0.00    -0.245 OA
BRANCH  18  20
ATOM     20  O   LIG    1       27.002 -20.100   4.536  0.00  0.00    -0.477 OA
ATOM     21  H   LIG    1       27.423 -19.215   4.628  0.00  0.00    +0.295 HD
ENDBRANCH  18  20
ENDBRANCH  13  18
ENDBRANCH   1  12
TORSDOF 4
ENDMDL
MODEL 3
REMARK VINA RESULT:      -4.3      1.937      2.607
REMARK  Name = *****
REMARK                            x       y       z     vdW  Elec       q    Type
REMARK                         _______ _______ _______ _____ _____    ______ ____
ROOT
ATOM      1  N   LIG    1       25.922 -17.177   3.315  0.00  0.00    -0.312 N 
ATOM      2  H   LIG    1       25.939 -17.361   2.307  0.00  0.00    +0.152 HD
ENDROOT
BRANCH   1   7
ATOM      3  C   LIG    1       24.095 -21.420   5.322  0.00  0.00    +0.045 C 
ATOM      4  C   LIG    1       25.230 -20.489   4.979  0.00  0.00    -0.030 A 
ATOM      5  C   LIG    1       25.103 -19.322   4.186  0.00  0.00    +0.066 A 
ATOM      6 CL   LIG    1       23.629 -19.056   3.298  0.00  0.00    -0.081 Cl
ATOM      7  C   LIG    1       26.164 -18.375   4.055  0.00  0.00    +0.069 A 
ATOM      8  C   LIG    1       27.374 -18.680   4.714  0.00  0.00    +0.064 A 
ATOM      9 CL   LIG    1       28.709 -17.585   4.856  0.00  0.00    -0.082 Cl
ATOM     10  C   LIG    1       27.532 -19.883   5.414  0.00  0.00    +0.022 A 
ATOM     11  C   LIG    1       26.468 -20.764   5.567  0.00  0.00    +0.006 A 
ENDBRANCH   1   7
BRANCH   1  12
ATOM     12  C   LIG    1       25.249 -15.973   3.630  0.00  0.00    +0.045 A 
ATOM     13  C   LIG    1       25.864 -14.703   3.526  0.00  0.00    +0.080 A 
ATOM     14  C   LIG    1       25.147 -13.530   3.844  0.00  0.00    +0.017 A 
ATOM     15  C   LIG    1       23.820 -13.598   4.260  0.00  0.00    +0.001 A 
ATOM     16  C   LIG    1       23.214 -14.839   4.399  0.00  0.00    +0.002 A 
ATOM     17  C   LIG    1       23.929 -16.007   4.117  0.00  0.00    +0.024 A 
BRANCH  13  18
ATOM     18  C   LIG    1       27.273 -14.478   3.109  0.00  0.00    +0.339 C 
ATOM     19  O   LIG    1       28.243 -14.527   3.834  0.00  0.00    -0.245 OA
BRANCH  18  20
ATOM     20  O   LIG    1       27.399 -14.126   1.813  0.00  0.00    -0.477 OA
ATOM     21  H   LIG    1       26.485 -14.244   1.471  0.00  0.00    +0.295 HD
ENDBRANCH  18  20
ENDBRANCH  13  18
ENDBRANCH   1  12
TORSDOF 4
ENDMDL
MODEL 4
REMARK VINA RESULT:      -4.3      2.608      5.701
REMARK  Name = *****
REMARK                            x       y       z     vdW  Elec       q    Type
REMARK                         _______ _______ _______ _____ _____    ______ ____
ROOT
ATOM      1  N   LIG    1       25.237 -18.797   3.771  0.00  0.00    -0.312 N 
ATOM      2  H   LIG    1       25.578 -18.946   2.817  0.00  0.00    +0.152 HD
ENDROOT
BRANCH   1   7
ATOM      3  C   LIG    1       25.573 -13.776   3.964  0.00  0.00    +0.045 C 
ATOM      4  C   LIG    1       24.782 -15.057   3.915  0.00  0.00    -0.030 A 
ATOM      5  C   LIG    1       25.342 -16.344   3.727  0.00  0.00    +0.066 A 
ATOM      6 CL   LIG    1       27.009 -16.481   3.238  0.00  0.00    -0.081 Cl
ATOM      7  C   LIG    1       24.573 -17.537   3.883  0.00  0.00    +0.069 A 
ATOM      8  C   LIG    1       23.204 -17.376   4.185  0.00  0.00    +0.064 A 
ATOM      9 CL   LIG    1       22.141 -18.676   4.614  0.00  0.00    -0.082 Cl
ATOM     10  C   LIG    1       22.628 -16.101   4.270  0.00  0.00    +0.022 A 
ATOM     11  C   LIG    1       23.409 -14.957   4.162  0.00  0.00    +0.006 A 
ENDBRANCH   1   7
BRANCH   1  12
ATOM     12  C   LIG    1       25.897 -19.623   4.713  0.00  0.00    +0.045 A 
ATOM     13  C   LIG    1       25.292 -20.769   5.281  0.00  0.00    +0.080 A 
ATOM     14  C   LIG    1       25.995 -21.564   6.210  0.00  0.00    +0.017 A 
ATOM     15  C   LIG    1       27.297 -21.242   6.581  0.00  0.00    +0.001 A 
ATOM     16  C   LIG    1       27.891 -20.102   6.057  0.00  0.00    +0.002 A 
ATOM     17  C   LIG    1       27.188 -19.291   5.161  0.00  0.00    +0.024 A 
BRANCH  13  18
ATOM     18  C   LIG    1       23.908 -21.226   4.990  0.00  0.00    +0.339 C 
ATOM     19  O   LIG    1       23.066 -21.506   5.815  0.00  0.00    -0.245 OA
BRANCH  18  20
ATOM     20  O   LIG    1       23.662 -21.386   3.673  0.00  0.00    -0.477 OA
ATOM     21  H   LIG    1       23.452 -22.345   3.612  0.00  0.00    +0.295 HD
ENDBRANCH  18  20
ENDBRANCH  13  18
ENDBRANCH   1  12
TORSDOF 4
ENDMDL
MODEL 5
REMARK VINA RESULT:      -3.8      0.715      2.360
REMARK  Name = *****
REMARK                            x       y       z     vdW  Elec       q    Type
REMARK                         _______ _______ _______ _____ _____    ______ ____
ROOT
ATOM      1  N   LIG    1       24.907 -17.243   3.294  0.00  0.00    -0.312 N 
ATOM      2  H   LIG    1       24.364 -17.109   2.436  0.00  0.00    +0.152 HD
ENDROOT
BRANCH   1   7
ATOM      3  C   LIG    1       25.773 -21.572   5.719  0.00  0.00    +0.045 C 
ATOM      4  C   LIG    1       24.874 -20.438   5.297  0.00  0.00    -0.030 A 
ATOM      5  C   LIG    1       25.308 -19.281   4.606  0.00  0.00    +0.066 A 
ATOM      6 CL   LIG    1       27.016 -18.970   4.460  0.00  0.00    -0.081 Cl
ATOM      7  C   LIG    1       24.390 -18.333   4.060  0.00  0.00    +0.069 A 
ATOM      8  C   LIG    1       23.018 -18.575   4.285  0.00  0.00    +0.064 A 
ATOM      9 CL   LIG    1       21.735 -17.674   3.546  0.00  0.00    -0.082 Cl
ATOM     10  C   LIG    1       22.594 -19.666   5.056  0.00  0.00    +0.022 A 
ATOM     11  C   LIG    1       23.506 -20.598   5.534  0.00  0.00    +0.006 A 
ENDBRANCH   1   7
BRANCH   1  12
ATOM     12  C   LIG    1       25.653 -16.092   3.643  0.00  0.00    +0.045 A 
ATOM     13  C   LIG    1       25.043 -14.877   4.034  0.00  0.00    +0.080 A 
ATOM     14  C   LIG    1       25.831 -13.759   4.382  0.00  0.00    +0.017 A 
ATOM     15  C   LIG    1       27.221 -13.832   4.354  0.00  0.00    +0.001 A 
ATOM     16  C   LIG    1       27.832 -15.008   3.941  0.00  0.00    +0.002 A 
ATOM     17  C   LIG    1       27.057 -16.109   3.563  0.00  0.00    +0.024 A 
BRANCH  13  18
ATOM     18  C   LIG    1       23.576 -14.649   4.098  0.00  0.00    +0.339 C 
ATOM     19  O   LIG    1       22.809 -15.178   4.874  0.00  0.00    -0.245 OA
BRANCH  18  20
ATOM     20  O   LIG    1       23.119 -13.822   3.135  0.00  0.00    -0.477 OA
ATOM     21  H   LIG    1       23.946 -13.408   2.801  0.00  0.00    +0.295 HD
ENDBRANCH  18  20
ENDBRANCH  13  18
ENDBRANCH   1  12
TORSDOF 4
ENDMDL
MODEL 6
REMARK VINA RESULT:      -3.4      2.404      3.098
REMARK  Name = *****
REMARK                            x       y       z     vdW  Elec       q    Type
REMARK                         _______ _______ _______ _____ _____    ______ ____
ROOT
ATOM      1  N   LIG    1       24.699 -15.139   4.315  0.00  0.00    -0.312 N 
ATOM      2  H   LIG    1       25.083 -14.998   5.254  0.00  0.00    +0.152 HD
ENDROOT
BRANCH   1   7
ATOM      3  C   LIG    1       21.923 -19.334   4.545  0.00  0.00    +0.045 C 
ATOM      4  C   LIG    1       23.142 -18.566   4.104  0.00  0.00    -0.030 A 
ATOM      5  C   LIG    1       23.323 -17.173   4.279  0.00  0.00    +0.066 A 
ATOM      6 CL   LIG    1       21.968 -16.196   4.775  0.00  0.00    -0.081 Cl
ATOM      7  C   LIG    1       24.573 -16.532   4.020  0.00  0.00    +0.069 A 
ATOM      8  C   LIG    1       25.615 -17.346   3.528  0.00  0.00    +0.064 A 
ATOM      9 CL   LIG    1       27.256 -16.821   3.341  0.00  0.00    -0.082 Cl
ATOM     10  C   LIG    1       25.405 -18.705   3.258  0.00  0.00    +0.022 A 
ATOM     11  C   LIG    1       24.194 -19.313   3.565  0.00  0.00    +0.006 A 
ENDBRANCH   1   7
BRANCH   1  12
ATOM     12  C   LIG    1       24.846 -13.994   3.496  0.00  0.00    +0.045 A 
ATOM     13  C   LIG    1       26.069 -13.292   3.377  0.00  0.00    +0.080 A 
ATOM     14  C   LIG    1       26.167 -12.160   2.541  0.00  0.00    +0.017 A 
ATOM     15  C   LIG    1       25.067 -11.716   1.812  0.00  0.00    +0.001 A 
ATOM     16  C   LIG    1       23.853 -12.376   1.945  0.00  0.00    +0.002 A 
ATOM     17  C   LIG    1       23.740 -13.478   2.798  0.00  0.00    +0.024 A 
BRANCH  13  18
ATOM     18  C   LIG    1       27.318 -13.640   4.102  0.00  0.00    +0.339 C 
ATOM     19  O   LIG    1       27.391 -14.003   5.256  0.00  0.00    -0.245 OA
BRANCH  18  20
ATOM     20  O   LIG    1       28.435 -13.448   3.369  0.00  0.00    -0.477 OA
ATOM     21  H   LIG    1       28.259 -13.990   2.568  0.00  0.00    +0.295 HD
ENDBRANCH  18  20
ENDBRANCH  13  18
ENDBRANCH   1  12
TORSDOF 4
ENDMDL
MODEL 7
REMARK VINA RESULT:      -3.1      1.894      3.403
REMARK  Name = *****
REMARK                            x       y       z     vdW  Elec       q    Type
REMARK                         _______ _______ _______ _____ _____    ______ ____
ROOT
ATOM      1  N   LIG    1       24.597 -17.239   3.491  0.00  0.00    -0.312 N 
ATOM      2  H   LIG    1       24.597 -17.430   2.485  0.00  0.00    +0.152 HD
ENDROOT
BRANCH   1   7
ATOM      3  C   LIG    1       25.704 -21.570   5.811  0.00  0.00    +0.045 C 
ATOM      4  C   LIG    1       24.742 -20.481   5.411  0.00  0.00    -0.030 A 
ATOM      5  C   LIG    1       25.111 -19.282   4.754  0.00  0.00    +0.066 A 
ATOM      6 CL   LIG    1       26.798 -18.867   4.628  0.00  0.00    -0.081 Cl
ATOM      7  C   LIG    1       24.140 -18.377   4.225  0.00  0.00    +0.069 A 
ATOM      8  C   LIG    1       22.784 -18.705   4.435  0.00  0.00    +0.064 A 
ATOM      9 CL   LIG    1       21.454 -17.863   3.710  0.00  0.00    -0.082 Cl
ATOM     10  C   LIG    1       22.421 -19.839   5.174  0.00  0.00    +0.022 A 
ATOM     11  C   LIG    1       23.384 -20.728   5.635  0.00  0.00    +0.006 A 
ENDBRANCH   1   7
BRANCH   1  12
ATOM     12  C   LIG    1       24.605 -15.853   3.776  0.00  0.00    +0.045 A 
ATOM     13  C   LIG    1       25.793 -15.084   3.799  0.00  0.00    +0.080 A 
ATOM     14  C   LIG    1       25.747 -13.702   4.080  0.00  0.00    +0.017 A 
ATOM     15  C   LIG    1       24.534 -13.067   4.332  0.00  0.00    +0.001 A 
ATOM     16  C   LIG    1       23.365 -13.815   4.345  0.00  0.00    +0.002 A 
ATOM     17  C   LIG    1       23.407 -15.191   4.100  0.00  0.00    +0.024 A 
BRANCH  13  18
ATOM     18  C   LIG    1       27.155 -15.627   3.563  0.00  0.00    +0.339 C 
ATOM     19  O   LIG    1       27.416 -16.747   3.180  0.00  0.00    -0.245 OA
BRANCH  18  20
ATOM     20  O   LIG    1       28.141 -14.764   3.889  0.00  0.00    -0.477 OA
ATOM     21  H   LIG    1       28.077 -14.730   4.869  0.00  0.00    +0.295 HD
ENDBRANCH  18  20
ENDBRANCH  13  18
ENDBRANCH   1  12
TORSDOF 4
ENDMDL
MODEL 8
REMARK VINA RESULT:      -3.0      2.525      3.730
REMARK  Name = *****
REMARK                            x       y       z     vdW  Elec       q    Type
REMARK                         _______ _______ _______ _____ _____    ______ ____
ROOT
ATOM      1  N   LIG    1       25.049 -15.572   4.250  0.00  0.00    -0.312 N 
ATOM      2  H   LIG    1       25.989 -15.819   4.573  0.00  0.00    +0.152 HD
ENDROOT
BRANCH   1   7
ATOM      3  C   LIG    1       24.233 -20.322   2.788  0.00  0.00    +0.045 C 
ATOM      4  C   LIG    1       23.859 -19.082   3.559  0.00  0.00    -0.030 A 
ATOM      5  C   LIG    1       24.674 -17.932   3.679  0.00  0.00    +0.066 A 
ATOM      6 CL   LIG    1       26.336 -18.011   3.160  0.00  0.00    -0.081 Cl
ATOM      7  C   LIG    1       24.192 -16.716   4.254  0.00  0.00    +0.069 A 
ATOM      8  C   LIG    1       22.871 -16.727   4.749  0.00  0.00    +0.064 A 
ATOM      9 CL   LIG    1       22.023 -15.318   5.296  0.00  0.00    -0.082 Cl
ATOM     10  C   LIG    1       22.099 -17.896   4.722  0.00  0.00    +0.022 A 
ATOM     11  C   LIG    1       22.575 -19.051   4.113  0.00  0.00    +0.006 A 
ENDBRANCH   1   7
BRANCH   1  12
ATOM     12  C   LIG    1       25.034 -14.364   3.514  0.00  0.00    +0.045 A 
ATOM     13  C   LIG    1       26.216 -13.683   3.139  0.00  0.00    +0.080 A 
ATOM     14  C   LIG    1       26.148 -12.484   2.397  0.00  0.00    +0.017 A 
ATOM     15  C   LIG    1       24.919 -11.953   2.014  0.00  0.00    +0.001 A 
ATOM     16  C   LIG    1       23.751 -12.593   2.404  0.00  0.00    +0.002 A 
ATOM     17  C   LIG    1       23.810 -13.763   3.168  0.00  0.00    +0.024 A 
BRANCH  13  18
ATOM     18  C   LIG    1       27.592 -14.123   3.486  0.00  0.00    +0.339 C 
ATOM     19  O   LIG    1       27.878 -15.078   4.175  0.00  0.00    -0.245 OA
BRANCH  18  20
ATOM     20  O   LIG    1       28.553 -13.302   3.014  0.00  0.00    -0.477 OA
ATOM     21  H   LIG    1       29.094 -13.126   3.817  0.00  0.00    +0.295 HD
ENDBRANCH  18  20
ENDBRANCH  13  18
ENDBRANCH   1  12
TORSDOF 4
ENDMDL
MODEL 9
REMARK VINA RESULT:      -2.9      1.536      5.201
REMARK  Name = *****
REMARK                            x       y       z     vdW  Elec       q    Type
REMARK                         _______ _______ _______ _____ _____    ______ ____
ROOT
ATOM      1  N   LIG    1       24.692 -17.075   3.280  0.00  0.00    -0.312 N 
ATOM      2  H   LIG    1       24.600 -17.083   2.260  0.00  0.00    +0.152 HD
ENDROOT
BRANCH   1   7
ATOM      3  C   LIG    1       24.394 -12.120   4.135  0.00  0.00    +0.045 C 
ATOM      4  C   LIG    1       25.120 -13.440   4.187  0.00  0.00    -0.030 A 
ATOM      5  C   LIG    1       24.547 -14.688   3.844  0.00  0.00    +0.066 A 
ATOM      6 CL   LIG    1       22.824 -14.796   3.612  0.00  0.00    -0.081 Cl
ATOM      7  C   LIG    1       25.331 -15.876   3.724  0.00  0.00    +0.069 A 
ATOM      8  C   LIG    1       26.707 -15.762   4.016  0.00  0.00    +0.064 A 
ATOM      9 CL   LIG    1       27.870 -17.017   3.740  0.00  0.00    -0.082 Cl
ATOM     10  C   LIG    1       27.255 -14.548   4.454  0.00  0.00    +0.022 A 
ATOM     11  C   LIG    1       26.479 -13.397   4.515  0.00  0.00    +0.006 A 
ENDBRANCH   1   7
BRANCH   1  12
ATOM     12  C   LIG    1       24.584 -18.370   3.841  0.00  0.00    +0.045 A 
ATOM     13  C   LIG    1       23.360 -18.896   4.318  0.00  0.00    +0.080 A 
ATOM     14  C   LIG    1       23.303 -20.197   4.861  0.00  0.00    +0.017 A 
ATOM     15  C   LIG    1       24.445 -20.990   4.931  0.00  0.00    +0.001 A 
ATOM     16  C   LIG    1       25.658 -20.474   4.496  0.00  0.00    +0.002 A 
ATOM     17  C   LIG    1       25.728 -19.173   3.988  0.00  0.00    +0.024 A 
BRANCH  13  18
ATOM     18  C   LIG    1       22.068 -18.163   4.320  0.00  0.00    +0.339 C 
ATOM     19  O   LIG    1       21.084 -18.459   3.678  0.00  0.00    -0.245 OA
BRANCH  18  20
ATOM     20  O   LIG    1       22.087 -17.042   5.072  0.00  0.00    -0.477 OA
ATOM     21  H   LIG    1       22.013 -17.399   5.985  0.00  0.00    +0.295 HD
ENDBRANCH  18  20
ENDBRANCH  13  18
ENDBRANCH   1  12
TORSDOF 4
ENDMDL
