MODEL 1
REMARK VINA RESULT:      -7.8      0.000      0.000
REMARK  Name = *****
REMARK                            x       y       z     vdW  Elec       q    Type
REMARK                         _______ _______ _______ _____ _____    ______ ____
ROOT
ATOM      1  C   LIG    1       29.341 -18.668   5.234  0.00  0.00    +0.046 C 
ATOM      2  C   LIG    1       28.544 -19.487   6.206  0.00  0.00    -0.022 A 
ATOM      3  C   LIG    1       27.380 -20.161   5.819  0.00  0.00    +0.088 A 
ATOM      4  N   LIG    1       26.947 -20.131   4.466  0.00  0.00    -0.319 N 
ATOM      5  H   LIG    1       26.637 -21.077   4.247  0.00  0.00    +0.169 HD
ATOM      6  C   LIG    1       25.857 -19.291   4.319  0.00  0.00    +0.260 A 
ATOM      7  C   LIG    1       24.540 -19.874   4.669  0.00  0.00    +0.082 A 
ATOM      8  C   LIG    1       24.360 -20.945   5.562  0.00  0.00    +0.148 A 
ATOM      9  N   LIG    1       25.413 -21.547   6.335  0.00  0.00    -0.305 N 
ATOM     10  N   LIG    1       23.104 -21.458   5.730  0.00  0.00    -0.237 NA
ATOM     11  C   LIG    1       22.052 -20.904   5.087  0.00  0.00    +0.113 A 
ATOM     12  C   LIG    1       22.160 -19.831   4.233  0.00  0.00    +0.021 A 
ATOM     13  C   LIG    1       23.427 -19.311   4.019  0.00  0.00    +0.018 A 
ATOM     14  O   LIG    1       25.953 -18.145   3.893  0.00  0.00    -0.267 OA
ATOM     15  C   LIG    1       26.624 -20.895   6.751  0.00  0.00    +0.159 A 
ATOM     16  N   LIG    1       27.049 -21.014   8.035  0.00  0.00    -0.236 NA
ATOM     17  C   LIG    1       28.176 -20.362   8.398  0.00  0.00    +0.113 A 
ATOM     18  C   LIG    1       28.939 -19.591   7.538  0.00  0.00    +0.025 A 
ENDROOT
BRANCH   9  19
ATOM     19  C   LIG    1       24.995 -22.678   7.216  0.00  0.00    +0.091 C 
ATOM     20  C   LIG    1       25.822 -23.936   7.336  0.00  0.00    +0.027 C 
ATOM     21  C   LIG    1       24.498 -23.984   6.642  0.00  0.00    +0.027 C 
ENDBRANCH   9  19
TORSDOF 1
ENDMDL
MODEL 2
REMARK VINA RESULT:      -6.7      1.637      4.401
REMARK  Name = *****
REMARK                            x       y       z     vdW  Elec       q    Type
REMARK                         _______ _______ _______ _____ _____    ______ ____
ROOT
ATOM      1  C   LIG    1       22.153 -23.689   6.859  0.00  0.00    +0.046 C 
ATOM      2  C   LIG    1       23.645 -23.579   6.752  0.00  0.00    -0.022 A 
ATOM      3  C   LIG    1       24.281 -22.348   6.556  0.00  0.00    +0.088 A 
ATOM      4  N   LIG    1       23.522 -21.147   6.507  0.00  0.00    -0.319 N 
ATOM      5  H   LIG    1       24.052 -20.456   7.037  0.00  0.00    +0.169 HD
ATOM      6  C   LIG    1       23.420 -20.685   5.206  0.00  0.00    +0.260 A 
ATOM      7  C   LIG    1       24.579 -19.909   4.704  0.00  0.00    +0.082 A 
ATOM      8  C   LIG    1       25.889 -20.029   5.201  0.00  0.00    +0.148 A 
ATOM      9  N   LIG    1       26.301 -20.994   6.184  0.00  0.00    -0.305 N 
ATOM     10  N   LIG    1       26.855 -19.189   4.721  0.00  0.00    -0.237 NA
ATOM     11  C   LIG    1       26.559 -18.298   3.749  0.00  0.00    +0.113 A 
ATOM     12  C   LIG    1       25.307 -18.161   3.196  0.00  0.00    +0.021 A 
ATOM     13  C   LIG    1       24.301 -18.978   3.686  0.00  0.00    +0.018 A 
ATOM     14  O   LIG    1       22.427 -20.867   4.512  0.00  0.00    -0.267 OA
ATOM     15  C   LIG    1       25.678 -22.266   6.422  0.00  0.00    +0.159 A 
ATOM     16  N   LIG    1       26.443 -23.382   6.544  0.00  0.00    -0.236 NA
ATOM     17  C   LIG    1       25.820 -24.566   6.736  0.00  0.00    +0.113 A 
ATOM     18  C   LIG    1       24.447 -24.715   6.835  0.00  0.00    +0.025 A 
ENDROOT
BRANCH   9  19
ATOM     19  C   LIG    1       27.743 -20.938   6.571  0.00  0.00    +0.091 C 
ATOM     20  C   LIG    1       28.233 -21.504   7.883  0.00  0.00    +0.027 C 
ATOM     21  C   LIG    1       28.231 -20.023   7.669  0.00  0.00    +0.027 C 
ENDBRANCH   9  19
TORSDOF 1
ENDMDL
MODEL 3
REMARK VINA RESULT:      -6.5      1.992      4.029
REMARK  Name = *****
REMARK                            x       y       z     vdW  Elec       q    Type
REMARK                         _______ _______ _______ _____ _____    ______ ____
ROOT
ATOM      1  C   LIG    1       29.337 -19.108   8.970  0.00  0.00    +0.046 C 
ATOM      2  C   LIG    1       28.891 -19.161   7.539  0.00  0.00    -0.022 A 
ATOM      3  C   LIG    1       27.689 -19.772   7.164  0.00  0.00    +0.088 A 
ATOM      4  N   LIG    1       26.822 -20.317   8.149  0.00  0.00    -0.319 N 
ATOM      5  H   LIG    1       25.876 -20.059   7.868  0.00  0.00    +0.169 HD
ATOM      6  C   LIG    1       26.892 -21.700   8.152  0.00  0.00    +0.260 A 
ATOM      7  C   LIG    1       26.072 -22.390   7.128  0.00  0.00    +0.082 A 
ATOM      8  C   LIG    1       25.668 -21.809   5.913  0.00  0.00    +0.148 A 
ATOM      9  N   LIG    1       26.081 -20.511   5.454  0.00  0.00    -0.305 N 
ATOM     10  N   LIG    1       24.832 -22.514   5.092  0.00  0.00    -0.237 NA
ATOM     11  C   LIG    1       24.450 -23.767   5.424  0.00  0.00    +0.113 A 
ATOM     12  C   LIG    1       24.846 -24.403   6.579  0.00  0.00    +0.021 A 
ATOM     13  C   LIG    1       25.667 -23.700   7.445  0.00  0.00    +0.018 A 
ATOM     14  O   LIG    1       27.557 -22.330   8.966  0.00  0.00    -0.267 OA
ATOM     15  C   LIG    1       27.302 -19.845   5.813  0.00  0.00    +0.159 A 
ATOM     16  N   LIG    1       28.065 -19.265   4.852  0.00  0.00    -0.236 NA
ATOM     17  C   LIG    1       29.222 -18.674   5.224  0.00  0.00    +0.113 A 
ATOM     18  C   LIG    1       29.676 -18.607   6.530  0.00  0.00    +0.025 A 
ENDROOT
BRANCH   9  19
ATOM     19  C   LIG    1       25.523 -20.091   4.133  0.00  0.00    +0.091 C 
ATOM     20  C   LIG    1       25.323 -18.634   3.786  0.00  0.00    +0.027 C 
ATOM     21  C   LIG    1       24.133 -19.512   4.012  0.00  0.00    +0.027 C 
ENDBRANCH   9  19
TORSDOF 1
ENDMDL
MODEL 4
REMARK VINA RESULT:      -6.2      1.859      5.664
REMARK  Name = *****
REMARK                            x       y       z     vdW  Elec       q    Type
REMARK                         _______ _______ _______ _____ _____    ______ ____
ROOT
ATOM      1  C   LIG    1       23.117 -23.333   6.864  0.00  0.00    +0.046 C 
ATOM      2  C   LIG    1       23.318 -22.074   6.074  0.00  0.00    -0.022 A 
ATOM      3  C   LIG    1       24.593 -21.639   5.693  0.00  0.00    +0.088 A 
ATOM      4  N   LIG    1       25.740 -22.418   6.003  0.00  0.00    -0.319 N 
ATOM      5  H   LIG    1       26.334 -22.390   5.174  0.00  0.00    +0.169 HD
ATOM      6  C   LIG    1       26.453 -21.849   7.044  0.00  0.00    +0.260 A 
ATOM      7  C   LIG    1       27.371 -20.746   6.672  0.00  0.00    +0.082 A 
ATOM      8  C   LIG    1       27.215 -19.936   5.533  0.00  0.00    +0.148 A 
ATOM      9  N   LIG    1       26.091 -19.997   4.638  0.00  0.00    -0.305 N 
ATOM     10  N   LIG    1       28.181 -19.013   5.244  0.00  0.00    -0.237 NA
ATOM     11  C   LIG    1       29.237 -18.852   6.073  0.00  0.00    +0.113 A 
ATOM     12  C   LIG    1       29.422 -19.586   7.221  0.00  0.00    +0.021 A 
ATOM     13  C   LIG    1       28.474 -20.551   7.522  0.00  0.00    +0.018 A 
ATOM     14  O   LIG    1       26.369 -22.244   8.202  0.00  0.00    -0.267 OA
ATOM     15  C   LIG    1       24.768 -20.438   4.983  0.00  0.00    +0.159 A 
ATOM     16  N   LIG    1       23.690 -19.708   4.599  0.00  0.00    -0.236 NA
ATOM     17  C   LIG    1       22.463 -20.137   4.968  0.00  0.00    +0.113 A 
ATOM     18  C   LIG    1       22.230 -21.287   5.702  0.00  0.00    +0.025 A 
ENDROOT
BRANCH   9  19
ATOM     19  C   LIG    1       26.136 -19.045   3.487  0.00  0.00    +0.091 C 
ATOM     20  C   LIG    1       26.618 -17.624   3.655  0.00  0.00    +0.027 C 
ATOM     21  C   LIG    1       25.171 -17.887   3.382  0.00  0.00    +0.027 C 
ENDBRANCH   9  19
TORSDOF 1
ENDMDL
MODEL 5
REMARK VINA RESULT:      -5.4      9.747     10.297
REMARK  Name = *****
REMARK                            x       y       z     vdW  Elec       q    Type
REMARK                         _______ _______ _______ _____ _____    ______ ____
ROOT
ATOM      1  C   LIG    1       28.158 -24.076  15.378  0.00  0.00    +0.046 C 
ATOM      2  C   LIG    1       28.140 -25.523  14.982  0.00  0.00    -0.022 A 
ATOM      3  C   LIG    1       27.179 -26.034  14.102  0.00  0.00    +0.088 A 
ATOM      4  N   LIG    1       26.216 -25.174  13.511  0.00  0.00    -0.319 N 
ATOM      5  H   LIG    1       26.135 -25.466  12.537  0.00  0.00    +0.169 HD
ATOM      6  C   LIG    1       24.976 -25.346  14.101  0.00  0.00    +0.260 A 
ATOM      7  C   LIG    1       24.177 -26.491  13.603  0.00  0.00    +0.082 A 
ATOM      8  C   LIG    1       24.726 -27.640  13.005  0.00  0.00    +0.148 A 
ATOM      9  N   LIG    1       26.135 -27.905  12.892  0.00  0.00    -0.305 N 
ATOM     10  N   LIG    1       23.880 -28.586  12.498  0.00  0.00    -0.237 NA
ATOM     11  C   LIG    1       22.542 -28.439  12.623  0.00  0.00    +0.113 A 
ATOM     12  C   LIG    1       21.949 -27.358  13.233  0.00  0.00    +0.021 A 
ATOM     13  C   LIG    1       22.782 -26.367  13.728  0.00  0.00    +0.018 A 
ATOM     14  O   LIG    1       24.536 -24.588  14.958  0.00  0.00    -0.267 OA
ATOM     15  C   LIG    1       27.155 -27.401  13.769  0.00  0.00    +0.159 A 
ATOM     16  N   LIG    1       28.108 -28.239  14.251  0.00  0.00    -0.236 NA
ATOM     17  C   LIG    1       29.033 -27.736  15.098  0.00  0.00    +0.113 A 
ATOM     18  C   LIG    1       29.084 -26.410  15.495  0.00  0.00    +0.025 A 
ENDROOT
BRANCH   9  19
ATOM     19  C   LIG    1       26.493 -29.186  12.213  0.00  0.00    +0.091 C 
ATOM     20  C   LIG    1       27.787 -29.342  11.450  0.00  0.00    +0.027 C 
ATOM     21  C   LIG    1       26.489 -29.309  10.707  0.00  0.00    +0.027 C 
ENDBRANCH   9  19
TORSDOF 1
ENDMDL
MODEL 6
REMARK VINA RESULT:      -5.4      8.053     10.901
REMARK  Name = *****
REMARK                            x       y       z     vdW  Elec       q    Type
REMARK                         _______ _______ _______ _____ _____    ______ ____
ROOT
ATOM      1  C   LIG    1       24.432 -30.815  11.911  0.00  0.00    +0.046 C 
ATOM      2  C   LIG    1       25.103 -29.962  10.875  0.00  0.00    -0.022 A 
ATOM      3  C   LIG    1       24.840 -30.119   9.509  0.00  0.00    +0.088 A 
ATOM      4  N   LIG    1       23.877 -31.065   9.066  0.00  0.00    -0.319 N 
ATOM      5  H   LIG    1       23.352 -30.607   8.321  0.00  0.00    +0.169 HD
ATOM      6  C   LIG    1       24.496 -32.174   8.518  0.00  0.00    +0.260 A 
ATOM      7  C   LIG    1       24.931 -32.040   7.107  0.00  0.00    +0.082 A 
ATOM      8  C   LIG    1       25.223 -30.815   6.481  0.00  0.00    +0.148 A 
ATOM      9  N   LIG    1       25.242 -29.543   7.151  0.00  0.00    -0.305 N 
ATOM     10  N   LIG    1       25.522 -30.812   5.147  0.00  0.00    -0.237 NA
ATOM     11  C   LIG    1       25.586 -31.976   4.462  0.00  0.00    +0.113 A 
ATOM     12  C   LIG    1       25.350 -33.207   5.029  0.00  0.00    +0.021 A 
ATOM     13  C   LIG    1       25.014 -33.237   6.373  0.00  0.00    +0.018 A 
ATOM     14  O   LIG    1       24.650 -33.222   9.134  0.00  0.00    -0.267 OA
ATOM     15  C   LIG    1       25.504 -29.335   8.548  0.00  0.00    +0.159 A 
ATOM     16  N   LIG    1       26.372 -28.366   8.937  0.00  0.00    -0.236 NA
ATOM     17  C   LIG    1       26.617 -28.220  10.258  0.00  0.00    +0.113 A 
ATOM     18  C   LIG    1       26.026 -28.988  11.248  0.00  0.00    +0.025 A 
ENDROOT
BRANCH   9  19
ATOM     19  C   LIG    1       25.573 -28.369   6.287  0.00  0.00    +0.091 C 
ATOM     20  C   LIG    1       25.196 -26.962   6.687  0.00  0.00    +0.027 C 
ATOM     21  C   LIG    1       24.500 -27.616   5.535  0.00  0.00    +0.027 C 
ENDBRANCH   9  19
TORSDOF 1
ENDMDL
MODEL 7
REMARK VINA RESULT:      -5.3      7.641     10.433
REMARK  Name = *****
REMARK                            x       y       z     vdW  Elec       q    Type
REMARK                         _______ _______ _______ _____ _____    ______ ____
ROOT
ATOM      1  C   LIG    1       25.897 -30.750  12.038  0.00  0.00    +0.046 C 
ATOM      2  C   LIG    1       24.941 -31.055  10.923  0.00  0.00    -0.022 A 
ATOM      3  C   LIG    1       25.214 -30.694   9.598  0.00  0.00    +0.088 A 
ATOM      4  N   LIG    1       26.446 -30.070   9.263  0.00  0.00    -0.319 N 
ATOM      5  H   LIG    1       26.753 -30.500   8.391  0.00  0.00    +0.169 HD
ATOM      6  C   LIG    1       26.261 -28.720   9.019  0.00  0.00    +0.260 A 
ATOM      7  C   LIG    1       25.778 -28.369   7.663  0.00  0.00    +0.082 A 
ATOM      8  C   LIG    1       25.048 -29.238   6.832  0.00  0.00    +0.148 A 
ATOM      9  N   LIG    1       24.582 -30.540   7.226  0.00  0.00    -0.305 N 
ATOM     10  N   LIG    1       24.741 -28.833   5.563  0.00  0.00    -0.237 NA
ATOM     11  C   LIG    1       25.090 -27.597   5.141  0.00  0.00    +0.113 A 
ATOM     12  C   LIG    1       25.768 -26.689   5.921  0.00  0.00    +0.021 A 
ATOM     13  C   LIG    1       26.121 -27.085   7.201  0.00  0.00    +0.018 A 
ATOM     14  O   LIG    1       26.511 -27.854   9.850  0.00  0.00    -0.267 OA
ATOM     15  C   LIG    1       24.291 -30.955   8.570  0.00  0.00    +0.159 A 
ATOM     16  N   LIG    1       23.139 -31.621   8.839  0.00  0.00    -0.236 NA
ATOM     17  C   LIG    1       22.885 -31.968  10.120  0.00  0.00    +0.113 A 
ATOM     18  C   LIG    1       23.735 -31.703  11.180  0.00  0.00    +0.025 A 
ENDROOT
BRANCH   9  19
ATOM     19  C   LIG    1       23.830 -31.295   6.179  0.00  0.00    +0.091 C 
ATOM     20  C   LIG    1       23.589 -32.782   6.294  0.00  0.00    +0.027 C 
ATOM     21  C   LIG    1       24.526 -32.262   5.249  0.00  0.00    +0.027 C 
ENDBRANCH   9  19
TORSDOF 1
ENDMDL
MODEL 8
REMARK VINA RESULT:      -5.2      8.638     11.061
REMARK  Name = *****
REMARK                            x       y       z     vdW  Elec       q    Type
REMARK                         _______ _______ _______ _____ _____    ______ ____
ROOT
ATOM      1  C   LIG    1       24.832 -28.995   4.918  0.00  0.00    +0.046 C 
ATOM      2  C   LIG    1       25.260 -30.220   5.672  0.00  0.00    -0.022 A 
ATOM      3  C   LIG    1       25.230 -30.272   7.071  0.00  0.00    +0.088 A 
ATOM      4  N   LIG    1       24.733 -29.172   7.820  0.00  0.00    -0.319 N 
ATOM      5  H   LIG    1       24.166 -29.571   8.568  0.00  0.00    +0.169 HD
ATOM      6  C   LIG    1       25.771 -28.474   8.413  0.00  0.00    +0.260 A 
ATOM      7  C   LIG    1       26.285 -29.037   9.684  0.00  0.00    +0.082 A 
ATOM      8  C   LIG    1       26.181 -30.391  10.051  0.00  0.00    +0.148 A 
ATOM      9  N   LIG    1       25.660 -31.426   9.200  0.00  0.00    -0.305 N 
ATOM     10  N   LIG    1       26.608 -30.771  11.292  0.00  0.00    -0.237 NA
ATOM     11  C   LIG    1       27.168 -29.866  12.126  0.00  0.00    +0.113 A 
ATOM     12  C   LIG    1       27.333 -28.538  11.807  0.00  0.00    +0.021 A 
ATOM     13  C   LIG    1       26.880 -28.117  10.567  0.00  0.00    +0.018 A 
ATOM     14  O   LIG    1       26.224 -27.434   7.947  0.00  0.00    -0.267 OA
ATOM     15  C   LIG    1       25.669 -31.414   7.763  0.00  0.00    +0.159 A 
ATOM     16  N   LIG    1       26.074 -32.515   7.080  0.00  0.00    -0.236 NA
ATOM     17  C   LIG    1       26.098 -32.456   5.730  0.00  0.00    +0.113 A 
ATOM     18  C   LIG    1       25.718 -31.347   4.993  0.00  0.00    +0.025 A 
ENDROOT
BRANCH   9  19
ATOM     19  C   LIG    1       25.638 -32.795   9.798  0.00  0.00    +0.091 C 
ATOM     20  C   LIG    1       24.614 -33.824   9.381  0.00  0.00    +0.027 C 
ATOM     21  C   LIG    1       24.544 -33.223  10.749  0.00  0.00    +0.027 C 
ENDBRANCH   9  19
TORSDOF 1
ENDMDL
MODEL 9
REMARK VINA RESULT:      -5.1     10.145     11.331
REMARK  Name = *****
REMARK                            x       y       z     vdW  Elec       q    Type
REMARK                         _______ _______ _______ _____ _____    ______ ____
ROOT
ATOM      1  C   LIG    1       24.400 -25.575  14.213  0.00  0.00    +0.046 C 
ATOM      2  C   LIG    1       23.516 -26.627  13.612  0.00  0.00    -0.022 A 
ATOM      3  C   LIG    1       24.025 -27.857  13.178  0.00  0.00    +0.088 A 
ATOM      4  N   LIG    1       25.402 -28.165  13.348  0.00  0.00    -0.319 N 
ATOM      5  H   LIG    1       25.438 -29.139  13.650  0.00  0.00    +0.169 HD
ATOM      6  C   LIG    1       26.076 -28.078  12.142  0.00  0.00    +0.260 A 
ATOM      7  C   LIG    1       25.976 -29.265  11.259  0.00  0.00    +0.082 A 
ATOM      8  C   LIG    1       24.919 -30.192  11.294  0.00  0.00    +0.148 A 
ATOM      9  N   LIG    1       23.745 -30.057  12.113  0.00  0.00    -0.305 N 
ATOM     10  N   LIG    1       24.987 -31.299  10.495  0.00  0.00    -0.237 NA
ATOM     11  C   LIG    1       26.030 -31.464   9.650  0.00  0.00    +0.113 A 
ATOM     12  C   LIG    1       27.071 -30.572   9.543  0.00  0.00    +0.021 A 
ATOM     13  C   LIG    1       27.044 -29.457  10.364  0.00  0.00    +0.018 A 
ATOM     14  O   LIG    1       26.747 -27.103  11.824  0.00  0.00    -0.267 OA
ATOM     15  C   LIG    1       23.189 -28.818  12.583  0.00  0.00    +0.159 A 
ATOM     16  N   LIG    1       21.854 -28.592  12.477  0.00  0.00    -0.236 NA
ATOM     17  C   LIG    1       21.372 -27.404  12.902  0.00  0.00    +0.113 A 
ATOM     18  C   LIG    1       22.150 -26.402  13.457  0.00  0.00    +0.025 A 
ENDROOT
BRANCH   9  19
ATOM     19  C   LIG    1       22.751 -31.166  11.995  0.00  0.00    +0.091 C 
ATOM     20  C   LIG    1       21.800 -31.499  13.120  0.00  0.00    +0.027 C 
ATOM     21  C   LIG    1       22.904 -32.450  12.777  0.00  0.00    +0.027 C 
ENDBRANCH   9  19
TORSDOF 1
ENDMDL
