MODEL 1
REMARK VINA RESULT:      -5.2      0.000      0.000
REMARK  Name = *****
REMARK                            x       y       z     vdW  Elec       q    Type
REMARK                         _______ _______ _______ _____ _____    ______ ____
ROOT
ATOM      1  C   LIG    1       25.850 -30.189   9.478  0.00  0.00    +0.059 C 
ENDROOT
BRANCH   1   2
ATOM      2  C   LIG    1       26.464 -29.437  10.755  0.00  0.00    -0.033 A 
ATOM      3  C   LIG    1       25.735 -28.545  11.568  0.00  0.00    +0.005 A 
ATOM      4  C   LIG    1       26.278 -27.995  12.745  0.00  0.00    +0.000 A 
ATOM      5  C   LIG    1       27.544 -28.365  13.183  0.00  0.00    +0.000 A 
ATOM      6  C   LIG    1       28.293 -29.239  12.413  0.00  0.00    +0.000 A 
ATOM      7  C   LIG    1       27.772 -29.734  11.209  0.00  0.00    +0.005 A 
ENDBRANCH   1   2
BRANCH   1   8
ATOM      8  C   LIG    1       25.459 -29.222   8.284  0.00  0.00    -0.033 A 
ATOM      9  C   LIG    1       24.478 -29.582   7.328  0.00  0.00    +0.005 A 
ATOM     10  C   LIG    1       24.149 -28.767   6.234  0.00  0.00    +0.000 A 
ATOM     11  C   LIG    1       24.783 -27.547   6.058  0.00  0.00    +0.000 A 
ATOM     12  C   LIG    1       25.753 -27.154   6.973  0.00  0.00    +0.000 A 
ATOM     13  C   LIG    1       26.108 -27.990   8.048  0.00  0.00    +0.005 A 
ENDBRANCH   1   8
BRANCH   1  14
ATOM     14  C   LIG    1       24.535 -30.982  10.006  0.00  0.00    +0.191 C 
BRANCH  14  16
ATOM     15  C   LIG    1       24.330 -33.345  11.093  0.00  0.00    +0.007 C 
ATOM     16  C   LIG    1       24.720 -31.877  11.259  0.00  0.00    +0.042 C 
ENDBRANCH  14  16
BRANCH  14  17
ATOM     17  O   LIG    1       23.503 -30.022  10.367  0.00  0.00    -0.460 OA
BRANCH  17  18
ATOM     18  C   LIG    1       22.220 -30.506  10.449  0.00  0.00    +0.304 C 
ATOM     19  O   LIG    1       21.710 -31.280   9.688  0.00  0.00    -0.251 OA
ATOM     20  C   LIG    1       21.551 -30.001  11.705  0.00  0.00    +0.136 C 
ENDBRANCH  17  18
ENDBRANCH  14  17
ENDBRANCH   1  14
BRANCH   1  21
ATOM     21  C   LIG    1       26.970 -31.221   8.933  0.00  0.00    +0.038 C 
BRANCH  21  22
ATOM     22  C   LIG    1       26.591 -32.466   8.055  0.00  0.00    +0.054 C 
ATOM     23  C   LIG    1       27.069 -33.787   8.721  0.00  0.00    +0.024 C 
BRANCH  22  24
ATOM     24  N   LIG    1       27.062 -32.368   6.665  0.00  0.00    -0.306 NA
ATOM     25  C   LIG    1       25.986 -32.463   5.680  0.00  0.00    +0.105 C 
ATOM     26  C   LIG    1       28.150 -33.281   6.316  0.00  0.00    +0.105 C 
ENDBRANCH  22  24
ENDBRANCH  21  22
ENDBRANCH   1  21
TORSDOF 9
ENDMDL
MODEL 2
REMARK VINA RESULT:      -5.1      2.179      5.501
REMARK  Name = *****
REMARK                            x       y       z     vdW  Elec       q    Type
REMARK                         _______ _______ _______ _____ _____    ______ ____
ROOT
ATOM      1  C   LIG    1       25.102 -29.962   8.683  0.00  0.00    +0.059 C 
ENDROOT
BRANCH   1   2
ATOM      2  C   LIG    1       25.166 -28.812   7.566  0.00  0.00    -0.033 A 
ATOM      3  C   LIG    1       24.271 -28.718   6.481  0.00  0.00    +0.005 A 
ATOM      4  C   LIG    1       24.293 -27.630   5.589  0.00  0.00    +0.000 A 
ATOM      5  C   LIG    1       25.166 -26.567   5.786  0.00  0.00    +0.000 A 
ATOM      6  C   LIG    1       26.062 -26.620   6.840  0.00  0.00    +0.000 A 
ATOM      7  C   LIG    1       26.080 -27.736   7.688  0.00  0.00    +0.005 A 
ENDBRANCH   1   2
BRANCH   1   8
ATOM      8  C   LIG    1       25.888 -29.613  10.015  0.00  0.00    -0.033 A 
ATOM      9  C   LIG    1       25.240 -29.022  11.127  0.00  0.00    +0.005 A 
ATOM     10  C   LIG    1       25.921 -28.658  12.298  0.00  0.00    +0.000 A 
ATOM     11  C   LIG    1       27.284 -28.883  12.410  0.00  0.00    +0.000 A 
ATOM     12  C   LIG    1       27.962 -29.461  11.343  0.00  0.00    +0.000 A 
ATOM     13  C   LIG    1       27.282 -29.790  10.155  0.00  0.00    +0.005 A 
ENDBRANCH   1   8
BRANCH   1  14
ATOM     14  C   LIG    1       25.729 -31.295   8.000  0.00  0.00    +0.191 C 
BRANCH  14  16
ATOM     15  C   LIG    1       27.395 -33.193   8.652  0.00  0.00    +0.007 C 
ATOM     16  C   LIG    1       26.089 -32.462   8.957  0.00  0.00    +0.042 C 
ENDBRANCH  14  16
BRANCH  14  17
ATOM     17  O   LIG    1       24.770 -31.852   7.057  0.00  0.00    -0.460 OA
BRANCH  17  18
ATOM     18  C   LIG    1       25.294 -32.498   5.964  0.00  0.00    +0.304 C 
ATOM     19  O   LIG    1       25.202 -33.670   5.727  0.00  0.00    -0.251 OA
ATOM     20  C   LIG    1       25.936 -31.501   5.027  0.00  0.00    +0.136 C 
ENDBRANCH  17  18
ENDBRANCH  14  17
ENDBRANCH   1  14
BRANCH   1  21
ATOM     21  C   LIG    1       23.548 -30.184   9.068  0.00  0.00    +0.038 C 
BRANCH  21  22
ATOM     22  C   LIG    1       23.099 -31.279  10.100  0.00  0.00    +0.054 C 
ATOM     23  C   LIG    1       22.413 -32.476   9.384  0.00  0.00    +0.024 C 
BRANCH  22  24
ATOM     24  N   LIG    1       22.255 -30.751  11.184  0.00  0.00    -0.306 NA
ATOM     25  C   LIG    1       22.519 -31.374  12.480  0.00  0.00    +0.105 C 
ATOM     26  C   LIG    1       20.820 -30.753  10.905  0.00  0.00    +0.105 C 
ENDBRANCH  22  24
ENDBRANCH  21  22
ENDBRANCH   1  21
TORSDOF 9
ENDMDL
MODEL 3
REMARK VINA RESULT:      -5.1      1.507      4.752
REMARK  Name = *****
REMARK                            x       y       z     vdW  Elec       q    Type
REMARK                         _______ _______ _______ _____ _____    ______ ____
ROOT
ATOM      1  C   LIG    1       25.712 -30.469   8.392  0.00  0.00    +0.059 C 
ENDROOT
BRANCH   1   2
ATOM      2  C   LIG    1       25.380 -29.099   7.628  0.00  0.00    -0.033 A 
ATOM      3  C   LIG    1       26.131 -27.915   7.774  0.00  0.00    +0.005 A 
ATOM      4  C   LIG    1       25.873 -26.768   6.999  0.00  0.00    +0.000 A 
ATOM      5  C   LIG    1       24.900 -26.786   6.007  0.00  0.00    +0.000 A 
ATOM      6  C   LIG    1       24.141 -27.930   5.831  0.00  0.00    +0.000 A 
ATOM      7  C   LIG    1       24.358 -29.047   6.649  0.00  0.00    +0.005 A 
ENDBRANCH   1   2
BRANCH   1   8
ATOM      8  C   LIG    1       26.342 -31.591   7.465  0.00  0.00    -0.033 A 
ATOM      9  C   LIG    1       27.333 -32.481   7.945  0.00  0.00    +0.005 A 
ATOM     10  C   LIG    1       27.943 -33.449   7.132  0.00  0.00    +0.000 A 
ATOM     11  C   LIG    1       27.574 -33.574   5.802  0.00  0.00    +0.000 A 
ATOM     12  C   LIG    1       26.604 -32.721   5.288  0.00  0.00    +0.000 A 
ATOM     13  C   LIG    1       26.022 -31.726   6.096  0.00  0.00    +0.005 A 
ENDBRANCH   1   8
BRANCH   1  14
ATOM     14  C   LIG    1       24.309 -30.991   9.021  0.00  0.00    +0.191 C 
BRANCH  14  16
ATOM     15  C   LIG    1       23.808 -33.548   9.140  0.00  0.00    +0.007 C 
ATOM     16  C   LIG    1       24.361 -32.307   9.839  0.00  0.00    +0.042 C 
ENDBRANCH  14  16
BRANCH  14  17
ATOM     17  O   LIG    1       23.787 -29.988   9.939  0.00  0.00    -0.460 OA
BRANCH  17  18
ATOM     18  C   LIG    1       22.528 -30.214  10.438  0.00  0.00    +0.304 C 
ATOM     19  O   LIG    1       21.641 -30.793   9.876  0.00  0.00    -0.251 OA
ATOM     20  C   LIG    1       22.433 -29.712  11.860  0.00  0.00    +0.136 C 
ENDBRANCH  17  18
ENDBRANCH  14  17
ENDBRANCH   1  14
BRANCH   1  21
ATOM     21  C   LIG    1       26.780 -30.134   9.558  0.00  0.00    +0.038 C 
BRANCH  21  22
ATOM     22  C   LIG    1       26.333 -29.582  10.959  0.00  0.00    +0.054 C 
ATOM     23  C   LIG    1       26.677 -28.073  11.102  0.00  0.00    +0.024 C 
BRANCH  22  24
ATOM     24  N   LIG    1       26.859 -30.360  12.091  0.00  0.00    -0.306 NA
ATOM     25  C   LIG    1       25.815 -30.933  12.937  0.00  0.00    +0.105 C 
ATOM     26  C   LIG    1       27.849 -29.661  12.910  0.00  0.00    +0.105 C 
ENDBRANCH  22  24
ENDBRANCH  21  22
ENDBRANCH   1  21
TORSDOF 9
ENDMDL
MODEL 4
REMARK VINA RESULT:      -5.1      2.087      4.613
REMARK  Name = *****
REMARK                            x       y       z     vdW  Elec       q    Type
REMARK                         _______ _______ _______ _____ _____    ______ ____
ROOT
ATOM      1  C   LIG    1       25.249 -30.347   8.500  0.00  0.00    +0.059 C 
ENDROOT
BRANCH   1   2
ATOM      2  C   LIG    1       26.220 -31.484   7.918  0.00  0.00    -0.033 A 
ATOM      3  C   LIG    1       26.858 -32.457   8.713  0.00  0.00    +0.005 A 
ATOM      4  C   LIG    1       27.610 -33.505   8.149  0.00  0.00    +0.000 A 
ATOM      5  C   LIG    1       27.699 -33.653   6.770  0.00  0.00    +0.000 A 
ATOM      6  C   LIG    1       27.087 -32.718   5.953  0.00  0.00    +0.000 A 
ATOM      7  C   LIG    1       26.392 -31.640   6.520  0.00  0.00    +0.005 A 
ENDBRANCH   1   2
BRANCH   1   8
ATOM      8  C   LIG    1       25.183 -29.035   7.611  0.00  0.00    -0.033 A 
ATOM      9  C   LIG    1       24.286 -28.920   6.522  0.00  0.00    +0.005 A 
ATOM     10  C   LIG    1       24.243 -27.792   5.690  0.00  0.00    +0.000 A 
ATOM     11  C   LIG    1       25.092 -26.721   5.923  0.00  0.00    +0.000 A 
ATOM     12  C   LIG    1       25.989 -26.791   6.982  0.00  0.00    +0.000 A 
ATOM     13  C   LIG    1       26.057 -27.940   7.791  0.00  0.00    +0.005 A 
ENDBRANCH   1   8
BRANCH   1  14
ATOM     14  C   LIG    1       25.807 -29.988   9.982  0.00  0.00    +0.191 C 
BRANCH  14  16
ATOM     15  C   LIG    1       24.559 -30.548  12.203  0.00  0.00    +0.007 C 
ATOM     16  C   LIG    1       25.510 -31.017  11.104  0.00  0.00    +0.042 C 
ENDBRANCH  14  16
BRANCH  14  17
ATOM     17  O   LIG    1       27.258 -29.873   9.938  0.00  0.00    -0.460 OA
BRANCH  17  18
ATOM     18  C   LIG    1       27.855 -29.273  11.020  0.00  0.00    +0.304 C 
ATOM     19  O   LIG    1       28.831 -29.667  11.595  0.00  0.00    -0.251 OA
ATOM     20  C   LIG    1       27.163 -27.968  11.340  0.00  0.00    +0.136 C 
ENDBRANCH  17  18
ENDBRANCH  14  17
ENDBRANCH   1  14
BRANCH   1  21
ATOM     21  C   LIG    1       23.759 -30.969   8.577  0.00  0.00    +0.038 C 
BRANCH  21  22
ATOM     22  C   LIG    1       23.507 -32.518   8.598  0.00  0.00    +0.054 C 
ATOM     23  C   LIG    1       23.142 -33.046   7.182  0.00  0.00    +0.024 C 
BRANCH  22  24
ATOM     24  N   LIG    1       22.511 -32.936   9.597  0.00  0.00    -0.306 NA
ATOM     25  C   LIG    1       21.784 -31.818  10.195  0.00  0.00    +0.105 C 
ATOM     26  C   LIG    1       23.021 -33.825  10.641  0.00  0.00    +0.105 C 
ENDBRANCH  22  24
ENDBRANCH  21  22
ENDBRANCH   1  21
TORSDOF 9
ENDMDL
MODEL 5
REMARK VINA RESULT:      -4.9      2.460      5.730
REMARK  Name = *****
REMARK                            x       y       z     vdW  Elec       q    Type
REMARK                         _______ _______ _______ _____ _____    ______ ____
ROOT
ATOM      1  C   LIG    1       25.091 -29.819   8.467  0.00  0.00    +0.059 C 
ENDROOT
BRANCH   1   2
ATOM      2  C   LIG    1       25.111 -28.747   7.274  0.00  0.00    -0.033 A 
ATOM      3  C   LIG    1       24.196 -28.747   6.201  0.00  0.00    +0.005 A 
ATOM      4  C   LIG    1       24.179 -27.722   5.237  0.00  0.00    +0.000 A 
ATOM      5  C   LIG    1       25.031 -26.630   5.345  0.00  0.00    +0.000 A 
ATOM      6  C   LIG    1       25.945 -26.592   6.385  0.00  0.00    +0.000 A 
ATOM      7  C   LIG    1       26.002 -27.646   7.307  0.00  0.00    +0.005 A 
ENDBRANCH   1   2
BRANCH   1   8
ATOM      8  C   LIG    1       26.171 -29.550   9.596  0.00  0.00    -0.033 A 
ATOM      9  C   LIG    1       27.077 -30.555  10.012  0.00  0.00    +0.005 A 
ATOM     10  C   LIG    1       28.009 -30.359  11.043  0.00  0.00    +0.000 A 
ATOM     11  C   LIG    1       28.081 -29.138  11.695  0.00  0.00    +0.000 A 
ATOM     12  C   LIG    1       27.210 -28.122  11.319  0.00  0.00    +0.000 A 
ATOM     13  C   LIG    1       26.251 -28.334  10.311  0.00  0.00    +0.005 A 
ENDBRANCH   1   8
BRANCH   1  14
ATOM     14  C   LIG    1       25.351 -31.268   7.783  0.00  0.00    +0.191 C 
BRANCH  14  16
ATOM     15  C   LIG    1       23.902 -33.420   8.049  0.00  0.00    +0.007 C 
ATOM     16  C   LIG    1       24.094 -32.071   7.358  0.00  0.00    +0.042 C 
ENDBRANCH  14  16
BRANCH  14  17
ATOM     17  O   LIG    1       26.127 -31.094   6.563  0.00  0.00    -0.460 OA
BRANCH  17  18
ATOM     18  C   LIG    1       26.672 -32.232   6.020  0.00  0.00    +0.304 C 
ATOM     19  O   LIG    1       26.490 -32.638   4.906  0.00  0.00    -0.251 OA
ATOM     20  C   LIG    1       27.631 -32.869   6.998  0.00  0.00    +0.136 C 
ENDBRANCH  17  18
ENDBRANCH  14  17
ENDBRANCH   1  14
BRANCH   1  21
ATOM     21  C   LIG    1       23.629 -29.758   9.156  0.00  0.00    +0.038 C 
BRANCH  21  22
ATOM     22  C   LIG    1       23.310 -30.519  10.492  0.00  0.00    +0.054 C 
ATOM     23  C   LIG    1       21.976 -31.308  10.381  0.00  0.00    +0.024 C 
BRANCH  22  24
ATOM     24  N   LIG    1       23.320 -29.650  11.679  0.00  0.00    -0.306 NA
ATOM     25  C   LIG    1       24.169 -30.152  12.758  0.00  0.00    +0.105 C 
ATOM     26  C   LIG    1       21.998 -29.298  12.196  0.00  0.00    +0.105 C 
ENDBRANCH  22  24
ENDBRANCH  21  22
ENDBRANCH   1  21
TORSDOF 9
ENDMDL
MODEL 6
REMARK VINA RESULT:      -4.8      1.880      4.488
REMARK  Name = *****
REMARK                            x       y       z     vdW  Elec       q    Type
REMARK                         _______ _______ _______ _____ _____    ______ ____
ROOT
ATOM      1  C   LIG    1       25.130 -30.326   8.563  0.00  0.00    +0.059 C 
ENDROOT
BRANCH   1   2
ATOM      2  C   LIG    1       26.026 -31.539   8.016  0.00  0.00    -0.033 A 
ATOM      3  C   LIG    1       26.273 -31.781   6.650  0.00  0.00    +0.005 A 
ATOM      4  C   LIG    1       27.157 -32.788   6.219  0.00  0.00    +0.000 A 
ATOM      5  C   LIG    1       27.873 -33.546   7.139  0.00  0.00    +0.000 A 
ATOM      6  C   LIG    1       27.658 -33.339   8.491  0.00  0.00    +0.000 A 
ATOM      7  C   LIG    1       26.729 -32.379   8.914  0.00  0.00    +0.005 A 
ENDBRANCH   1   2
BRANCH   1   8
ATOM      8  C   LIG    1       25.172 -29.029   7.652  0.00  0.00    -0.033 A 
ATOM      9  C   LIG    1       26.083 -27.974   7.902  0.00  0.00    +0.005 A 
ATOM     10  C   LIG    1       26.107 -26.795   7.143  0.00  0.00    +0.000 A 
ATOM     11  C   LIG    1       25.224 -26.627   6.088  0.00  0.00    +0.000 A 
ATOM     12  C   LIG    1       24.311 -27.637   5.805  0.00  0.00    +0.000 A 
ATOM     13  C   LIG    1       24.264 -28.803   6.593  0.00  0.00    +0.005 A 
ENDBRANCH   1   8
BRANCH   1  14
ATOM     14  C   LIG    1       25.688 -29.981  10.048  0.00  0.00    +0.191 C 
BRANCH  14  16
ATOM     15  C   LIG    1       27.967 -29.354  11.151  0.00  0.00    +0.007 C 
ATOM     16  C   LIG    1       26.889 -29.002  10.128  0.00  0.00    +0.042 C 
ENDBRANCH  14  16
BRANCH  14  17
ATOM     17  O   LIG    1       24.631 -29.358  10.830  0.00  0.00    -0.460 OA
BRANCH  17  18
ATOM     18  C   LIG    1       24.497 -29.788  12.128  0.00  0.00    +0.304 C 
ATOM     19  O   LIG    1       24.075 -29.140  13.045  0.00  0.00    -0.251 OA
ATOM     20  C   LIG    1       24.871 -31.248  12.235  0.00  0.00    +0.136 C 
ENDBRANCH  17  18
ENDBRANCH  14  17
ENDBRANCH   1  14
BRANCH   1  21
ATOM     21  C   LIG    1       23.597 -30.838   8.625  0.00  0.00    +0.038 C 
BRANCH  21  22
ATOM     22  C   LIG    1       23.230 -32.305   9.046  0.00  0.00    +0.054 C 
ATOM     23  C   LIG    1       22.919 -33.184   7.803  0.00  0.00    +0.024 C 
BRANCH  22  24
ATOM     24  N   LIG    1       22.144 -32.376  10.036  0.00  0.00    -0.306 NA
ATOM     25  C   LIG    1       21.115 -33.358   9.700  0.00  0.00    +0.105 C 
ATOM     26  C   LIG    1       21.529 -31.092  10.369  0.00  0.00    +0.105 C 
ENDBRANCH  22  24
ENDBRANCH  21  22
ENDBRANCH   1  21
TORSDOF 9
ENDMDL
MODEL 7
REMARK VINA RESULT:      -4.7      2.214      5.281
REMARK  Name = *****
REMARK                            x       y       z     vdW  Elec       q    Type
REMARK                         _______ _______ _______ _____ _____    ______ ____
ROOT
ATOM      1  C   LIG    1       24.777 -30.151   9.721  0.00  0.00    +0.059 C 
ENDROOT
BRANCH   1   2
ATOM      2  C   LIG    1       24.952 -29.605   8.223  0.00  0.00    -0.033 A 
ATOM      3  C   LIG    1       24.421 -30.246   7.085  0.00  0.00    +0.005 A 
ATOM      4  C   LIG    1       24.501 -29.673   5.801  0.00  0.00    +0.000 A 
ATOM      5  C   LIG    1       25.058 -28.412   5.619  0.00  0.00    +0.000 A 
ATOM      6  C   LIG    1       25.590 -27.750   6.712  0.00  0.00    +0.000 A 
ATOM      7  C   LIG    1       25.566 -28.352   7.977  0.00  0.00    +0.005 A 
ENDBRANCH   1   2
BRANCH   1   8
ATOM      8  C   LIG    1       25.306 -29.156  10.837  0.00  0.00    -0.033 A 
ATOM      9  C   LIG    1       24.494 -28.767  11.929  0.00  0.00    +0.005 A 
ATOM     10  C   LIG    1       24.919 -27.850  12.903  0.00  0.00    +0.000 A 
ATOM     11  C   LIG    1       26.185 -27.293  12.829  0.00  0.00    +0.000 A 
ATOM     12  C   LIG    1       27.017 -27.646  11.773  0.00  0.00    +0.000 A 
ATOM     13  C   LIG    1       26.573 -28.537  10.778  0.00  0.00    +0.005 A 
ENDBRANCH   1   8
BRANCH   1  14
ATOM     14  C   LIG    1       25.593 -31.553   9.793  0.00  0.00    +0.191 C 
BRANCH  14  16
ATOM     15  C   LIG    1       27.090 -33.054   8.274  0.00  0.00    +0.007 C 
ATOM     16  C   LIG    1       26.844 -31.676   8.884  0.00  0.00    +0.042 C 
ENDBRANCH  14  16
BRANCH  14  17
ATOM     17  O   LIG    1       26.081 -31.759  11.149  0.00  0.00    -0.460 OA
BRANCH  17  18
ATOM     18  C   LIG    1       25.416 -32.697  11.901  0.00  0.00    +0.304 C 
ATOM     19  O   LIG    1       25.176 -33.824  11.569  0.00  0.00    -0.251 OA
ATOM     20  C   LIG    1       25.103 -32.141  13.270  0.00  0.00    +0.136 C 
ENDBRANCH  17  18
ENDBRANCH  14  17
ENDBRANCH   1  14
BRANCH   1  21
ATOM     21  C   LIG    1       23.198 -30.386   9.975  0.00  0.00    +0.038 C 
BRANCH  21  22
ATOM     22  C   LIG    1       22.621 -31.795  10.361  0.00  0.00    +0.054 C 
ATOM     23  C   LIG    1       22.330 -32.647   9.094  0.00  0.00    +0.024 C 
BRANCH  22  24
ATOM     24  N   LIG    1       21.444 -31.725  11.241  0.00  0.00    -0.306 NA
ATOM     25  C   LIG    1       21.103 -33.006  11.856  0.00  0.00    +0.105 C 
ATOM     26  C   LIG    1       20.257 -31.122  10.635  0.00  0.00    +0.105 C 
ENDBRANCH  22  24
ENDBRANCH  21  22
ENDBRANCH   1  21
TORSDOF 9
ENDMDL
MODEL 8
REMARK VINA RESULT:      -4.7      3.149      6.381
REMARK  Name = *****
REMARK                            x       y       z     vdW  Elec       q    Type
REMARK                         _______ _______ _______ _____ _____    ______ ____
ROOT
ATOM      1  C   LIG    1       24.217 -30.334  12.198  0.00  0.00    +0.059 C 
ENDROOT
BRANCH   1   2
ATOM      2  C   LIG    1       24.295 -30.701  10.639  0.00  0.00    -0.033 A 
ATOM      3  C   LIG    1       24.264 -32.019  10.138  0.00  0.00    +0.005 A 
ATOM      4  C   LIG    1       24.220 -32.291   8.758  0.00  0.00    +0.000 A 
ATOM      5  C   LIG    1       24.143 -31.257   7.832  0.00  0.00    +0.000 A 
ATOM      6  C   LIG    1       24.171 -29.949   8.283  0.00  0.00    +0.000 A 
ATOM      7  C   LIG    1       24.279 -29.682   9.655  0.00  0.00    +0.005 A 
ENDBRANCH   1   2
BRANCH   1   8
ATOM      8  C   LIG    1       23.323 -29.064  12.519  0.00  0.00    -0.033 A 
ATOM      9  C   LIG    1       23.872 -27.896  13.100  0.00  0.00    +0.005 A 
ATOM     10  C   LIG    1       23.095 -26.779  13.441  0.00  0.00    +0.000 A 
ATOM     11  C   LIG    1       21.730 -26.780  13.200  0.00  0.00    +0.000 A 
ATOM     12  C   LIG    1       21.147 -27.906  12.630  0.00  0.00    +0.000 A 
ATOM     13  C   LIG    1       21.924 -29.040  12.325  0.00  0.00    +0.005 A 
ENDBRANCH   1   8
BRANCH   1  14
ATOM     14  C   LIG    1       25.745 -30.074  12.682  0.00  0.00    +0.191 C 
BRANCH  14  16
ATOM     15  C   LIG    1       26.773 -30.158  15.078  0.00  0.00    +0.007 C 
ATOM     16  C   LIG    1       26.253 -30.934  13.869  0.00  0.00    +0.042 C 
ENDBRANCH  14  16
BRANCH  14  17
ATOM     17  O   LIG    1       26.656 -30.360  11.582  0.00  0.00    -0.460 OA
BRANCH  17  18
ATOM     18  C   LIG    1       27.683 -29.467  11.394  0.00  0.00    +0.304 C 
ATOM     19  O   LIG    1       28.838 -29.746  11.232  0.00  0.00    -0.251 OA
ATOM     20  C   LIG    1       27.142 -28.058  11.318  0.00  0.00    +0.136 C 
ENDBRANCH  17  18
ENDBRANCH  14  17
ENDBRANCH   1  14
BRANCH   1  21
ATOM     21  C   LIG    1       23.572 -31.601  12.968  0.00  0.00    +0.038 C 
BRANCH  21  22
ATOM     22  C   LIG    1       22.488 -31.425  14.090  0.00  0.00    +0.054 C 
ATOM     23  C   LIG    1       23.097 -31.669  15.500  0.00  0.00    +0.024 C 
BRANCH  22  24
ATOM     24  N   LIG    1       21.286 -32.246  13.878  0.00  0.00    -0.306 NA
ATOM     25  C   LIG    1       21.159 -32.745  12.510  0.00  0.00    +0.105 C 
ATOM     26  C   LIG    1       20.033 -31.627  14.309  0.00  0.00    +0.105 C 
ENDBRANCH  22  24
ENDBRANCH  21  22
ENDBRANCH   1  21
TORSDOF 9
ENDMDL
MODEL 9
REMARK VINA RESULT:      -4.6      3.066      5.874
REMARK  Name = *****
REMARK                            x       y       z     vdW  Elec       q    Type
REMARK                         _______ _______ _______ _____ _____    ______ ____
ROOT
ATOM      1  C   LIG    1       23.018 -30.200  11.719  0.00  0.00    +0.059 C 
ENDROOT
BRANCH   1   2
ATOM      2  C   LIG    1       23.955 -30.058  10.425  0.00  0.00    -0.033 A 
ATOM      3  C   LIG    1       23.496 -30.209   9.101  0.00  0.00    +0.005 A 
ATOM      4  C   LIG    1       24.327 -29.964   7.991  0.00  0.00    +0.000 A 
ATOM      5  C   LIG    1       25.626 -29.500   8.164  0.00  0.00    +0.000 A 
ATOM      6  C   LIG    1       26.115 -29.339   9.449  0.00  0.00    +0.000 A 
ATOM      7  C   LIG    1       25.304 -29.645  10.551  0.00  0.00    +0.005 A 
ENDBRANCH   1   2
BRANCH   1   8
ATOM      8  C   LIG    1       22.706 -28.824  12.445  0.00  0.00    -0.033 A 
ATOM      9  C   LIG    1       21.384 -28.334  12.569  0.00  0.00    +0.005 A 
ATOM     10  C   LIG    1       21.086 -27.097  13.161  0.00  0.00    +0.000 A 
ATOM     11  C   LIG    1       22.102 -26.303  13.667  0.00  0.00    +0.000 A 
ATOM     12  C   LIG    1       23.416 -26.745  13.567  0.00  0.00    +0.000 A 
ATOM     13  C   LIG    1       23.716 -27.969  12.937  0.00  0.00    +0.005 A 
ENDBRANCH   1   8
BRANCH   1  14
ATOM     14  C   LIG    1       23.793 -31.201  12.735  0.00  0.00    +0.191 C 
BRANCH  14  16
ATOM     15  C   LIG    1       23.939 -30.884  15.320  0.00  0.00    +0.007 C 
ATOM     16  C   LIG    1       23.146 -31.416  14.128  0.00  0.00    +0.042 C 
ENDBRANCH  14  16
BRANCH  14  17
ATOM     17  O   LIG    1       23.874 -32.527  12.139  0.00  0.00    -0.460 OA
BRANCH  17  18
ATOM     18  C   LIG    1       25.133 -33.063  12.011  0.00  0.00    +0.304 C 
ATOM     19  O   LIG    1       25.898 -33.285  12.907  0.00  0.00    -0.251 OA
ATOM     20  C   LIG    1       25.396 -33.436  10.571  0.00  0.00    +0.136 C 
ENDBRANCH  17  18
ENDBRANCH  14  17
ENDBRANCH   1  14
BRANCH   1  21
ATOM     21  C   LIG    1       21.612 -30.836  11.239  0.00  0.00    +0.038 C 
BRANCH  21  22
ATOM     22  C   LIG    1       21.342 -32.382  11.287  0.00  0.00    +0.054 C 
ATOM     23  C   LIG    1       21.179 -32.967   9.856  0.00  0.00    +0.024 C 
BRANCH  22  24
ATOM     24  N   LIG    1       20.209 -32.753  12.149  0.00  0.00    -0.306 NA
ATOM     25  C   LIG    1       19.601 -31.612  12.831  0.00  0.00    +0.105 C 
ATOM     26  C   LIG    1       20.487 -33.825  13.104  0.00  0.00    +0.105 C 
ENDBRANCH  22  24
ENDBRANCH  21  22
ENDBRANCH   1  21
TORSDOF 9
ENDMDL
