MODEL 1
REMARK VINA RESULT:      -4.8      0.000      0.000
REMARK  Name = *****
REMARK                            x       y       z     vdW  Elec       q    Type
REMARK                         _______ _______ _______ _____ _____    ______ ____
ROOT
ATOM      1  N   LIG    1       22.737 -19.325   4.584  0.00  0.00    -0.313 NA
ATOM      2  H   LIG    1       21.916 -19.696   4.099  0.00  0.00    +0.122 HD
ENDROOT
BRANCH   1   3
ATOM      3  C   LIG    1       23.441 -18.351   3.760  0.00  0.00    +0.085 C 
BRANCH   3   4
ATOM      4  C   LIG    1       22.938 -16.933   4.046  0.00  0.00    +0.050 C 
BRANCH   4   8
ATOM      5  C   LIG    1       26.119 -14.037   3.637  0.00  0.00    +0.162 A 
ATOM      6  C   LIG    1       24.877 -13.639   4.159  0.00  0.00    +0.162 A 
ATOM      7  C   LIG    1       23.853 -14.586   4.291  0.00  0.00    +0.053 A 
ATOM      8  C   LIG    1       24.052 -15.924   3.924  0.00  0.00    -0.043 A 
ATOM      9  C   LIG    1       25.294 -16.311   3.422  0.00  0.00    +0.007 A 
ATOM     10  C   LIG    1       26.313 -15.375   3.269  0.00  0.00    +0.050 A 
BRANCH   5  12
ATOM     11  C   LIG    1       28.424 -13.511   3.692  0.00  0.00    +0.277 C 
ATOM     12  O   LIG    1       27.085 -13.072   3.480  0.00  0.00    -0.491 OA
ENDBRANCH   5  12
BRANCH   6  13
ATOM     13  O   LIG    1       24.711 -12.316   4.494  0.00  0.00    -0.491 OA
ATOM     14  C   LIG    1       23.869 -11.564   3.628  0.00  0.00    +0.277 C 
ENDBRANCH   6  13
ENDBRANCH   4   8
ENDBRANCH   3   4
ENDBRANCH   1   3
BRANCH   1  15
ATOM     15  C   LIG    1       23.621 -20.449   4.924  0.00  0.00    +0.115 C 
BRANCH  15  16
ATOM     16  C   LIG    1       23.587 -20.655   6.443  0.00  0.00    +0.166 C 
BRANCH  16  17
ATOM     17  O   LIG    1       22.400 -21.403   6.751  0.00  0.00    -0.387 OA
ATOM     18  H   LIG    1       22.444 -22.218   6.215  0.00  0.00    +0.210 HD
ENDBRANCH  16  17
BRANCH  16  19
ATOM     19  C   LIG    1       24.865 -21.335   6.960  0.00  0.00    +0.261 C 
BRANCH  19  20
ATOM     20  O   LIG    1       25.857 -21.497   5.935  0.00  0.00    -0.489 OA
BRANCH  20  21
ATOM     21  C   LIG    1       27.040 -20.846   6.136  0.00  0.00    +0.121 A 
ATOM     22  C   LIG    1       27.251 -19.674   5.405  0.00  0.00    +0.049 A 
ATOM     23  C   LIG    1       28.449 -18.957   5.537  0.00  0.00    -0.047 A 
ATOM     24  C   LIG    1       28.649 -17.662   4.821  0.00  0.00    +0.044 C 
ATOM     25  C   LIG    1       29.472 -19.469   6.351  0.00  0.00    +0.003 A 
ATOM     26  C   LIG    1       29.280 -20.645   7.062  0.00  0.00    +0.004 A 
ATOM     27  C   LIG    1       28.056 -21.307   6.980  0.00  0.00    +0.045 A 
ENDBRANCH  20  21
ENDBRANCH  19  20
ENDBRANCH  16  19
ENDBRANCH  15  16
ENDBRANCH   1  15
TORSDOF 11
ENDMDL
MODEL 2
REMARK VINA RESULT:      -4.6      1.287      2.329
REMARK  Name = *****
REMARK                            x       y       z     vdW  Elec       q    Type
REMARK                         _______ _______ _______ _____ _____    ______ ____
ROOT
ATOM      1  N   LIG    1       22.326 -18.007   4.902  0.00  0.00    -0.313 NA
ATOM      2  H   LIG    1       21.478 -18.373   5.342  0.00  0.00    +0.122 HD
ENDROOT
BRANCH   1   3
ATOM      3  C   LIG    1       22.039 -16.814   4.115  0.00  0.00    +0.085 C 
BRANCH   3   4
ATOM      4  C   LIG    1       22.404 -15.548   4.894  0.00  0.00    +0.050 C 
BRANCH   4   8
ATOM      5  C   LIG    1       25.955 -13.658   3.315  0.00  0.00    +0.162 A 
ATOM      6  C   LIG    1       25.882 -15.060   3.384  0.00  0.00    +0.162 A 
ATOM      7  C   LIG    1       24.726 -15.663   3.893  0.00  0.00    +0.053 A 
ATOM      8  C   LIG    1       23.637 -14.893   4.324  0.00  0.00    -0.043 A 
ATOM      9  C   LIG    1       23.713 -13.504   4.237  0.00  0.00    +0.007 A 
ATOM     10  C   LIG    1       24.865 -12.892   3.748  0.00  0.00    +0.050 A 
BRANCH   5  12
ATOM     11  C   LIG    1       28.229 -13.173   3.747  0.00  0.00    +0.277 C 
ATOM     12  O   LIG    1       27.122 -13.101   2.851  0.00  0.00    -0.491 OA
ENDBRANCH   5  12
BRANCH   6  13
ATOM     13  O   LIG    1       26.976 -15.784   2.968  0.00  0.00    -0.491 OA
ATOM     14  C   LIG    1       27.363 -16.854   3.822  0.00  0.00    +0.277 C 
ENDBRANCH   6  13
ENDBRANCH   4   8
ENDBRANCH   3   4
ENDBRANCH   1   3
BRANCH   1  15
ATOM     15  C   LIG    1       22.900 -19.061   4.053  0.00  0.00    +0.115 C 
BRANCH  15  16
ATOM     16  C   LIG    1       22.941 -20.366   4.857  0.00  0.00    +0.166 C 
BRANCH  16  17
ATOM     17  O   LIG    1       21.658 -20.998   4.719  0.00  0.00    -0.387 OA
ATOM     18  H   LIG    1       21.538 -21.549   5.515  0.00  0.00    +0.210 HD
ENDBRANCH  16  17
BRANCH  16  19
ATOM     19  C   LIG    1       24.099 -21.277   4.416  0.00  0.00    +0.261 C 
BRANCH  19  20
ATOM     20  O   LIG    1       25.304 -20.545   4.149  0.00  0.00    -0.489 OA
BRANCH  20  21
ATOM     21  C   LIG    1       26.258 -20.583   5.127  0.00  0.00    +0.121 A 
ATOM     22  C   LIG    1       27.285 -19.639   5.046  0.00  0.00    +0.049 A 
ATOM     23  C   LIG    1       28.315 -19.623   5.997  0.00  0.00    -0.047 A 
ATOM     24  C   LIG    1       29.371 -18.568   5.964  0.00  0.00    +0.044 C 
ATOM     25  C   LIG    1       28.352 -20.616   6.989  0.00  0.00    +0.003 A 
ATOM     26  C   LIG    1       27.349 -21.572   7.062  0.00  0.00    +0.004 A 
ATOM     27  C   LIG    1       26.291 -21.529   6.156  0.00  0.00    +0.045 A 
ENDBRANCH  20  21
ENDBRANCH  19  20
ENDBRANCH  16  19
ENDBRANCH  15  16
ENDBRANCH   1  15
TORSDOF 11
ENDMDL
MODEL 3
REMARK VINA RESULT:      -3.3      1.777      4.104
REMARK  Name = *****
REMARK                            x       y       z     vdW  Elec       q    Type
REMARK                         _______ _______ _______ _____ _____    ______ ____
ROOT
ATOM      1  N   LIG    1       27.084 -18.953   4.152  0.00  0.00    -0.313 NA
ATOM      2  H   LIG    1       27.319 -19.716   3.513  0.00  0.00    +0.122 HD
ENDROOT
BRANCH   1   3
ATOM      3  C   LIG    1       26.521 -17.817   3.433  0.00  0.00    +0.085 C 
BRANCH   3   4
ATOM      4  C   LIG    1       27.408 -16.579   3.594  0.00  0.00    +0.050 C 
BRANCH   4   8
ATOM      5  C   LIG    1       25.110 -12.962   3.038  0.00  0.00    +0.162 A 
ATOM      6  C   LIG    1       24.555 -14.039   3.751  0.00  0.00    +0.162 A 
ATOM      7  C   LIG    1       25.309 -15.205   3.929  0.00  0.00    +0.053 A 
ATOM      8  C   LIG    1       26.611 -15.311   3.419  0.00  0.00    -0.043 A 
ATOM      9  C   LIG    1       27.157 -14.231   2.728  0.00  0.00    +0.007 A 
ATOM     10  C   LIG    1       26.410 -13.073   2.529  0.00  0.00    +0.050 A 
BRANCH   5  12
ATOM     11  C   LIG    1       23.554 -11.447   3.975  0.00  0.00    +0.277 C 
ATOM     12  O   LIG    1       24.324 -11.851   2.845  0.00  0.00    -0.491 OA
ENDBRANCH   5  12
BRANCH   6  13
ATOM     13  O   LIG    1       23.269 -13.907   4.222  0.00  0.00    -0.491 OA
ATOM     14  C   LIG    1       22.679 -15.095   4.736  0.00  0.00    +0.277 C 
ENDBRANCH   6  13
ENDBRANCH   4   8
ENDBRANCH   3   4
ENDBRANCH   1   3
BRANCH   1  15
ATOM     15  C   LIG    1       28.304 -18.557   4.870  0.00  0.00    +0.115 C 
BRANCH  15  16
ATOM     16  C   LIG    1       28.723 -19.708   5.793  0.00  0.00    +0.166 C 
BRANCH  16  17
ATOM     17  O   LIG    1       29.098 -19.133   7.055  0.00  0.00    -0.387 OA
ATOM     18  H   LIG    1       29.607 -19.819   7.527  0.00  0.00    +0.210 HD
ENDBRANCH  16  17
BRANCH  16  19
ATOM     19  C   LIG    1       27.615 -20.766   5.931  0.00  0.00    +0.261 C 
BRANCH  19  20
ATOM     20  O   LIG    1       26.567 -20.353   6.819  0.00  0.00    -0.489 OA
BRANCH  20  21
ATOM     21  C   LIG    1       25.291 -20.599   6.398  0.00  0.00    +0.121 A 
ATOM     22  C   LIG    1       24.859 -19.917   5.257  0.00  0.00    +0.049 A 
ATOM     23  C   LIG    1       23.555 -20.097   4.771  0.00  0.00    -0.047 A 
ATOM     24  C   LIG    1       23.112 -19.434   3.508  0.00  0.00    +0.044 C 
ATOM     25  C   LIG    1       22.659 -20.907   5.485  0.00  0.00    +0.003 A 
ATOM     26  C   LIG    1       23.074 -21.569   6.632  0.00  0.00    +0.004 A 
ATOM     27  C   LIG    1       24.393 -21.442   7.061  0.00  0.00    +0.045 A 
ENDBRANCH  20  21
ENDBRANCH  19  20
ENDBRANCH  16  19
ENDBRANCH  15  16
ENDBRANCH   1  15
TORSDOF 11
ENDMDL
MODEL 4
REMARK VINA RESULT:      -3.1      1.763      7.646
REMARK  Name = *****
REMARK                            x       y       z     vdW  Elec       q    Type
REMARK                         _______ _______ _______ _____ _____    ______ ____
ROOT
ATOM      1  N   LIG    1       28.020 -17.073   3.946  0.00  0.00    -0.313 NA
ATOM      2  H   LIG    1       27.367 -17.818   3.691  0.00  0.00    +0.122 HD
ENDROOT
BRANCH   1   3
ATOM      3  C   LIG    1       28.763 -17.413   5.153  0.00  0.00    +0.085 C 
BRANCH   3   4
ATOM      4  C   LIG    1       28.994 -18.924   5.241  0.00  0.00    +0.050 C 
BRANCH   4   8
ATOM      5  C   LIG    1       25.293 -20.973   6.121  0.00  0.00    +0.162 A 
ATOM      6  C   LIG    1       25.467 -20.354   4.872  0.00  0.00    +0.162 A 
ATOM      7  C   LIG    1       26.671 -19.696   4.594  0.00  0.00    +0.053 A 
ATOM      8  C   LIG    1       27.709 -19.656   5.536  0.00  0.00    -0.043 A 
ATOM      9  C   LIG    1       27.531 -20.287   6.767  0.00  0.00    +0.007 A 
ATOM     10  C   LIG    1       26.331 -20.930   7.060  0.00  0.00    +0.050 A 
BRANCH   5  12
ATOM     11  C   LIG    1       23.132 -20.756   7.056  0.00  0.00    +0.277 C 
ATOM     12  O   LIG    1       24.081 -21.571   6.374  0.00  0.00    -0.491 OA
ENDBRANCH   5  12
BRANCH   6  13
ATOM     13  O   LIG    1       24.422 -20.399   3.978  0.00  0.00    -0.491 OA
ATOM     14  C   LIG    1       23.744 -19.166   3.765  0.00  0.00    +0.277 C 
ENDBRANCH   6  13
ENDBRANCH   4   8
ENDBRANCH   3   4
ENDBRANCH   1   3
BRANCH   1  15
ATOM     15  C   LIG    1       27.255 -15.833   4.143  0.00  0.00    +0.115 C 
BRANCH  15  16
ATOM     16  C   LIG    1       27.990 -14.688   3.436  0.00  0.00    +0.166 C 
BRANCH  16  17
ATOM     17  O   LIG    1       27.352 -14.486   2.165  0.00  0.00    -0.387 OA
ATOM     18  H   LIG    1       27.866 -15.002   1.516  0.00  0.00    +0.210 HD
ENDBRANCH  16  17
BRANCH  16  19
ATOM     19  C   LIG    1       28.022 -13.411   4.291  0.00  0.00    +0.261 C 
BRANCH  19  20
ATOM     20  O   LIG    1       26.886 -13.302   5.162  0.00  0.00    -0.489 OA
BRANCH  20  21
ATOM     21  C   LIG    1       25.661 -13.366   4.562  0.00  0.00    +0.121 A 
ATOM     22  C   LIG    1       24.840 -14.441   4.912  0.00  0.00    +0.049 A 
ATOM     23  C   LIG    1       23.575 -14.592   4.325  0.00  0.00    -0.047 A 
ATOM     24  C   LIG    1       22.659 -15.692   4.752  0.00  0.00    +0.044 C 
ATOM     25  C   LIG    1       23.170 -13.699   3.321  0.00  0.00    +0.003 A 
ATOM     26  C   LIG    1       23.990 -12.642   2.950  0.00  0.00    +0.004 A 
ATOM     27  C   LIG    1       25.211 -12.460   3.595  0.00  0.00    +0.045 A 
ENDBRANCH  20  21
ENDBRANCH  19  20
ENDBRANCH  16  19
ENDBRANCH  15  16
ENDBRANCH   1  15
TORSDOF 11
ENDMDL
MODEL 5
REMARK VINA RESULT:      -3.0      2.409      7.601
REMARK  Name = *****
REMARK                            x       y       z     vdW  Elec       q    Type
REMARK                         _______ _______ _______ _____ _____    ______ ____
ROOT
ATOM      1  N   LIG    1       27.194 -15.946   3.954  0.00  0.00    -0.313 NA
ATOM      2  H   LIG    1       28.085 -16.449   3.977  0.00  0.00    +0.122 HD
ENDROOT
BRANCH   1   3
ATOM      3  C   LIG    1       26.140 -16.767   3.372  0.00  0.00    +0.085 C 
BRANCH   3   4
ATOM      4  C   LIG    1       26.566 -18.237   3.313  0.00  0.00    +0.050 C 
BRANCH   4   8
ATOM      5  C   LIG    1       23.550 -20.800   5.046  0.00  0.00    +0.162 A 
ATOM      6  C   LIG    1       23.207 -19.502   4.631  0.00  0.00    +0.162 A 
ATOM      7  C   LIG    1       24.191 -18.681   4.067  0.00  0.00    +0.053 A 
ATOM      8  C   LIG    1       25.506 -19.136   3.898  0.00  0.00    -0.043 A 
ATOM      9  C   LIG    1       25.831 -20.431   4.299  0.00  0.00    +0.007 A 
ATOM     10  C   LIG    1       24.865 -21.251   4.878  0.00  0.00    +0.050 A 
BRANCH   5  12
ATOM     11  C   LIG    1       22.581 -21.571   7.060  0.00  0.00    +0.277 C 
ATOM     12  O   LIG    1       22.569 -21.562   5.635  0.00  0.00    -0.491 OA
ENDBRANCH   5  12
BRANCH   6  13
ATOM     13  O   LIG    1       21.912 -19.083   4.826  0.00  0.00    -0.491 OA
ATOM     14  C   LIG    1       21.265 -18.538   3.682  0.00  0.00    +0.277 C 
ENDBRANCH   6  13
ENDBRANCH   4   8
ENDBRANCH   3   4
ENDBRANCH   1   3
BRANCH   1  15
ATOM     15  C   LIG    1       27.378 -14.713   3.176  0.00  0.00    +0.115 C 
BRANCH  15  16
ATOM     16  C   LIG    1       28.145 -13.703   4.037  0.00  0.00    +0.166 C 
BRANCH  16  17
ATOM     17  O   LIG    1       28.384 -12.540   3.228  0.00  0.00    -0.387 OA
ATOM     18  H   LIG    1       28.988 -12.822   2.515  0.00  0.00    +0.210 HD
ENDBRANCH  16  17
BRANCH  16  19
ATOM     19  C   LIG    1       27.398 -13.373   5.340  0.00  0.00    +0.261 C 
BRANCH  19  20
ATOM     20  O   LIG    1       26.314 -12.455   5.135  0.00  0.00    -0.489 OA
BRANCH  20  21
ATOM     21  C   LIG    1       25.236 -12.941   4.452  0.00  0.00    +0.121 A 
ATOM     22  C   LIG    1       24.524 -13.983   5.052  0.00  0.00    +0.049 A 
ATOM     23  C   LIG    1       23.417 -14.554   4.407  0.00  0.00    -0.047 A 
ATOM     24  C   LIG    1       22.604 -15.613   5.076  0.00  0.00    +0.044 C 
ATOM     25  C   LIG    1       23.075 -14.124   3.115  0.00  0.00    +0.003 A 
ATOM     26  C   LIG    1       23.792 -13.105   2.503  0.00  0.00    +0.004 A 
ATOM     27  C   LIG    1       24.842 -12.496   3.186  0.00  0.00    +0.045 A 
ENDBRANCH  20  21
ENDBRANCH  19  20
ENDBRANCH  16  19
ENDBRANCH  15  16
ENDBRANCH   1  15
TORSDOF 11
ENDMDL
MODEL 6
REMARK VINA RESULT:      -3.0      1.817      4.222
REMARK  Name = *****
REMARK                            x       y       z     vdW  Elec       q    Type
REMARK                         _______ _______ _______ _____ _____    ______ ____
ROOT
ATOM      1  N   LIG    1       26.843 -18.998   4.238  0.00  0.00    -0.313 NA
ATOM      2  H   LIG    1       27.139 -19.754   3.616  0.00  0.00    +0.122 HD
ENDROOT
BRANCH   1   3
ATOM      3  C   LIG    1       26.240 -17.903   3.488  0.00  0.00    +0.085 C 
BRANCH   3   4
ATOM      4  C   LIG    1       27.243 -16.764   3.288  0.00  0.00    +0.050 C 
BRANCH   4   8
ATOM      5  C   LIG    1       25.598 -13.019   4.683  0.00  0.00    +0.162 A 
ATOM      6  C   LIG    1       26.987 -13.230   4.726  0.00  0.00    +0.162 A 
ATOM      7  C   LIG    1       27.511 -14.445   4.268  0.00  0.00    +0.053 A 
ATOM      8  C   LIG    1       26.675 -15.448   3.757  0.00  0.00    -0.043 A 
ATOM      9  C   LIG    1       25.300 -15.222   3.704  0.00  0.00    +0.007 A 
ATOM     10  C   LIG    1       24.766 -14.024   4.173  0.00  0.00    +0.050 A 
BRANCH   5  12
ATOM     11  C   LIG    1       23.703 -11.672   5.110  0.00  0.00    +0.277 C 
ATOM     12  O   LIG    1       25.117 -11.833   5.182  0.00  0.00    -0.491 OA
ENDBRANCH   5  12
BRANCH   6  13
ATOM     13  O   LIG    1       27.775 -12.232   5.248  0.00  0.00    -0.491 OA
ATOM     14  C   LIG    1       28.986 -11.976   4.546  0.00  0.00    +0.277 C 
ENDBRANCH   6  13
ENDBRANCH   4   8
ENDBRANCH   3   4
ENDBRANCH   1   3
BRANCH   1  15
ATOM     15  C   LIG    1       28.017 -18.526   4.986  0.00  0.00    +0.115 C 
BRANCH  15  16
ATOM     16  C   LIG    1       28.610 -19.709   5.760  0.00  0.00    +0.166 C 
BRANCH  16  17
ATOM     17  O   LIG    1       28.985 -19.228   7.062  0.00  0.00    -0.387 OA
ATOM     18  H   LIG    1       28.305 -19.557   7.680  0.00  0.00    +0.210 HD
ENDBRANCH  16  17
BRANCH  16  19
ATOM     19  C   LIG    1       27.637 -20.898   5.827  0.00  0.00    +0.261 C 
BRANCH  19  20
ATOM     20  O   LIG    1       26.582 -20.694   6.778  0.00  0.00    -0.489 OA
BRANCH  20  21
ATOM     21  C   LIG    1       25.309 -20.800   6.294  0.00  0.00    +0.121 A 
ATOM     22  C   LIG    1       25.170 -21.085   4.934  0.00  0.00    +0.049 A 
ATOM     23  C   LIG    1       23.898 -21.189   4.353  0.00  0.00    -0.047 A 
ATOM     24  C   LIG    1       23.740 -21.571   2.918  0.00  0.00    +0.044 C 
ATOM     25  C   LIG    1       22.761 -20.926   5.134  0.00  0.00    +0.003 A 
ATOM     26  C   LIG    1       22.892 -20.619   6.481  0.00  0.00    +0.004 A 
ATOM     27  C   LIG    1       24.158 -20.594   7.061  0.00  0.00    +0.045 A 
ENDBRANCH  20  21
ENDBRANCH  19  20
ENDBRANCH  16  19
ENDBRANCH  15  16
ENDBRANCH   1  15
TORSDOF 11
ENDMDL
MODEL 7
REMARK VINA RESULT:      -2.8      1.771      4.231
REMARK  Name = *****
REMARK                            x       y       z     vdW  Elec       q    Type
REMARK                         _______ _______ _______ _____ _____    ______ ____
ROOT
ATOM      1  N   LIG    1       26.047 -19.340   3.733  0.00  0.00    -0.313 NA
ATOM      2  H   LIG    1       26.480 -19.912   3.003  0.00  0.00    +0.122 HD
ENDROOT
BRANCH   1   3
ATOM      3  C   LIG    1       25.802 -17.982   3.262  0.00  0.00    +0.085 C 
BRANCH   3   4
ATOM      4  C   LIG    1       26.937 -17.046   3.687  0.00  0.00    +0.050 C 
BRANCH   4   8
ATOM      5  C   LIG    1       25.929 -12.931   2.836  0.00  0.00    +0.162 A 
ATOM      6  C   LIG    1       24.968 -13.780   3.411  0.00  0.00    +0.162 A 
ATOM      7  C   LIG    1       25.305 -15.111   3.687  0.00  0.00    +0.053 A 
ATOM      8  C   LIG    1       26.588 -15.606   3.410  0.00  0.00    -0.043 A 
ATOM      9  C   LIG    1       27.538 -14.751   2.854  0.00  0.00    +0.007 A 
ATOM     10  C   LIG    1       27.208 -13.430   2.559  0.00  0.00    +0.050 A 
BRANCH   5  12
ATOM     11  C   LIG    1       24.328 -11.524   1.812  0.00  0.00    +0.277 C 
ATOM     12  O   LIG    1       25.548 -11.645   2.538  0.00  0.00    -0.491 OA
ENDBRANCH   5  12
BRANCH   6  13
ATOM     13  O   LIG    1       23.716 -13.266   3.654  0.00  0.00    -0.491 OA
ATOM     14  C   LIG    1       23.569 -12.565   4.884  0.00  0.00    +0.277 C 
ENDBRANCH   6  13
ENDBRANCH   4   8
ENDBRANCH   3   4
ENDBRANCH   1   3
BRANCH   1  15
ATOM     15  C   LIG    1       26.939 -19.327   4.902  0.00  0.00    +0.115 C 
BRANCH  15  16
ATOM     16  C   LIG    1       26.767 -20.649   5.660  0.00  0.00    +0.166 C 
BRANCH  16  17
ATOM     17  O   LIG    1       26.702 -20.337   7.061  0.00  0.00    -0.387 OA
ATOM     18  H   LIG    1       25.767 -20.437   7.320  0.00  0.00    +0.210 HD
ENDBRANCH  16  17
BRANCH  16  19
ATOM     19  C   LIG    1       25.540 -21.437   5.172  0.00  0.00    +0.261 C 
BRANCH  19  20
ATOM     20  O   LIG    1       24.391 -21.241   6.009  0.00  0.00    -0.489 OA
BRANCH  20  21
ATOM     21  C   LIG    1       23.279 -20.739   5.395  0.00  0.00    +0.121 A 
ATOM     22  C   LIG    1       23.210 -19.351   5.249  0.00  0.00    +0.049 A 
ATOM     23  C   LIG    1       22.092 -18.753   4.649  0.00  0.00    -0.047 A 
ATOM     24  C   LIG    1       22.045 -17.278   4.417  0.00  0.00    +0.044 C 
ATOM     25  C   LIG    1       21.004 -19.553   4.267  0.00  0.00    +0.003 A 
ATOM     26  C   LIG    1       21.056 -20.931   4.430  0.00  0.00    +0.004 A 
ATOM     27  C   LIG    1       22.204 -21.518   4.958  0.00  0.00    +0.045 A 
ENDBRANCH  20  21
ENDBRANCH  19  20
ENDBRANCH  16  19
ENDBRANCH  15  16
ENDBRANCH   1  15
TORSDOF 11
ENDMDL
MODEL 8
REMARK VINA RESULT:      -2.7      1.964      6.619
REMARK  Name = *****
REMARK                            x       y       z     vdW  Elec       q    Type
REMARK                         _______ _______ _______ _____ _____    ______ ____
ROOT
ATOM      1  N   LIG    1       22.007 -18.694   4.442  0.00  0.00    -0.313 NA
ATOM      2  H   LIG    1       21.412 -19.436   4.819  0.00  0.00    +0.122 HD
ENDROOT
BRANCH   1   3
ATOM      3  C   LIG    1       23.218 -19.243   3.844  0.00  0.00    +0.085 C 
BRANCH   3   4
ATOM      4  C   LIG    1       23.551 -20.610   4.449  0.00  0.00    +0.050 C 
BRANCH   4   8
ATOM      5  C   LIG    1       27.454 -20.628   6.304  0.00  0.00    +0.162 A 
ATOM      6  C   LIG    1       27.185 -19.734   5.253  0.00  0.00    +0.162 A 
ATOM      7  C   LIG    1       25.917 -19.733   4.661  0.00  0.00    +0.053 A 
ATOM      8  C   LIG    1       24.908 -20.599   5.107  0.00  0.00    -0.043 A 
ATOM      9  C   LIG    1       25.180 -21.470   6.161  0.00  0.00    +0.007 A 
ATOM     10  C   LIG    1       26.444 -21.492   6.746  0.00  0.00    +0.050 A 
BRANCH   5  12
ATOM     11  C   LIG    1       29.289 -19.343   7.062  0.00  0.00    +0.277 C 
ATOM     12  O   LIG    1       28.723 -20.631   6.830  0.00  0.00    -0.491 OA
ENDBRANCH   5  12
BRANCH   6  13
ATOM     13  O   LIG    1       28.203 -18.911   4.830  0.00  0.00    -0.491 OA
ATOM     14  C   LIG    1       27.807 -17.605   4.428  0.00  0.00    +0.277 C 
ENDBRANCH   6  13
ENDBRANCH   4   8
ENDBRANCH   3   4
ENDBRANCH   1   3
BRANCH   1  15
ATOM     15  C   LIG    1       22.343 -17.770   5.534  0.00  0.00    +0.115 C 
BRANCH  15  16
ATOM     16  C   LIG    1       22.042 -16.339   5.072  0.00  0.00    +0.166 C 
BRANCH  16  17
ATOM     17  O   LIG    1       21.700 -15.572   6.238  0.00  0.00    -0.387 OA
ATOM     18  H   LIG    1       22.111 -16.030   6.995  0.00  0.00    +0.210 HD
ENDBRANCH  16  17
BRANCH  16  19
ATOM     19  C   LIG    1       23.216 -15.730   4.287  0.00  0.00    +0.261 C 
BRANCH  19  20
ATOM     20  O   LIG    1       23.237 -14.296   4.352  0.00  0.00    -0.489 OA
BRANCH  20  21
ATOM     21  C   LIG    1       24.271 -13.681   3.704  0.00  0.00    +0.121 A 
ATOM     22  C   LIG    1       25.564 -14.048   4.084  0.00  0.00    +0.049 A 
ATOM     23  C   LIG    1       26.681 -13.448   3.484  0.00  0.00    -0.047 A 
ATOM     24  C   LIG    1       28.065 -13.891   3.827  0.00  0.00    +0.044 C 
ATOM     25  C   LIG    1       26.490 -12.416   2.551  0.00  0.00    +0.003 A 
ATOM     26  C   LIG    1       25.208 -12.030   2.185  0.00  0.00    +0.004 A 
ATOM     27  C   LIG    1       24.109 -12.686   2.734  0.00  0.00    +0.045 A 
ENDBRANCH  20  21
ENDBRANCH  19  20
ENDBRANCH  16  19
ENDBRANCH  15  16
ENDBRANCH   1  15
TORSDOF 11
ENDMDL
