MODEL 1
REMARK VINA RESULT:      -8.0      0.000      0.000
REMARK  Name = *****
REMARK                            x       y       z     vdW  Elec       q    Type
REMARK                         _______ _______ _______ _____ _____    ______ ____
ROOT
ATOM      1  C   LIG    1       25.188 -29.343   7.801  0.00  0.00    +0.248 C 
ATOM      2  N   LIG    1       25.540 -28.052   7.396  0.00  0.00    -0.308 N 
ATOM      3  H   LIG    1       25.762 -27.341   8.113  0.00  0.00    +0.149 HD
ATOM      4  O   LIG    1       24.965 -30.234   7.004  0.00  0.00    -0.270 OA
ENDROOT
BRANCH   1   6
ATOM      5  C   LIG    1       24.066 -30.103  10.056  0.00  0.00    +0.135 A 
ATOM      6  C   LIG    1       25.156 -29.630   9.284  0.00  0.00    +0.085 A 
ATOM      7  C   LIG    1       26.380 -29.405   9.949  0.00  0.00    +0.103 A 
ATOM      8  C   LIG    1       26.508 -29.601  11.334  0.00  0.00    +0.294 A 
ATOM      9  C   LIG    1       25.414 -29.947  12.129  0.00  0.00    +0.106 A 
ATOM     10  C   LIG    1       24.219 -30.212  11.456  0.00  0.00    +0.076 A 
BRANCH   8  11
ATOM     11  N   LIG    1       27.801 -29.363  11.949  0.00  0.00    +0.082 N 
ATOM     12  O   LIG    1       28.794 -29.800  11.351  0.00  0.00    -0.576 OA
ATOM     13  O   LIG    1       27.827 -28.720  13.007  0.00  0.00    +0.042 OA
ENDBRANCH   8  11
BRANCH   9  14
ATOM     14  N   LIG    1       25.468 -30.259  13.490  0.00  0.00    -0.353 N 
ATOM     15  H   LIG    1       25.766 -31.200  13.737  0.00  0.00    +0.142 HD
ATOM     16  H   LIG    1       25.872 -29.551  14.095  0.00  0.00    +0.142 HD
ENDBRANCH   9  14
BRANCH   5  17
ATOM     17  O   LIG    1       22.859 -30.430   9.478  0.00  0.00    -0.491 OA
BRANCH  17  19
ATOM     18  C   LIG    1       20.691 -30.738  10.610  0.00  0.00    +0.048 C 
ATOM     19  C   LIG    1       22.043 -31.342  10.250  0.00  0.00    +0.226 C 
ENDBRANCH  17  19
ENDBRANCH   5  17
ENDBRANCH   1   6
BRANCH   2  20
ATOM     20  C   LIG    1       25.694 -27.709   5.971  0.00  0.00    +0.076 C 
ATOM     21  C   LIG    1       24.393 -27.281   5.290  0.00  0.00    +0.037 C 
ATOM     22  C   LIG    1       23.949 -25.851   5.648  0.00  0.00    +0.086 C 
ATOM     23  N   LIG    1       24.994 -24.799   5.640  0.00  0.00    -0.302 NA
ATOM     24  C   LIG    1       26.240 -25.265   6.270  0.00  0.00    +0.086 C 
ATOM     25  C   LIG    1       26.729 -26.608   5.732  0.00  0.00    +0.037 C 
BRANCH  23  26
ATOM     26  C   LIG    1       24.470 -23.579   6.331  0.00  0.00    +0.088 C 
BRANCH  26  27
ATOM     27  C   LIG    1       25.157 -22.208   6.033  0.00  0.00    +0.007 C 
ATOM     28  C   LIG    1       24.928 -21.194   7.180  0.00  0.00    +0.009 C 
ATOM     29  C   LIG    1       23.481 -20.695   7.284  0.00  0.00    +0.027 C 
ATOM     30  C   LIG    1       22.824 -20.483   5.954  0.00  0.00    -0.031 C 
ATOM     31  C   LIG    1       23.389 -20.847   4.793  0.00  0.00    -0.031 C 
ATOM     32  C   LIG    1       24.728 -21.530   4.716  0.00  0.00    +0.031 C 
ENDBRANCH  26  27
ENDBRANCH  23  26
ENDBRANCH   2  20
TORSDOF 8
ENDMDL
MODEL 2
REMARK VINA RESULT:      -7.7      1.353      1.991
REMARK  Name = *****
REMARK                            x       y       z     vdW  Elec       q    Type
REMARK                         _______ _______ _______ _____ _____    ______ ____
ROOT
ATOM      1  C   LIG    1       25.003 -29.441   7.331  0.00  0.00    +0.248 C 
ATOM      2  N   LIG    1       24.781 -28.081   7.096  0.00  0.00    -0.308 N 
ATOM      3  H   LIG    1       24.622 -27.450   7.899  0.00  0.00    +0.149 HD
ATOM      4  O   LIG    1       25.247 -30.223   6.432  0.00  0.00    -0.270 OA
ENDROOT
BRANCH   1   6
ATOM      5  C   LIG    1       24.018 -30.699   9.421  0.00  0.00    +0.135 A 
ATOM      6  C   LIG    1       25.000 -29.916   8.765  0.00  0.00    +0.085 A 
ATOM      7  C   LIG    1       26.134 -29.531   9.510  0.00  0.00    +0.103 A 
ATOM      8  C   LIG    1       26.271 -29.871  10.866  0.00  0.00    +0.294 A 
ATOM      9  C   LIG    1       25.258 -30.534  11.561  0.00  0.00    +0.106 A 
ATOM     10  C   LIG    1       24.160 -30.952  10.804  0.00  0.00    +0.076 A 
BRANCH   8  11
ATOM     11  N   LIG    1       27.471 -29.452  11.566  0.00  0.00    +0.082 N 
ATOM     12  O   LIG    1       28.553 -29.827  11.096  0.00  0.00    -0.576 OA
ATOM     13  O   LIG    1       27.335 -28.730  12.563  0.00  0.00    +0.042 OA
ENDBRANCH   8  11
BRANCH   9  14
ATOM     14  N   LIG    1       25.346 -31.001  12.875  0.00  0.00    -0.353 N 
ATOM     15  H   LIG    1       25.515 -31.996  13.002  0.00  0.00    +0.142 HD
ATOM     16  H   LIG    1       25.887 -30.429  13.516  0.00  0.00    +0.142 HD
ENDBRANCH   9  14
BRANCH   5  17
ATOM     17  O   LIG    1       22.920 -31.191   8.750  0.00  0.00    -0.491 OA
BRANCH  17  19
ATOM     18  C   LIG    1       23.478 -33.150   7.363  0.00  0.00    +0.048 C 
ATOM     19  C   LIG    1       22.862 -32.634   8.657  0.00  0.00    +0.226 C 
ENDBRANCH  17  19
ENDBRANCH   5  17
ENDBRANCH   1   6
BRANCH   2  20
ATOM     20  C   LIG    1       24.865 -27.512   5.739  0.00  0.00    +0.076 C 
ATOM     21  C   LIG    1       23.865 -26.386   5.473  0.00  0.00    +0.037 C 
ATOM     22  C   LIG    1       24.257 -25.046   6.123  0.00  0.00    +0.086 C 
ATOM     23  N   LIG    1       25.672 -24.623   5.995  0.00  0.00    -0.302 NA
ATOM     24  C   LIG    1       26.599 -25.745   6.221  0.00  0.00    +0.086 C 
ATOM     25  C   LIG    1       26.261 -26.987   5.398  0.00  0.00    +0.037 C 
BRANCH  23  26
ATOM     26  C   LIG    1       25.942 -23.508   6.956  0.00  0.00    +0.088 C 
BRANCH  26  27
ATOM     27  C   LIG    1       25.103 -22.196   6.822  0.00  0.00    +0.007 C 
ATOM     28  C   LIG    1       25.779 -21.182   5.868  0.00  0.00    +0.009 C 
ATOM     29  C   LIG    1       27.064 -20.562   6.435  0.00  0.00    +0.027 C 
ATOM     30  C   LIG    1       26.993 -20.277   7.904  0.00  0.00    -0.031 C 
ATOM     31  C   LIG    1       25.971 -20.673   8.677  0.00  0.00    -0.031 C 
ATOM     32  C   LIG    1       24.807 -21.467   8.148  0.00  0.00    +0.031 C 
ENDBRANCH  26  27
ENDBRANCH  23  26
ENDBRANCH   2  20
TORSDOF 8
ENDMDL
MODEL 3
REMARK VINA RESULT:      -7.6      1.480      3.263
REMARK  Name = *****
REMARK                            x       y       z     vdW  Elec       q    Type
REMARK                         _______ _______ _______ _____ _____    ______ ____
ROOT
ATOM      1  C   LIG    1       24.914 -29.407   7.487  0.00  0.00    +0.248 C 
ATOM      2  N   LIG    1       25.339 -28.099   7.238  0.00  0.00    -0.308 N 
ATOM      3  H   LIG    1       25.453 -27.446   8.031  0.00  0.00    +0.149 HD
ATOM      4  O   LIG    1       24.810 -30.235   6.603  0.00  0.00    -0.270 OA
ENDROOT
BRANCH   1   6
ATOM      5  C   LIG    1       25.476 -29.591  10.052  0.00  0.00    +0.135 A 
ATOM      6  C   LIG    1       24.645 -29.797   8.923  0.00  0.00    +0.085 A 
ATOM      7  C   LIG    1       23.400 -30.426   9.133  0.00  0.00    +0.103 A 
ATOM      8  C   LIG    1       23.011 -30.872  10.406  0.00  0.00    +0.294 A 
ATOM      9  C   LIG    1       23.867 -30.789  11.506  0.00  0.00    +0.106 A 
ATOM     10  C   LIG    1       25.078 -30.124  11.298  0.00  0.00    +0.076 A 
BRANCH   8  11
ATOM     11  N   LIG    1       21.710 -31.499  10.551  0.00  0.00    +0.082 N 
ATOM     12  O   LIG    1       21.686 -32.630  11.055  0.00  0.00    -0.576 OA
ATOM     13  O   LIG    1       20.716 -30.855  10.190  0.00  0.00    +0.042 OA
ENDBRANCH   8  11
BRANCH   9  14
ATOM     14  N   LIG    1       23.530 -31.112  12.823  0.00  0.00    -0.353 N 
ATOM     15  H   LIG    1       23.163 -30.361  13.403  0.00  0.00    +0.142 HD
ATOM     16  H   LIG    1       23.030 -31.986  12.954  0.00  0.00    +0.142 HD
ENDBRANCH   9  14
BRANCH   5  17
ATOM     17  O   LIG    1       26.670 -28.910   9.955  0.00  0.00    -0.491 OA
BRANCH  17  19
ATOM     18  C   LIG    1       26.944 -27.343  11.837  0.00  0.00    +0.048 C 
ATOM     19  C   LIG    1       27.340 -28.677  11.216  0.00  0.00    +0.226 C 
ENDBRANCH  17  19
ENDBRANCH   5  17
ENDBRANCH   1   6
BRANCH   2  20
ATOM     20  C   LIG    1       25.719 -27.660   5.883  0.00  0.00    +0.076 C 
ATOM     21  C   LIG    1       24.544 -27.167   5.036  0.00  0.00    +0.037 C 
ATOM     22  C   LIG    1       24.054 -25.759   5.420  0.00  0.00    +0.086 C 
ATOM     23  N   LIG    1       25.090 -24.724   5.652  0.00  0.00    -0.302 NA
ATOM     24  C   LIG    1       26.219 -25.251   6.438  0.00  0.00    +0.086 C 
ATOM     25  C   LIG    1       26.782 -26.560   5.889  0.00  0.00    +0.037 C 
BRANCH  23  26
ATOM     26  C   LIG    1       24.467 -23.548   6.336  0.00  0.00    +0.088 C 
BRANCH  26  27
ATOM     27  C   LIG    1       25.185 -22.164   6.229  0.00  0.00    +0.007 C 
ATOM     28  C   LIG    1       24.783 -21.222   7.389  0.00  0.00    +0.009 C 
ATOM     29  C   LIG    1       23.334 -20.723   7.306  0.00  0.00    +0.027 C 
ATOM     30  C   LIG    1       22.882 -20.426   5.908  0.00  0.00    -0.031 C 
ATOM     31  C   LIG    1       23.616 -20.721   4.825  0.00  0.00    -0.031 C 
ATOM     32  C   LIG    1       24.955 -21.405   4.907  0.00  0.00    +0.031 C 
ENDBRANCH  26  27
ENDBRANCH  23  26
ENDBRANCH   2  20
TORSDOF 8
ENDMDL
MODEL 4
REMARK VINA RESULT:      -7.4      2.160      3.457
REMARK  Name = *****
REMARK                            x       y       z     vdW  Elec       q    Type
REMARK                         _______ _______ _______ _____ _____    ______ ____
ROOT
ATOM      1  C   LIG    1       24.418 -29.578   7.148  0.00  0.00    +0.248 C 
ATOM      2  N   LIG    1       25.210 -28.462   6.859  0.00  0.00    -0.308 N 
ATOM      3  H   LIG    1       25.907 -28.146   7.553  0.00  0.00    +0.149 HD
ATOM      4  O   LIG    1       23.617 -30.027   6.352  0.00  0.00    -0.270 OA
ENDROOT
BRANCH   1   6
ATOM      5  C   LIG    1       25.740 -31.051   8.882  0.00  0.00    +0.135 A 
ATOM      6  C   LIG    1       24.632 -30.267   8.476  0.00  0.00    +0.085 A 
ATOM      7  C   LIG    1       23.590 -30.074   9.408  0.00  0.00    +0.103 A 
ATOM      8  C   LIG    1       23.626 -30.669  10.679  0.00  0.00    +0.294 A 
ATOM      9  C   LIG    1       24.649 -31.543  11.051  0.00  0.00    +0.106 A 
ATOM     10  C   LIG    1       25.697 -31.691  10.140  0.00  0.00    +0.076 A 
BRANCH   8  11
ATOM     11  N   LIG    1       22.526 -30.416  11.592  0.00  0.00    +0.082 N 
ATOM     12  O   LIG    1       22.289 -29.232  11.869  0.00  0.00    -0.576 OA
ATOM     13  O   LIG    1       21.884 -31.390  12.007  0.00  0.00    +0.042 OA
ENDBRANCH   8  11
BRANCH   9  14
ATOM     14  N   LIG    1       24.819 -32.099  12.322  0.00  0.00    -0.353 N 
ATOM     15  H   LIG    1       25.241 -33.024  12.369  0.00  0.00    +0.142 HD
ATOM     16  H   LIG    1       25.171 -31.473  13.039  0.00  0.00    +0.142 HD
ENDBRANCH   9  14
BRANCH   5  17
ATOM     17  O   LIG    1       26.839 -31.222   8.069  0.00  0.00    -0.491 OA
BRANCH  17  19
ATOM     18  C   LIG    1       26.988 -32.515   5.976  0.00  0.00    +0.048 C 
ATOM     19  C   LIG    1       26.972 -32.546   7.499  0.00  0.00    +0.226 C 
ENDBRANCH  17  19
ENDBRANCH   5  17
ENDBRANCH   1   6
BRANCH   2  20
ATOM     20  C   LIG    1       25.140 -27.789   5.550  0.00  0.00    +0.076 C 
ATOM     21  C   LIG    1       23.994 -26.783   5.429  0.00  0.00    +0.037 C 
ATOM     22  C   LIG    1       24.256 -25.456   6.165  0.00  0.00    +0.086 C 
ATOM     23  N   LIG    1       25.597 -24.847   6.000  0.00  0.00    -0.302 NA
ATOM     24  C   LIG    1       26.668 -25.854   6.085  0.00  0.00    +0.086 C 
ATOM     25  C   LIG    1       26.436 -27.065   5.183  0.00  0.00    +0.037 C 
BRANCH  23  26
ATOM     26  C   LIG    1       25.785 -23.781   7.033  0.00  0.00    +0.088 C 
BRANCH  26  27
ATOM     27  C   LIG    1       24.841 -22.536   6.992  0.00  0.00    +0.007 C 
ATOM     28  C   LIG    1       25.234 -21.559   5.858  0.00  0.00    +0.009 C 
ATOM     29  C   LIG    1       26.556 -20.821   6.108  0.00  0.00    +0.027 C 
ATOM     30  C   LIG    1       26.761 -20.429   7.540  0.00  0.00    -0.031 C 
ATOM     31  C   LIG    1       25.948 -20.826   8.530  0.00  0.00    -0.031 C 
ATOM     32  C   LIG    1       24.764 -21.727   8.302  0.00  0.00    +0.031 C 
ENDBRANCH  26  27
ENDBRANCH  23  26
ENDBRANCH   2  20
TORSDOF 8
ENDMDL
MODEL 5
REMARK VINA RESULT:      -7.2      3.685      7.445
REMARK  Name = *****
REMARK                            x       y       z     vdW  Elec       q    Type
REMARK                         _______ _______ _______ _____ _____    ______ ____
ROOT
ATOM      1  C   LIG    1       26.762 -28.789   9.878  0.00  0.00    +0.248 C 
ATOM      2  N   LIG    1       26.302 -27.946  10.893  0.00  0.00    -0.308 N 
ATOM      3  H   LIG    1       25.404 -27.450  10.768  0.00  0.00    +0.149 HD
ATOM      4  O   LIG    1       27.784 -29.439   9.987  0.00  0.00    -0.270 OA
ENDROOT
BRANCH   1   6
ATOM      5  C   LIG    1       25.075 -30.016   8.273  0.00  0.00    +0.135 A 
ATOM      6  C   LIG    1       25.907 -28.929   8.639  0.00  0.00    +0.085 A 
ATOM      7  C   LIG    1       25.953 -27.819   7.770  0.00  0.00    +0.103 A 
ATOM      8  C   LIG    1       25.235 -27.803   6.563  0.00  0.00    +0.294 A 
ATOM      9  C   LIG    1       24.508 -28.913   6.128  0.00  0.00    +0.106 A 
ATOM     10  C   LIG    1       24.432 -29.989   7.016  0.00  0.00    +0.076 A 
BRANCH   8  11
ATOM     11  N   LIG    1       25.318 -26.621   5.725  0.00  0.00    +0.082 N 
ATOM     12  O   LIG    1       26.445 -26.298   5.324  0.00  0.00    -0.576 OA
ATOM     13  O   LIG    1       24.263 -26.037   5.445  0.00  0.00    +0.042 OA
ENDBRANCH   8  11
BRANCH   9  14
ATOM     14  N   LIG    1       23.687 -28.953   4.999  0.00  0.00    -0.353 N 
ATOM     15  H   LIG    1       24.148 -29.000   4.093  0.00  0.00    +0.142 HD
ATOM     16  H   LIG    1       22.878 -29.564   5.056  0.00  0.00    +0.142 HD
ENDBRANCH   9  14
BRANCH   5  17
ATOM     17  O   LIG    1       24.903 -31.104   9.101  0.00  0.00    -0.491 OA
BRANCH  17  19
ATOM     18  C   LIG    1       23.263 -30.328  10.768  0.00  0.00    +0.048 C 
ATOM     19  C   LIG    1       23.559 -31.273   9.611  0.00  0.00    +0.226 C 
ENDBRANCH  17  19
ENDBRANCH   5  17
ENDBRANCH   1   6
BRANCH   2  20
ATOM     20  C   LIG    1       27.019 -27.826  12.175  0.00  0.00    +0.076 C 
ATOM     21  C   LIG    1       26.856 -26.465  12.854  0.00  0.00    +0.037 C 
ATOM     22  C   LIG    1       25.488 -26.272  13.533  0.00  0.00    +0.086 C 
ATOM     23  N   LIG    1       24.972 -27.402  14.343  0.00  0.00    -0.302 NA
ATOM     24  C   LIG    1       25.183 -28.695  13.671  0.00  0.00    +0.086 C 
ATOM     25  C   LIG    1       26.616 -28.901  13.186  0.00  0.00    +0.037 C 
BRANCH  23  26
ATOM     26  C   LIG    1       23.520 -27.180  14.629  0.00  0.00    +0.088 C 
BRANCH  26  27
ATOM     27  C   LIG    1       22.498 -28.261  14.151  0.00  0.00    +0.007 C 
ATOM     28  C   LIG    1       21.729 -27.799  12.889  0.00  0.00    +0.009 C 
ATOM     29  C   LIG    1       20.735 -26.660  13.152  0.00  0.00    +0.027 C 
ATOM     30  C   LIG    1       20.019 -26.782  14.463  0.00  0.00    -0.031 C 
ATOM     31  C   LIG    1       20.334 -27.705  15.385  0.00  0.00    -0.031 C 
ATOM     32  C   LIG    1       21.456 -28.691  15.202  0.00  0.00    +0.031 C 
ENDBRANCH  26  27
ENDBRANCH  23  26
ENDBRANCH   2  20
TORSDOF 8
ENDMDL
MODEL 6
REMARK VINA RESULT:      -7.1      5.374      9.654
REMARK  Name = *****
REMARK                            x       y       z     vdW  Elec       q    Type
REMARK                         _______ _______ _______ _____ _____    ______ ____
ROOT
ATOM      1  C   LIG    1       26.698 -20.304   7.593  0.00  0.00    +0.248 C 
ATOM      2  N   LIG    1       25.858 -20.600   6.515  0.00  0.00    -0.308 N 
ATOM      3  H   LIG    1       26.230 -20.532   5.553  0.00  0.00    +0.149 HD
ATOM      4  O   LIG    1       26.333 -20.413   8.747  0.00  0.00    -0.270 OA
ENDROOT
BRANCH   1   6
ATOM      5  C   LIG    1       28.646 -19.425   6.057  0.00  0.00    +0.135 A 
ATOM      6  C   LIG    1       28.121 -19.899   7.285  0.00  0.00    +0.085 A 
ATOM      7  C   LIG    1       29.006 -20.003   8.378  0.00  0.00    +0.103 A 
ATOM      8  C   LIG    1       30.369 -19.689   8.249  0.00  0.00    +0.294 A 
ATOM      9  C   LIG    1       30.928 -19.339   7.019  0.00  0.00    +0.106 A 
ATOM     10  C   LIG    1       30.035 -19.194   5.954  0.00  0.00    +0.076 A 
BRANCH   8  11
ATOM     11  N   LIG    1       31.219 -19.806   9.420  0.00  0.00    +0.082 N 
ATOM     12  O   LIG    1       32.144 -20.628   9.360  0.00  0.00    -0.576 OA
ATOM     13  O   LIG    1       30.982 -19.064  10.382  0.00  0.00    +0.042 OA
ENDBRANCH   8  11
BRANCH   9  14
ATOM     14  N   LIG    1       32.243 -18.915   6.816  0.00  0.00    -0.353 N 
ATOM     15  H   LIG    1       32.983 -19.518   7.170  0.00  0.00    +0.142 HD
ATOM     16  H   LIG    1       32.454 -18.538   5.898  0.00  0.00    +0.142 HD
ENDBRANCH   9  14
BRANCH   5  17
ATOM     17  O   LIG    1       27.838 -19.211   4.961  0.00  0.00    -0.491 OA
BRANCH  17  19
ATOM     18  C   LIG    1       26.609 -17.561   3.605  0.00  0.00    +0.048 C 
ATOM     19  C   LIG    1       27.830 -17.851   4.469  0.00  0.00    +0.226 C 
ENDBRANCH  17  19
ENDBRANCH   5  17
ENDBRANCH   1   6
BRANCH   2  20
ATOM     20  C   LIG    1       24.487 -21.097   6.723  0.00  0.00    +0.076 C 
ATOM     21  C   LIG    1       23.761 -21.481   5.432  0.00  0.00    +0.037 C 
ATOM     22  C   LIG    1       24.223 -22.825   4.840  0.00  0.00    +0.086 C 
ATOM     23  N   LIG    1       24.388 -23.956   5.784  0.00  0.00    -0.302 NA
ATOM     24  C   LIG    1       25.056 -23.536   7.027  0.00  0.00    +0.086 C 
ATOM     25  C   LIG    1       24.426 -22.300   7.666  0.00  0.00    +0.037 C 
BRANCH  23  26
ATOM     26  C   LIG    1       25.155 -25.051   5.110  0.00  0.00    +0.088 C 
BRANCH  26  27
ATOM     27  C   LIG    1       25.963 -26.046   6.004  0.00  0.00    +0.007 C 
ATOM     28  C   LIG    1       26.797 -27.032   5.150  0.00  0.00    +0.009 C 
ATOM     29  C   LIG    1       25.949 -28.061   4.390  0.00  0.00    +0.027 C 
ATOM     30  C   LIG    1       24.769 -28.557   5.169  0.00  0.00    -0.031 C 
ATOM     31  C   LIG    1       24.399 -28.033   6.348  0.00  0.00    -0.031 C 
ATOM     32  C   LIG    1       25.119 -26.878   6.990  0.00  0.00    +0.031 C 
ENDBRANCH  26  27
ENDBRANCH  23  26
ENDBRANCH   2  20
TORSDOF 8
ENDMDL
MODEL 7
REMARK VINA RESULT:      -6.4      3.264      7.598
REMARK  Name = *****
REMARK                            x       y       z     vdW  Elec       q    Type
REMARK                         _______ _______ _______ _____ _____    ______ ____
ROOT
ATOM      1  C   LIG    1       26.927 -28.887  10.279  0.00  0.00    +0.248 C 
ATOM      2  N   LIG    1       26.368 -27.924  11.124  0.00  0.00    -0.308 N 
ATOM      3  H   LIG    1       25.445 -27.522  10.890  0.00  0.00    +0.149 HD
ATOM      4  O   LIG    1       27.985 -29.432  10.528  0.00  0.00    -0.270 OA
ENDROOT
BRANCH   1   6
ATOM      5  C   LIG    1       25.783 -28.490   7.943  0.00  0.00    +0.135 A 
ATOM      6  C   LIG    1       26.138 -29.292   9.055  0.00  0.00    +0.085 A 
ATOM      7  C   LIG    1       25.733 -30.644   9.043  0.00  0.00    +0.103 A 
ATOM      8  C   LIG    1       24.970 -31.170   7.988  0.00  0.00    +0.294 A 
ATOM      9  C   LIG    1       24.507 -30.366   6.946  0.00  0.00    +0.106 A 
ATOM     10  C   LIG    1       24.951 -29.041   6.943  0.00  0.00    +0.076 A 
BRANCH   8  11
ATOM     11  N   LIG    1       24.601 -32.573   8.036  0.00  0.00    +0.082 N 
ATOM     12  O   LIG    1       23.395 -32.838   7.941  0.00  0.00    -0.576 OA
ATOM     13  O   LIG    1       25.512 -33.406   8.138  0.00  0.00    +0.042 OA
ENDBRANCH   8  11
BRANCH   9  14
ATOM     14  N   LIG    1       23.832 -30.819   5.810  0.00  0.00    -0.353 N 
ATOM     15  H   LIG    1       22.830 -30.644   5.767  0.00  0.00    +0.142 HD
ATOM     16  H   LIG    1       24.294 -30.656   4.921  0.00  0.00    +0.142 HD
ENDBRANCH   9  14
BRANCH   5  17
ATOM     17  O   LIG    1       26.206 -27.184   7.830  0.00  0.00    -0.491 OA
BRANCH  17  19
ATOM     18  C   LIG    1       25.830 -25.016   6.719  0.00  0.00    +0.048 C 
ATOM     19  C   LIG    1       25.846 -26.534   6.588  0.00  0.00    +0.226 C 
ENDBRANCH  17  19
ENDBRANCH   5  17
ENDBRANCH   1   6
BRANCH   2  20
ATOM     20  C   LIG    1       27.020 -27.541  12.389  0.00  0.00    +0.076 C 
ATOM     21  C   LIG    1       26.718 -26.110  12.836  0.00  0.00    +0.037 C 
ATOM     22  C   LIG    1       25.312 -25.933  13.438  0.00  0.00    +0.086 C 
ATOM     23  N   LIG    1       24.858 -26.962  14.404  0.00  0.00    -0.302 NA
ATOM     24  C   LIG    1       25.202 -28.321  13.954  0.00  0.00    +0.086 C 
ATOM     25  C   LIG    1       26.666 -28.475  13.548  0.00  0.00    +0.037 C 
BRANCH  23  26
ATOM     26  C   LIG    1       23.383 -26.826  14.612  0.00  0.00    +0.088 C 
BRANCH  26  27
ATOM     27  C   LIG    1       22.472 -28.050  14.272  0.00  0.00    +0.007 C 
ATOM     28  C   LIG    1       21.688 -27.829  12.956  0.00  0.00    +0.009 C 
ATOM     29  C   LIG    1       20.590 -26.762  13.061  0.00  0.00    +0.027 C 
ATOM     30  C   LIG    1       19.864 -26.778  14.372  0.00  0.00    -0.031 C 
ATOM     31  C   LIG    1       20.244 -27.540  15.409  0.00  0.00    -0.031 C 
ATOM     32  C   LIG    1       21.454 -28.434  15.365  0.00  0.00    +0.031 C 
ENDBRANCH  26  27
ENDBRANCH  23  26
ENDBRANCH   2  20
TORSDOF 8
ENDMDL
MODEL 8
REMARK VINA RESULT:      -6.3      3.359      5.212
REMARK  Name = *****
REMARK                            x       y       z     vdW  Elec       q    Type
REMARK                         _______ _______ _______ _____ _____    ______ ____
ROOT
ATOM      1  C   LIG    1       24.956 -29.011  12.791  0.00  0.00    +0.248 C 
ATOM      2  N   LIG    1       25.216 -28.978  11.418  0.00  0.00    -0.308 N 
ATOM      3  H   LIG    1       25.357 -28.065  10.953  0.00  0.00    +0.149 HD
ATOM      4  O   LIG    1       24.832 -30.054  13.402  0.00  0.00    -0.270 OA
ENDROOT
BRANCH   1   6
ATOM      5  C   LIG    1       23.755 -27.041  14.056  0.00  0.00    +0.135 A 
ATOM      6  C   LIG    1       24.896 -27.692  13.527  0.00  0.00    +0.085 A 
ATOM      7  C   LIG    1       26.148 -27.067  13.707  0.00  0.00    +0.103 A 
ATOM      8  C   LIG    1       26.260 -25.823  14.349  0.00  0.00    +0.294 A 
ATOM      9  C   LIG    1       25.136 -25.110  14.767  0.00  0.00    +0.106 A 
ATOM     10  C   LIG    1       23.905 -25.757  14.626  0.00  0.00    +0.076 A 
BRANCH   8  11
ATOM     11  N   LIG    1       27.582 -25.246  14.511  0.00  0.00    +0.082 N 
ATOM     12  O   LIG    1       28.437 -25.951  15.064  0.00  0.00    -0.576 OA
ATOM     13  O   LIG    1       27.773 -24.107  14.064  0.00  0.00    +0.042 OA
ENDBRANCH   8  11
BRANCH   9  14
ATOM     14  N   LIG    1       25.155 -23.921  15.500  0.00  0.00    -0.353 N 
ATOM     15  H   LIG    1       25.969 -23.754  16.088  0.00  0.00    +0.142 HD
ATOM     16  H   LIG    1       24.854 -23.087  15.006  0.00  0.00    +0.142 HD
ENDBRANCH   9  14
BRANCH   5  17
ATOM     17  O   LIG    1       22.504 -27.617  14.002  0.00  0.00    -0.491 OA
BRANCH  17  19
ATOM     18  C   LIG    1       20.197 -26.799  13.712  0.00  0.00    +0.048 C 
ATOM     19  C   LIG    1       21.578 -26.975  13.094  0.00  0.00    +0.226 C 
ENDBRANCH  17  19
ENDBRANCH   5  17
ENDBRANCH   1   6
BRANCH   2  20
ATOM     20  C   LIG    1       25.391 -30.217  10.639  0.00  0.00    +0.076 C 
ATOM     21  C   LIG    1       24.175 -30.595   9.791  0.00  0.00    +0.037 C 
ATOM     22  C   LIG    1       24.022 -29.745   8.517  0.00  0.00    +0.086 C 
ATOM     23  N   LIG    1       25.246 -29.501   7.718  0.00  0.00    -0.302 NA
ATOM     24  C   LIG    1       26.400 -29.177   8.574  0.00  0.00    +0.086 C 
ATOM     25  C   LIG    1       26.608 -30.173   9.714  0.00  0.00    +0.037 C 
BRANCH  23  26
ATOM     26  C   LIG    1       24.984 -28.400   6.739  0.00  0.00    +0.088 C 
BRANCH  26  27
ATOM     27  C   LIG    1       26.121 -27.361   6.471  0.00  0.00    +0.007 C 
ATOM     28  C   LIG    1       25.794 -25.983   7.097  0.00  0.00    +0.009 C 
ATOM     29  C   LIG    1       24.650 -25.241   6.393  0.00  0.00    +0.027 C 
ATOM     30  C   LIG    1       24.657 -25.405   4.904  0.00  0.00    -0.031 C 
ATOM     31  C   LIG    1       25.482 -26.248   4.265  0.00  0.00    -0.031 C 
ATOM     32  C   LIG    1       26.465 -27.131   4.986  0.00  0.00    +0.031 C 
ENDBRANCH  26  27
ENDBRANCH  23  26
ENDBRANCH   2  20
TORSDOF 8
ENDMDL
MODEL 9
REMARK VINA RESULT:      -6.2      3.800      6.288
REMARK  Name = *****
REMARK                            x       y       z     vdW  Elec       q    Type
REMARK                         _______ _______ _______ _____ _____    ______ ____
ROOT
ATOM      1  C   LIG    1       23.029 -29.877  12.449  0.00  0.00    +0.248 C 
ATOM      2  N   LIG    1       23.774 -29.495  11.329  0.00  0.00    -0.308 N 
ATOM      3  H   LIG    1       23.754 -28.508  11.023  0.00  0.00    +0.149 HD
ATOM      4  O   LIG    1       23.052 -31.010  12.887  0.00  0.00    -0.270 OA
ENDROOT
BRANCH   1   6
ATOM      5  C   LIG    1       22.645 -27.502  13.517  0.00  0.00    +0.135 A 
ATOM      6  C   LIG    1       22.229 -28.808  13.158  0.00  0.00    +0.085 A 
ATOM      7  C   LIG    1       20.906 -29.183  13.473  0.00  0.00    +0.103 A 
ATOM      8  C   LIG    1       20.041 -28.311  14.155  0.00  0.00    +0.294 A 
ATOM      9  C   LIG    1       20.472 -27.070  14.625  0.00  0.00    +0.106 A 
ATOM     10  C   LIG    1       21.768 -26.689  14.269  0.00  0.00    +0.076 A 
BRANCH   8  11
ATOM     11  N   LIG    1       18.688 -28.759  14.433  0.00  0.00    +0.082 N 
ATOM     12  O   LIG    1       17.778 -27.941  14.243  0.00  0.00    -0.576 OA
ATOM     13  O   LIG    1       18.533 -29.927  14.813  0.00  0.00    +0.042 OA
ENDBRANCH   8  11
BRANCH   9  14
ATOM     14  N   LIG    1       19.659 -26.101  15.220  0.00  0.00    -0.353 N 
ATOM     15  H   LIG    1       19.275 -26.320  16.137  0.00  0.00    +0.142 HD
ATOM     16  H   LIG    1       19.986 -25.142  15.154  0.00  0.00    +0.142 HD
ENDBRANCH   9  14
BRANCH   5  17
ATOM     17  O   LIG    1       23.891 -27.022  13.175  0.00  0.00    -0.491 OA
BRANCH  17  19
ATOM     18  C   LIG    1       25.158 -24.981  13.727  0.00  0.00    +0.048 C 
ATOM     19  C   LIG    1       24.571 -26.296  14.226  0.00  0.00    +0.226 C 
ENDBRANCH  17  19
ENDBRANCH   5  17
ENDBRANCH   1   6
BRANCH   2  20
ATOM     20  C   LIG    1       24.660 -30.446  10.635  0.00  0.00    +0.076 C 
ATOM     21  C   LIG    1       24.053 -31.052   9.369  0.00  0.00    +0.037 C 
ATOM     22  C   LIG    1       24.046 -30.090   8.166  0.00  0.00    +0.086 C 
ATOM     23  N   LIG    1       25.285 -29.315   7.916  0.00  0.00    -0.302 NA
ATOM     24  C   LIG    1       25.856 -28.783   9.165  0.00  0.00    +0.086 C 
ATOM     25  C   LIG    1       26.011 -29.837  10.259  0.00  0.00    +0.037 C 
BRANCH  23  26
ATOM     26  C   LIG    1       24.988 -28.209   6.953  0.00  0.00    +0.088 C 
BRANCH  26  27
ATOM     27  C   LIG    1       26.137 -27.214   6.590  0.00  0.00    +0.007 C 
ATOM     28  C   LIG    1       25.845 -25.789   7.120  0.00  0.00    +0.009 C 
ATOM     29  C   LIG    1       24.701 -25.078   6.385  0.00  0.00    +0.027 C 
ATOM     30  C   LIG    1       24.677 -25.349   4.911  0.00  0.00    -0.031 C 
ATOM     31  C   LIG    1       25.476 -26.251   4.321  0.00  0.00    -0.031 C 
ATOM     32  C   LIG    1       26.456 -27.098   5.086  0.00  0.00    +0.031 C 
ENDBRANCH  26  27
ENDBRANCH  23  26
ENDBRANCH   2  20
TORSDOF 8
ENDMDL
