MODEL 1
REMARK VINA RESULT:      -8.8      0.000      0.000
REMARK  Name = *****
REMARK                            x       y       z     vdW  Elec       q    Type
REMARK                         _______ _______ _______ _____ _____    ______ ____
ROOT
ATOM      1  C   LIG    1       26.285 -20.600   6.805  0.00  0.00    +0.120 C 
ENDROOT
BRANCH   1   3
ATOM      2  C   LIG    1       28.578 -20.187   7.704  0.00  0.00    +0.213 C 
ATOM      3  N   LIG    1       27.756 -20.729   6.735  0.00  0.00    -0.308 N 
ATOM      4  H   LIG    1       28.138 -21.387   6.069  0.00  0.00    +0.149 HD
ATOM      5  O   LIG    1       28.139 -19.557   8.652  0.00  0.00    -0.276 OA
BRANCH   2   6
ATOM      6  C   LIG    1       30.076 -20.500   7.539  0.00  0.00    +0.096 C 
BRANCH   6   7
ATOM      7  C   LIG    1       30.953 -19.321   7.086  0.00  0.00    +0.009 C 
BRANCH   7   8
ATOM      8  C   LIG    1       31.684 -18.601   8.248  0.00  0.00    +0.000 C 
BRANCH   8   9
ATOM      9  C   LIG    1       30.825 -17.483   8.884  0.00  0.00    -0.000 C 
BRANCH   9  10
ATOM     10  C   LIG    1       30.541 -17.674  10.387  0.00  0.00    -0.000 C 
BRANCH  10  12
ATOM     11  C   LIG    1       32.565 -16.207  11.005  0.00  0.00    +0.004 C 
ATOM     12  C   LIG    1       31.105 -16.547  11.274  0.00  0.00    -0.003 C 
ENDBRANCH  10  12
ENDBRANCH   9  10
ENDBRANCH   8   9
ENDBRANCH   7   8
ENDBRANCH   6   7
ENDBRANCH   2   6
ENDBRANCH   1   3
BRANCH   1  13
ATOM     13  C   LIG    1       25.592 -21.636   7.780  0.00  0.00    +0.166 C 
BRANCH  13  14
ATOM     14  C   LIG    1       25.184 -22.981   7.197  0.00  0.00    -0.014 A 
ATOM     15  C   LIG    1       26.145 -23.938   6.834  0.00  0.00    +0.055 A 
ATOM     16  C   LIG    1       25.766 -25.176   6.308  0.00  0.00    +0.162 A 
ATOM     17  O   LIG    1       26.781 -26.052   6.014  0.00  0.00    -0.485 OA
ATOM     18  C   LIG    1       26.296 -27.349   5.644  0.00  0.00    +0.270 C 
ATOM     19  C   LIG    1       25.058 -27.241   4.769  0.00  0.00    +0.270 C 
ATOM     20  O   LIG    1       23.987 -26.618   5.491  0.00  0.00    -0.485 OA
ATOM     21  C   LIG    1       24.417 -25.463   6.094  0.00  0.00    +0.162 A 
ATOM     22  C   LIG    1       23.446 -24.554   6.504  0.00  0.00    +0.050 A 
ATOM     23  C   LIG    1       23.826 -23.328   7.068  0.00  0.00    +0.010 A 
ENDBRANCH  13  14
BRANCH  13  24
ATOM     24  O   LIG    1       26.383 -21.915   8.941  0.00  0.00    -0.385 OA
ATOM     25  H   LIG    1       25.878 -21.627   9.728  0.00  0.00    +0.210 HD
ENDBRANCH  13  24
ENDBRANCH   1  13
BRANCH   1  26
ATOM     26  C   LIG    1       25.620 -20.618   5.391  0.00  0.00    +0.109 C 
BRANCH  26  27
ATOM     27  N   LIG    1       24.532 -19.639   5.151  0.00  0.00    -0.300 NA
ATOM     28  C   LIG    1       24.503 -19.194   3.745  0.00  0.00    +0.084 C 
ATOM     29  C   LIG    1       23.070 -18.741   3.478  0.00  0.00    +0.017 C 
ATOM     30  C   LIG    1       22.287 -19.156   4.712  0.00  0.00    +0.017 C 
ATOM     31  C   LIG    1       23.187 -20.168   5.402  0.00  0.00    +0.084 C 
ENDBRANCH  26  27
ENDBRANCH   1  26
TORSDOF 12
ENDMDL
MODEL 2
REMARK VINA RESULT:      -8.8      2.138      7.875
REMARK  Name = *****
REMARK                            x       y       z     vdW  Elec       q    Type
REMARK                         _______ _______ _______ _____ _____    ______ ____
ROOT
ATOM      1  C   LIG    1       24.969 -22.595   6.606  0.00  0.00    +0.120 C 
ENDROOT
BRANCH   1   3
ATOM      2  C   LIG    1       25.219 -24.960   5.842  0.00  0.00    +0.213 C 
ATOM      3  N   LIG    1       25.157 -24.037   6.869  0.00  0.00    -0.308 N 
ATOM      4  H   LIG    1       25.434 -24.312   7.802  0.00  0.00    +0.149 HD
ATOM      5  O   LIG    1       25.099 -24.639   4.671  0.00  0.00    -0.276 OA
BRANCH   2   6
ATOM      6  C   LIG    1       25.524 -26.404   6.279  0.00  0.00    +0.096 C 
BRANCH   6   7
ATOM      7  C   LIG    1       24.367 -27.403   6.117  0.00  0.00    +0.009 C 
BRANCH   7   8
ATOM      8  C   LIG    1       24.804 -28.782   5.557  0.00  0.00    +0.000 C 
BRANCH   8   9
ATOM      9  C   LIG    1       24.462 -29.945   6.519  0.00  0.00    -0.000 C 
BRANCH   9  10
ATOM     10  C   LIG    1       24.461 -29.557   8.011  0.00  0.00    -0.000 C 
BRANCH  10  12
ATOM     11  C   LIG    1       26.447 -28.525   9.283  0.00  0.00    +0.004 C 
ATOM     12  C   LIG    1       25.813 -29.787   8.713  0.00  0.00    -0.003 C 
ENDBRANCH  10  12
ENDBRANCH   9  10
ENDBRANCH   8   9
ENDBRANCH   7   8
ENDBRANCH   6   7
ENDBRANCH   2   6
ENDBRANCH   1   3
BRANCH   1  13
ATOM     13  C   LIG    1       25.611 -21.649   7.700  0.00  0.00    +0.166 C 
BRANCH  13  14
ATOM     14  C   LIG    1       26.931 -20.977   7.354  0.00  0.00    -0.014 A 
ATOM     15  C   LIG    1       28.040 -21.066   8.212  0.00  0.00    +0.055 A 
ATOM     16  C   LIG    1       29.254 -20.456   7.887  0.00  0.00    +0.162 A 
ATOM     17  O   LIG    1       30.284 -20.629   8.777  0.00  0.00    -0.485 OA
ATOM     18  C   LIG    1       31.528 -20.117   8.284  0.00  0.00    +0.270 C 
ATOM     19  C   LIG    1       31.325 -18.804   7.546  0.00  0.00    +0.270 C 
ATOM     20  O   LIG    1       30.500 -19.001   6.390  0.00  0.00    -0.485 OA
ATOM     21  C   LIG    1       29.369 -19.705   6.716  0.00  0.00    +0.162 A 
ATOM     22  C   LIG    1       28.302 -19.654   5.823  0.00  0.00    +0.050 A 
ATOM     23  C   LIG    1       27.097 -20.300   6.132  0.00  0.00    +0.010 A 
ENDBRANCH  13  14
BRANCH  13  24
ATOM     24  O   LIG    1       24.720 -20.612   8.123  0.00  0.00    -0.385 OA
ATOM     25  H   LIG    1       24.996 -19.780   7.690  0.00  0.00    +0.210 HD
ENDBRANCH  13  24
ENDBRANCH   1  13
BRANCH   1  26
ATOM     26  C   LIG    1       23.471 -22.231   6.347  0.00  0.00    +0.109 C 
BRANCH  26  27
ATOM     27  N   LIG    1       23.185 -21.369   5.174  0.00  0.00    -0.300 NA
ATOM     28  C   LIG    1       22.721 -20.031   5.584  0.00  0.00    +0.084 C 
ATOM     29  C   LIG    1       23.061 -19.097   4.425  0.00  0.00    +0.017 C 
ATOM     30  C   LIG    1       23.909 -19.930   3.479  0.00  0.00    +0.017 C 
ATOM     31  C   LIG    1       24.352 -21.115   4.322  0.00  0.00    +0.084 C 
ENDBRANCH  26  27
ENDBRANCH   1  26
TORSDOF 12
ENDMDL
MODEL 3
REMARK VINA RESULT:      -8.8      2.045      3.373
REMARK  Name = *****
REMARK                            x       y       z     vdW  Elec       q    Type
REMARK                         _______ _______ _______ _____ _____    ______ ____
ROOT
ATOM      1  C   LIG    1       25.201 -23.542   6.621  0.00  0.00    +0.120 C 
ENDROOT
BRANCH   1   3
ATOM      2  C   LIG    1       26.471 -21.881   7.987  0.00  0.00    +0.213 C 
ATOM      3  N   LIG    1       26.300 -22.570   6.801  0.00  0.00    -0.308 N 
ATOM      4  H   LIG    1       27.037 -22.562   6.110  0.00  0.00    +0.149 HD
ATOM      5  O   LIG    1       25.717 -22.020   8.936  0.00  0.00    -0.276 OA
BRANCH   2   6
ATOM      6  C   LIG    1       27.724 -20.987   8.048  0.00  0.00    +0.096 C 
BRANCH   6   7
ATOM      7  C   LIG    1       28.599 -20.988   6.784  0.00  0.00    +0.009 C 
BRANCH   7   8
ATOM      8  C   LIG    1       28.479 -19.694   5.938  0.00  0.00    +0.000 C 
BRANCH   8   9
ATOM      9  C   LIG    1       29.654 -18.719   6.181  0.00  0.00    -0.000 C 
BRANCH   9  10
ATOM     10  C   LIG    1       30.876 -19.353   6.875  0.00  0.00    -0.000 C 
BRANCH  10  12
ATOM     11  C   LIG    1       30.189 -18.027   8.972  0.00  0.00    +0.004 C 
ATOM     12  C   LIG    1       31.328 -18.603   8.143  0.00  0.00    -0.003 C 
ENDBRANCH  10  12
ENDBRANCH   9  10
ENDBRANCH   8   9
ENDBRANCH   7   8
ENDBRANCH   6   7
ENDBRANCH   2   6
ENDBRANCH   1   3
BRANCH   1  13
ATOM     13  C   LIG    1       25.552 -24.742   5.652  0.00  0.00    +0.166 C 
BRANCH  13  14
ATOM     14  C   LIG    1       25.344 -26.153   6.182  0.00  0.00    -0.014 A 
ATOM     15  C   LIG    1       26.051 -26.621   7.301  0.00  0.00    +0.055 A 
ATOM     16  C   LIG    1       25.850 -27.914   7.792  0.00  0.00    +0.162 A 
ATOM     17  O   LIG    1       26.568 -28.264   8.908  0.00  0.00    -0.485 OA
ATOM     18  C   LIG    1       26.174 -29.536   9.437  0.00  0.00    +0.270 C 
ATOM     19  C   LIG    1       25.901 -30.531   8.322  0.00  0.00    +0.270 C 
ATOM     20  O   LIG    1       24.801 -30.090   7.515  0.00  0.00    -0.485 OA
ATOM     21  C   LIG    1       24.969 -28.780   7.143  0.00  0.00    +0.162 A 
ATOM     22  C   LIG    1       24.213 -28.317   6.070  0.00  0.00    +0.050 A 
ATOM     23  C   LIG    1       24.387 -27.006   5.603  0.00  0.00    +0.010 A 
ENDBRANCH  13  14
BRANCH  13  24
ATOM     24  O   LIG    1       24.854 -24.665   4.404  0.00  0.00    -0.385 OA
ATOM     25  H   LIG    1       25.451 -24.994   3.703  0.00  0.00    +0.210 HD
ENDBRANCH  13  24
ENDBRANCH   1  13
BRANCH   1  26
ATOM     26  C   LIG    1       23.860 -22.851   6.210  0.00  0.00    +0.109 C 
BRANCH  26  27
ATOM     27  N   LIG    1       23.945 -21.440   5.762  0.00  0.00    -0.300 NA
ATOM     28  C   LIG    1       24.434 -21.340   4.375  0.00  0.00    +0.084 C 
ATOM     29  C   LIG    1       23.901 -20.014   3.837  0.00  0.00    +0.017 C 
ATOM     30  C   LIG    1       22.938 -19.513   4.900  0.00  0.00    +0.017 C 
ATOM     31  C   LIG    1       22.656 -20.739   5.755  0.00  0.00    +0.084 C 
ENDBRANCH  26  27
ENDBRANCH   1  26
TORSDOF 12
ENDMDL
MODEL 4
REMARK VINA RESULT:      -8.4      1.594      2.620
REMARK  Name = *****
REMARK                            x       y       z     vdW  Elec       q    Type
REMARK                         _______ _______ _______ _____ _____    ______ ____
ROOT
ATOM      1  C   LIG    1       25.141 -22.279   6.769  0.00  0.00    +0.120 C 
ENDROOT
BRANCH   1   3
ATOM      2  C   LIG    1       27.370 -21.514   7.596  0.00  0.00    +0.213 C 
ATOM      3  N   LIG    1       26.535 -21.843   6.545  0.00  0.00    -0.308 N 
ATOM      4  H   LIG    1       26.925 -21.976   5.622  0.00  0.00    +0.149 HD
ATOM      5  O   LIG    1       26.996 -21.544   8.757  0.00  0.00    -0.276 OA
BRANCH   2   6
ATOM      6  C   LIG    1       28.820 -21.183   7.199  0.00  0.00    +0.096 C 
BRANCH   6   7
ATOM      7  C   LIG    1       29.002 -19.906   6.363  0.00  0.00    +0.009 C 
BRANCH   7   8
ATOM      8  C   LIG    1       30.375 -19.214   6.566  0.00  0.00    +0.000 C 
BRANCH   8   9
ATOM      9  C   LIG    1       31.198 -19.859   7.705  0.00  0.00    -0.000 C 
BRANCH   9  10
ATOM     10  C   LIG    1       31.530 -18.906   8.871  0.00  0.00    -0.000 C 
BRANCH  10  12
ATOM     11  C   LIG    1       30.175 -17.372  10.433  0.00  0.00    +0.004 C 
ATOM     12  C   LIG    1       30.553 -17.721   9.000  0.00  0.00    -0.003 C 
ENDBRANCH  10  12
ENDBRANCH   9  10
ENDBRANCH   8   9
ENDBRANCH   7   8
ENDBRANCH   6   7
ENDBRANCH   2   6
ENDBRANCH   1   3
BRANCH   1  13
ATOM     13  C   LIG    1       24.653 -23.418   5.785  0.00  0.00    +0.166 C 
BRANCH  13  14
ATOM     14  C   LIG    1       24.940 -24.857   6.184  0.00  0.00    -0.014 A 
ATOM     15  C   LIG    1       24.213 -25.924   5.630  0.00  0.00    +0.055 A 
ATOM     16  C   LIG    1       24.486 -27.247   5.991  0.00  0.00    +0.162 A 
ATOM     17  O   LIG    1       23.740 -28.217   5.370  0.00  0.00    -0.485 OA
ATOM     18  C   LIG    1       24.200 -29.540   5.672  0.00  0.00    +0.270 C 
ATOM     19  C   LIG    1       24.606 -29.659   7.131  0.00  0.00    +0.270 C 
ATOM     20  O   LIG    1       25.710 -28.789   7.417  0.00  0.00    -0.485 OA
ATOM     21  C   LIG    1       25.463 -27.523   6.948  0.00  0.00    +0.162 A 
ATOM     22  C   LIG    1       26.237 -26.487   7.464  0.00  0.00    +0.050 A 
ATOM     23  C   LIG    1       25.988 -25.164   7.071  0.00  0.00    +0.010 A 
ENDBRANCH  13  14
BRANCH  13  24
ATOM     24  O   LIG    1       23.251 -23.340   5.504  0.00  0.00    -0.385 OA
ATOM     25  H   LIG    1       22.794 -23.054   6.320  0.00  0.00    +0.210 HD
ENDBRANCH  13  24
ENDBRANCH   1  13
BRANCH   1  26
ATOM     26  C   LIG    1       24.140 -21.078   6.790  0.00  0.00    +0.109 C 
BRANCH  26  27
ATOM     27  N   LIG    1       23.660 -20.584   5.477  0.00  0.00    -0.300 NA
ATOM     28  C   LIG    1       22.533 -19.647   5.629  0.00  0.00    +0.084 C 
ATOM     29  C   LIG    1       22.547 -18.767   4.381  0.00  0.00    +0.017 C 
ATOM     30  C   LIG    1       23.838 -19.120   3.663  0.00  0.00    +0.017 C 
ATOM     31  C   LIG    1       24.667 -19.836   4.717  0.00  0.00    +0.084 C 
ENDBRANCH  26  27
ENDBRANCH   1  26
TORSDOF 12
ENDMDL
MODEL 5
REMARK VINA RESULT:      -7.5      4.700      9.114
REMARK  Name = *****
REMARK                            x       y       z     vdW  Elec       q    Type
REMARK                         _______ _______ _______ _____ _____    ______ ____
ROOT
ATOM      1  C   LIG    1       25.658 -28.352   6.834  0.00  0.00    +0.120 C 
ENDROOT
BRANCH   1   3
ATOM      2  C   LIG    1       26.417 -28.899   9.150  0.00  0.00    +0.213 C 
ATOM      3  N   LIG    1       26.060 -27.960   8.201  0.00  0.00    -0.308 N 
ATOM      4  H   LIG    1       26.256 -26.982   8.370  0.00  0.00    +0.149 HD
ATOM      5  O   LIG    1       26.397 -30.097   8.919  0.00  0.00    -0.276 OA
BRANCH   2   6
ATOM      6  C   LIG    1       26.910 -28.320  10.489  0.00  0.00    +0.096 C 
BRANCH   6   7
ATOM      7  C   LIG    1       25.879 -28.317  11.629  0.00  0.00    +0.009 C 
BRANCH   7   8
ATOM      8  C   LIG    1       26.258 -27.392  12.814  0.00  0.00    +0.000 C 
BRANCH   8   9
ATOM      9  C   LIG    1       25.078 -26.501  13.270  0.00  0.00    -0.000 C 
BRANCH   9  10
ATOM     10  C   LIG    1       23.773 -27.270  13.555  0.00  0.00    -0.000 C 
BRANCH  10  12
ATOM     11  C   LIG    1       21.272 -27.259  12.944  0.00  0.00    +0.004 C 
ATOM     12  C   LIG    1       22.498 -26.438  13.319  0.00  0.00    -0.003 C 
ENDBRANCH  10  12
ENDBRANCH   9  10
ENDBRANCH   8   9
ENDBRANCH   7   8
ENDBRANCH   6   7
ENDBRANCH   2   6
ENDBRANCH   1   3
BRANCH   1  13
ATOM     13  C   LIG    1       25.786 -27.193   5.765  0.00  0.00    +0.166 C 
BRANCH  13  14
ATOM     14  C   LIG    1       25.306 -25.808   6.174  0.00  0.00    -0.014 A 
ATOM     15  C   LIG    1       26.216 -24.779   6.463  0.00  0.00    +0.055 A 
ATOM     16  C   LIG    1       25.772 -23.505   6.828  0.00  0.00    +0.162 A 
ATOM     17  O   LIG    1       26.741 -22.562   7.060  0.00  0.00    -0.485 OA
ATOM     18  C   LIG    1       26.195 -21.252   7.260  0.00  0.00    +0.270 C 
ATOM     19  C   LIG    1       24.925 -21.310   8.092  0.00  0.00    +0.270 C 
ATOM     20  O   LIG    1       23.909 -22.052   7.404  0.00  0.00    -0.485 OA
ATOM     21  C   LIG    1       24.405 -23.250   6.955  0.00  0.00    +0.162 A 
ATOM     22  C   LIG    1       23.485 -24.238   6.614  0.00  0.00    +0.050 A 
ATOM     23  C   LIG    1       23.933 -25.503   6.209  0.00  0.00    +0.010 A 
ENDBRANCH  13  14
BRANCH  13  24
ATOM     24  O   LIG    1       27.123 -27.037   5.278  0.00  0.00    -0.385 OA
ATOM     25  H   LIG    1       27.087 -26.988   4.302  0.00  0.00    +0.210 HD
ENDBRANCH  13  24
ENDBRANCH   1  13
BRANCH   1  26
ATOM     26  C   LIG    1       24.239 -29.006   6.798  0.00  0.00    +0.109 C 
BRANCH  26  27
ATOM     27  N   LIG    1       24.108 -30.280   6.050  0.00  0.00    -0.300 NA
ATOM     28  C   LIG    1       25.348 -30.614   5.327  0.00  0.00    +0.084 C 
ATOM     29  C   LIG    1       25.334 -32.131   5.149  0.00  0.00    +0.017 C 
ATOM     30  C   LIG    1       24.162 -32.617   5.983  0.00  0.00    +0.017 C 
ATOM     31  C   LIG    1       23.846 -31.447   6.901  0.00  0.00    +0.084 C 
ENDBRANCH  26  27
ENDBRANCH   1  26
TORSDOF 12
ENDMDL
MODEL 6
REMARK VINA RESULT:      -7.5      1.821      5.752
REMARK  Name = *****
REMARK                            x       y       z     vdW  Elec       q    Type
REMARK                         _______ _______ _______ _____ _____    ______ ____
ROOT
ATOM      1  C   LIG    1       26.514 -21.151   6.252  0.00  0.00    +0.120 C 
ENDROOT
BRANCH   1   3
ATOM      2  C   LIG    1       24.431 -20.171   5.285  0.00  0.00    +0.213 C 
ATOM      3  N   LIG    1       25.747 -20.564   5.134  0.00  0.00    -0.308 N 
ATOM      4  H   LIG    1       26.262 -20.275   4.313  0.00  0.00    +0.149 HD
ATOM      5  O   LIG    1       23.827 -20.308   6.336  0.00  0.00    -0.276 OA
BRANCH   2   6
ATOM      6  C   LIG    1       23.810 -19.481   4.056  0.00  0.00    +0.096 C 
BRANCH   6   7
ATOM      7  C   LIG    1       22.330 -19.090   4.194  0.00  0.00    +0.009 C 
BRANCH   7   8
ATOM      8  C   LIG    1       22.109 -17.623   4.645  0.00  0.00    +0.000 C 
BRANCH   8   9
ATOM      9  C   LIG    1       23.265 -16.691   4.212  0.00  0.00    -0.000 C 
BRANCH   9  10
ATOM     10  C   LIG    1       23.122 -15.233   4.692  0.00  0.00    -0.000 C 
BRANCH  10  12
ATOM     11  C   LIG    1       25.443 -14.621   3.761  0.00  0.00    +0.004 C 
ATOM     12  C   LIG    1       23.978 -14.231   3.894  0.00  0.00    -0.003 C 
ENDBRANCH  10  12
ENDBRANCH   9  10
ENDBRANCH   8   9
ENDBRANCH   7   8
ENDBRANCH   6   7
ENDBRANCH   2   6
ENDBRANCH   1   3
BRANCH   1  13
ATOM     13  C   LIG    1       25.637 -21.992   7.266  0.00  0.00    +0.166 C 
BRANCH  13  14
ATOM     14  C   LIG    1       25.228 -23.394   6.842  0.00  0.00    -0.014 A 
ATOM     15  C   LIG    1       26.189 -24.357   6.493  0.00  0.00    +0.055 A 
ATOM     16  C   LIG    1       25.811 -25.648   6.114  0.00  0.00    +0.162 A 
ATOM     17  O   LIG    1       26.827 -26.523   5.821  0.00  0.00    -0.485 OA
ATOM     18  C   LIG    1       26.357 -27.860   5.611  0.00  0.00    +0.270 C 
ATOM     19  C   LIG    1       25.053 -27.864   4.830  0.00  0.00    +0.270 C 
ATOM     20  O   LIG    1       24.021 -27.203   5.575  0.00  0.00    -0.485 OA
ATOM     21  C   LIG    1       24.459 -25.987   6.034  0.00  0.00    +0.162 A 
ATOM     22  C   LIG    1       23.493 -25.067   6.434  0.00  0.00    +0.050 A 
ATOM     23  C   LIG    1       23.877 -23.785   6.852  0.00  0.00    +0.010 A 
ENDBRANCH  13  14
BRANCH  13  24
ATOM     24  O   LIG    1       26.249 -22.114   8.555  0.00  0.00    -0.385 OA
ATOM     25  H   LIG    1       26.852 -21.353   8.677  0.00  0.00    +0.210 HD
ENDBRANCH  13  24
ENDBRANCH   1  13
BRANCH   1  26
ATOM     26  C   LIG    1       27.384 -20.088   6.998  0.00  0.00    +0.109 C 
BRANCH  26  27
ATOM     27  N   LIG    1       28.856 -20.237   6.896  0.00  0.00    -0.300 NA
ATOM     28  C   LIG    1       29.509 -18.956   6.573  0.00  0.00    +0.084 C 
ATOM     29  C   LIG    1       30.939 -19.070   7.099  0.00  0.00    +0.017 C 
ATOM     30  C   LIG    1       30.964 -20.361   7.899  0.00  0.00    +0.017 C 
ATOM     31  C   LIG    1       29.497 -20.681   8.139  0.00  0.00    +0.084 C 
ENDBRANCH  26  27
ENDBRANCH   1  26
TORSDOF 12
ENDMDL
MODEL 7
REMARK VINA RESULT:      -7.3      2.202      7.502
REMARK  Name = *****
REMARK                            x       y       z     vdW  Elec       q    Type
REMARK                         _______ _______ _______ _____ _____    ______ ____
ROOT
ATOM      1  C   LIG    1       25.992 -20.900   6.692  0.00  0.00    +0.120 C 
ENDROOT
BRANCH   1   3
ATOM      2  C   LIG    1       23.531 -20.566   6.429  0.00  0.00    +0.213 C 
ATOM      3  N   LIG    1       24.772 -20.792   5.865  0.00  0.00    -0.308 N 
ATOM      4  H   LIG    1       24.890 -20.692   4.866  0.00  0.00    +0.149 HD
ATOM      5  O   LIG    1       23.372 -20.467   7.635  0.00  0.00    -0.276 OA
BRANCH   2   6
ATOM      6  C   LIG    1       22.381 -20.374   5.423  0.00  0.00    +0.096 C 
BRANCH   6   7
ATOM      7  C   LIG    1       22.381 -19.035   4.666  0.00  0.00    +0.009 C 
BRANCH   7   8
ATOM      8  C   LIG    1       23.474 -18.935   3.570  0.00  0.00    +0.000 C 
BRANCH   8   9
ATOM      9  C   LIG    1       24.432 -17.742   3.799  0.00  0.00    -0.000 C 
BRANCH   9  10
ATOM     10  C   LIG    1       25.856 -17.954   3.246  0.00  0.00    -0.000 C 
BRANCH  10  12
ATOM     11  C   LIG    1       26.210 -15.407   3.358  0.00  0.00    +0.004 C 
ATOM     12  C   LIG    1       26.818 -16.789   3.548  0.00  0.00    -0.003 C 
ENDBRANCH  10  12
ENDBRANCH   9  10
ENDBRANCH   8   9
ENDBRANCH   7   8
ENDBRANCH   6   7
ENDBRANCH   2   6
ENDBRANCH   1   3
BRANCH   1  13
ATOM     13  C   LIG    1       27.228 -20.087   6.130  0.00  0.00    +0.166 C 
BRANCH  13  14
ATOM     14  C   LIG    1       28.451 -19.966   7.027  0.00  0.00    -0.014 A 
ATOM     15  C   LIG    1       28.703 -18.795   7.759  0.00  0.00    +0.055 A 
ATOM     16  C   LIG    1       29.822 -18.690   8.590  0.00  0.00    +0.162 A 
ATOM     17  O   LIG    1       29.960 -17.516   9.286  0.00  0.00    -0.485 OA
ATOM     18  C   LIG    1       31.034 -17.563  10.234  0.00  0.00    +0.270 C 
ATOM     19  C   LIG    1       32.236 -18.297   9.664  0.00  0.00    +0.270 C 
ATOM     20  O   LIG    1       31.902 -19.664   9.387  0.00  0.00    -0.485 OA
ATOM     21  C   LIG    1       30.736 -19.742   8.668  0.00  0.00    +0.162 A 
ATOM     22  C   LIG    1       30.474 -20.934   7.999  0.00  0.00    +0.050 A 
ATOM     23  C   LIG    1       29.330 -21.051   7.197  0.00  0.00    +0.010 A 
ENDBRANCH  13  14
BRANCH  13  24
ATOM     24  O   LIG    1       27.689 -20.588   4.871  0.00  0.00    -0.385 OA
ATOM     25  H   LIG    1       27.454 -19.936   4.181  0.00  0.00    +0.210 HD
ENDBRANCH  13  24
ENDBRANCH   1  13
BRANCH   1  26
ATOM     26  C   LIG    1       26.375 -22.385   6.992  0.00  0.00    +0.109 C 
BRANCH  26  27
ATOM     27  N   LIG    1       25.565 -23.433   6.324  0.00  0.00    -0.300 NA
ATOM     28  C   LIG    1       26.259 -24.733   6.318  0.00  0.00    +0.084 C 
ATOM     29  C   LIG    1       25.165 -25.793   6.213  0.00  0.00    +0.017 C 
ATOM     30  C   LIG    1       23.860 -25.032   6.378  0.00  0.00    +0.017 C 
ATOM     31  C   LIG    1       24.279 -23.699   6.978  0.00  0.00    +0.084 C 
ENDBRANCH  26  27
ENDBRANCH   1  26
TORSDOF 12
ENDMDL
MODEL 8
REMARK VINA RESULT:      -7.3      2.151      7.964
REMARK  Name = *****
REMARK                            x       y       z     vdW  Elec       q    Type
REMARK                         _______ _______ _______ _____ _____    ______ ____
ROOT
ATOM      1  C   LIG    1       26.835 -20.774   7.232  0.00  0.00    +0.120 C 
ENDROOT
BRANCH   1   3
ATOM      2  C   LIG    1       26.172 -19.861   5.004  0.00  0.00    +0.213 C 
ATOM      3  N   LIG    1       25.830 -20.245   6.286  0.00  0.00    -0.308 N 
ATOM      4  H   LIG    1       24.854 -20.352   6.531  0.00  0.00    +0.149 HD
ATOM      5  O   LIG    1       27.319 -19.916   4.592  0.00  0.00    -0.276 OA
BRANCH   2   6
ATOM      6  C   LIG    1       24.991 -19.433   4.113  0.00  0.00    +0.096 C 
BRANCH   6   7
ATOM      7  C   LIG    1       23.679 -20.204   4.338  0.00  0.00    +0.009 C 
BRANCH   7   8
ATOM      8  C   LIG    1       22.620 -19.414   5.150  0.00  0.00    +0.000 C 
BRANCH   8   9
ATOM      9  C   LIG    1       21.941 -18.304   4.313  0.00  0.00    -0.000 C 
BRANCH   9  10
ATOM     10  C   LIG    1       22.210 -16.872   4.818  0.00  0.00    -0.000 C 
BRANCH  10  12
ATOM     11  C   LIG    1       23.499 -14.708   4.287  0.00  0.00    +0.004 C 
ATOM     12  C   LIG    1       23.474 -16.229   4.217  0.00  0.00    -0.003 C 
ENDBRANCH  10  12
ENDBRANCH   9  10
ENDBRANCH   8   9
ENDBRANCH   7   8
ENDBRANCH   6   7
ENDBRANCH   2   6
ENDBRANCH   1   3
BRANCH   1  13
ATOM     13  C   LIG    1       28.327 -20.663   6.717  0.00  0.00    +0.166 C 
BRANCH  13  14
ATOM     14  C   LIG    1       29.350 -20.051   7.663  0.00  0.00    -0.014 A 
ATOM     15  C   LIG    1       29.202 -18.740   8.144  0.00  0.00    +0.055 A 
ATOM     16  C   LIG    1       30.137 -18.184   9.021  0.00  0.00    +0.162 A 
ATOM     17  O   LIG    1       29.885 -16.908   9.457  0.00  0.00    -0.485 OA
ATOM     18  C   LIG    1       30.798 -16.486  10.477  0.00  0.00    +0.270 C 
ATOM     19  C   LIG    1       32.210 -16.960  10.178  0.00  0.00    +0.270 C 
ATOM     20  O   LIG    1       32.267 -18.393  10.175  0.00  0.00    -0.485 OA
ATOM     21  C   LIG    1       31.265 -18.916   9.398  0.00  0.00    +0.162 A 
ATOM     22  C   LIG    1       31.400 -20.238   8.981  0.00  0.00    +0.050 A 
ATOM     23  C   LIG    1       30.439 -20.807   8.133  0.00  0.00    +0.010 A 
ENDBRANCH  13  14
BRANCH  13  24
ATOM     24  O   LIG    1       28.860 -21.924   6.296  0.00  0.00    -0.385 OA
ATOM     25  H   LIG    1       28.113 -22.545   6.180  0.00  0.00    +0.210 HD
ENDBRANCH  13  24
ENDBRANCH   1  13
BRANCH   1  26
ATOM     26  C   LIG    1       26.501 -22.227   7.700  0.00  0.00    +0.109 C 
BRANCH  26  27
ATOM     27  N   LIG    1       25.611 -23.026   6.822  0.00  0.00    -0.300 NA
ATOM     28  C   LIG    1       25.987 -24.451   6.821  0.00  0.00    +0.084 C 
ATOM     29  C   LIG    1       24.721 -25.218   6.447  0.00  0.00    +0.017 C 
ATOM     30  C   LIG    1       23.611 -24.181   6.458  0.00  0.00    +0.017 C 
ATOM     31  C   LIG    1       24.202 -23.011   7.229  0.00  0.00    +0.084 C 
ENDBRANCH  26  27
ENDBRANCH   1  26
TORSDOF 12
ENDMDL
MODEL 9
REMARK VINA RESULT:      -7.3      2.604      5.820
REMARK  Name = *****
REMARK                            x       y       z     vdW  Elec       q    Type
REMARK                         _______ _______ _______ _____ _____    ______ ____
ROOT
ATOM      1  C   LIG    1       25.090 -21.772   5.557  0.00  0.00    +0.120 C 
ENDROOT
BRANCH   1   3
ATOM      2  C   LIG    1       23.465 -19.962   4.990  0.00  0.00    +0.213 C 
ATOM      3  N   LIG    1       24.497 -20.800   4.614  0.00  0.00    -0.308 N 
ATOM      4  H   LIG    1       24.991 -20.625   3.749  0.00  0.00    +0.149 HD
ATOM      5  O   LIG    1       22.975 -19.994   6.106  0.00  0.00    -0.276 OA
BRANCH   2   6
ATOM      6  C   LIG    1       23.034 -18.938   3.924  0.00  0.00    +0.096 C 
BRANCH   6   7
ATOM      7  C   LIG    1       21.828 -18.060   4.299  0.00  0.00    +0.009 C 
BRANCH   7   8
ATOM      8  C   LIG    1       22.219 -16.663   4.849  0.00  0.00    +0.000 C 
BRANCH   8   9
ATOM      9  C   LIG    1       23.529 -16.128   4.225  0.00  0.00    -0.000 C 
BRANCH   9  10
ATOM     10  C   LIG    1       23.659 -14.591   4.240  0.00  0.00    -0.000 C 
BRANCH  10  12
ATOM     11  C   LIG    1       26.073 -15.005   3.445  0.00  0.00    +0.004 C 
ATOM     12  C   LIG    1       25.117 -14.092   4.200  0.00  0.00    -0.003 C 
ENDBRANCH  10  12
ENDBRANCH   9  10
ENDBRANCH   8   9
ENDBRANCH   7   8
ENDBRANCH   6   7
ENDBRANCH   2   6
ENDBRANCH   1   3
BRANCH   1  13
ATOM     13  C   LIG    1       24.063 -22.834   6.121  0.00  0.00    +0.166 C 
BRANCH  13  14
ATOM     14  C   LIG    1       24.567 -24.255   6.326  0.00  0.00    -0.014 A 
ATOM     15  C   LIG    1       23.875 -25.356   5.797  0.00  0.00    +0.055 A 
ATOM     16  C   LIG    1       24.347 -26.659   5.978  0.00  0.00    +0.162 A 
ATOM     17  O   LIG    1       23.613 -27.663   5.396  0.00  0.00    -0.485 OA
ATOM     18  C   LIG    1       24.259 -28.938   5.488  0.00  0.00    +0.270 C 
ATOM     19  C   LIG    1       24.922 -29.120   6.844  0.00  0.00    +0.270 C 
ATOM     20  O   LIG    1       25.958 -28.146   7.029  0.00  0.00    -0.485 OA
ATOM     21  C   LIG    1       25.499 -26.888   6.732  0.00  0.00    +0.162 A 
ATOM     22  C   LIG    1       26.234 -25.807   7.213  0.00  0.00    +0.050 A 
ATOM     23  C   LIG    1       25.780 -24.499   6.996  0.00  0.00    +0.010 A 
ENDBRANCH  13  14
BRANCH  13  24
ATOM     24  O   LIG    1       23.471 -22.426   7.359  0.00  0.00    -0.385 OA
ATOM     25  H   LIG    1       22.571 -22.806   7.404  0.00  0.00    +0.210 HD
ENDBRANCH  13  24
ENDBRANCH   1  13
BRANCH   1  26
ATOM     26  C   LIG    1       25.876 -21.072   6.712  0.00  0.00    +0.109 C 
BRANCH  26  27
ATOM     27  N   LIG    1       27.352 -21.219   6.702  0.00  0.00    -0.300 NA
ATOM     28  C   LIG    1       28.012 -20.030   6.133  0.00  0.00    +0.084 C 
ATOM     29  C   LIG    1       29.419 -20.007   6.726  0.00  0.00    +0.017 C 
ATOM     30  C   LIG    1       29.419 -21.093   7.789  0.00  0.00    +0.017 C 
ATOM     31  C   LIG    1       27.945 -21.373   8.035  0.00  0.00    +0.084 C 
ENDBRANCH  26  27
ENDBRANCH   1  26
TORSDOF 12
ENDMDL
