MODEL 1
REMARK VINA RESULT:      -5.7      0.000      0.000
REMARK  Name = *****
REMARK                            x       y       z     vdW  Elec       q    Type
REMARK                         _______ _______ _______ _____ _____    ______ ____
ROOT
ATOM      1  C   LIG    1       25.187 -18.830   3.963  0.00  0.00    -0.017 A 
ATOM      2  C   LIG    1       25.733 -19.721   4.905  0.00  0.00    +0.015 A 
ATOM      3  C   LIG    1       24.923 -20.635   5.606  0.00  0.00    +0.019 A 
ATOM      4  C   LIG    1       23.551 -20.643   5.344  0.00  0.00    +0.122 A 
ATOM      5  C   LIG    1       22.989 -19.784   4.401  0.00  0.00    +0.046 A 
ATOM      6  C   LIG    1       23.810 -18.890   3.710  0.00  0.00    +0.010 A 
ENDROOT
BRANCH   4   7
ATOM      7  O   LIG    1       22.754 -21.525   6.022  0.00  0.00    -0.506 OA
ATOM      8  H   LIG    1       22.518 -21.132   6.885  0.00  0.00    +0.292 HD
ENDBRANCH   4   7
BRANCH   1   9
ATOM      9  C   LIG    1       26.078 -17.817   3.267  0.00  0.00    +0.158 C 
BRANCH   9  10
ATOM     10  O   LIG    1       27.360 -17.810   3.912  0.00  0.00    -0.386 OA
ATOM     11  H   LIG    1       27.425 -16.947   4.357  0.00  0.00    +0.210 HD
ENDBRANCH   9  10
BRANCH   9  12
ATOM     12  C   LIG    1       25.489 -16.382   3.273  0.00  0.00    +0.117 C 
BRANCH  12  13
ATOM     13  N   LIG    1       26.559 -15.359   3.210  0.00  0.00    -0.309 NA
ATOM     14  H   LIG    1       27.329 -15.684   3.798  0.00  0.00    +0.122 HD
BRANCH  13  16
ATOM     15  C   LIG    1       24.722 -14.086   4.170  0.00  0.00    +0.027 C 
ATOM     16  C   LIG    1       26.171 -13.999   3.647  0.00  0.00    +0.011 C 
ATOM     17  C   LIG    1       27.059 -13.496   4.797  0.00  0.00    +0.027 C 
ATOM     18  C   LIG    1       26.194 -12.994   2.481  0.00  0.00    +0.027 C 
ENDBRANCH  13  16
ENDBRANCH  12  13
ENDBRANCH   9  12
ENDBRANCH   1   9
BRANCH   3  19
ATOM     19  C   LIG    1       25.542 -21.549   6.635  0.00  0.00    +0.194 C 
BRANCH  19  20
ATOM     20  O   LIG    1       26.963 -21.510   6.579  0.00  0.00    -0.390 OA
ATOM     21  H   LIG    1       27.212 -22.011   5.781  0.00  0.00    +0.210 HD
ENDBRANCH  19  20
ENDBRANCH   3  19
TORSDOF 8
ENDMDL
MODEL 2
REMARK VINA RESULT:      -5.3      1.515      2.716
REMARK  Name = *****
REMARK                            x       y       z     vdW  Elec       q    Type
REMARK                         _______ _______ _______ _____ _____    ______ ____
ROOT
ATOM      1  C   LIG    1       25.286 -18.679   3.775  0.00  0.00    -0.017 A 
ATOM      2  C   LIG    1       24.005 -18.112   3.910  0.00  0.00    +0.015 A 
ATOM      3  C   LIG    1       22.888 -18.899   4.254  0.00  0.00    +0.019 A 
ATOM      4  C   LIG    1       23.078 -20.267   4.462  0.00  0.00    +0.122 A 
ATOM      5  C   LIG    1       24.340 -20.847   4.353  0.00  0.00    +0.046 A 
ATOM      6  C   LIG    1       25.438 -20.050   4.019  0.00  0.00    +0.010 A 
ENDROOT
BRANCH   4   7
ATOM      7  O   LIG    1       21.998 -21.040   4.793  0.00  0.00    -0.506 OA
ATOM      8  H   LIG    1       21.947 -21.102   5.767  0.00  0.00    +0.292 HD
ENDBRANCH   4   7
BRANCH   1   9
ATOM      9  C   LIG    1       26.459 -17.815   3.345  0.00  0.00    +0.158 C 
BRANCH   9  10
ATOM     10  O   LIG    1       27.560 -18.057   4.233  0.00  0.00    -0.386 OA
ATOM     11  H   LIG    1       27.185 -18.540   4.989  0.00  0.00    +0.210 HD
ENDBRANCH   9  10
BRANCH   9  12
ATOM     12  C   LIG    1       26.127 -16.300   3.334  0.00  0.00    +0.117 C 
BRANCH  12  13
ATOM     13  N   LIG    1       27.314 -15.485   3.685  0.00  0.00    -0.309 NA
ATOM     14  H   LIG    1       27.609 -15.762   4.623  0.00  0.00    +0.122 HD
BRANCH  13  16
ATOM     15  C   LIG    1       26.302 -13.655   4.928  0.00  0.00    +0.027 C 
ATOM     16  C   LIG    1       27.113 -14.019   3.666  0.00  0.00    +0.011 C 
ATOM     17  C   LIG    1       28.449 -13.260   3.728  0.00  0.00    +0.027 C 
ATOM     18  C   LIG    1       26.303 -13.567   2.437  0.00  0.00    +0.027 C 
ENDBRANCH  13  16
ENDBRANCH  12  13
ENDBRANCH   9  12
ENDBRANCH   1   9
BRANCH   3  19
ATOM     19  C   LIG    1       21.525 -18.260   4.354  0.00  0.00    +0.194 C 
BRANCH  19  20
ATOM     20  O   LIG    1       20.643 -18.753   3.352  0.00  0.00    -0.390 OA
ATOM     21  H   LIG    1       19.771 -18.363   3.550  0.00  0.00    +0.210 HD
ENDBRANCH  19  20
ENDBRANCH   3  19
TORSDOF 8
ENDMDL
MODEL 3
REMARK VINA RESULT:      -4.5      2.623      6.441
REMARK  Name = *****
REMARK                            x       y       z     vdW  Elec       q    Type
REMARK                         _______ _______ _______ _____ _____    ______ ____
ROOT
ATOM      1  C   LIG    1       25.022 -16.470   3.728  0.00  0.00    -0.017 A 
ATOM      2  C   LIG    1       25.998 -15.556   3.288  0.00  0.00    +0.015 A 
ATOM      3  C   LIG    1       25.749 -14.170   3.271  0.00  0.00    +0.019 A 
ATOM      4  C   LIG    1       24.504 -13.712   3.706  0.00  0.00    +0.122 A 
ATOM      5  C   LIG    1       23.528 -14.596   4.165  0.00  0.00    +0.046 A 
ATOM      6  C   LIG    1       23.795 -15.968   4.182  0.00  0.00    +0.010 A 
ENDROOT
BRANCH   4   7
ATOM      7  O   LIG    1       24.252 -12.368   3.691  0.00  0.00    -0.506 OA
ATOM      8  H   LIG    1       23.286 -12.233   3.636  0.00  0.00    +0.292 HD
ENDBRANCH   4   7
BRANCH   1   9
ATOM      9  C   LIG    1       25.298 -17.962   3.678  0.00  0.00    +0.158 C 
BRANCH   9  10
ATOM     10  O   LIG    1       26.220 -18.225   2.611  0.00  0.00    -0.386 OA
ATOM     11  H   LIG    1       26.029 -17.558   1.929  0.00  0.00    +0.210 HD
ENDBRANCH   9  10
BRANCH   9  12
ATOM     12  C   LIG    1       24.017 -18.813   3.475  0.00  0.00    +0.117 C 
BRANCH  12  13
ATOM     13  N   LIG    1       24.060 -20.053   4.284  0.00  0.00    -0.309 NA
ATOM     14  H   LIG    1       24.036 -20.843   3.636  0.00  0.00    +0.122 HD
BRANCH  13  16
ATOM     15  C   LIG    1       22.143 -18.907   5.250  0.00  0.00    +0.027 C 
ATOM     16  C   LIG    1       22.964 -20.214   5.267  0.00  0.00    +0.011 C 
ATOM     17  C   LIG    1       22.023 -21.368   4.884  0.00  0.00    +0.027 C 
ATOM     18  C   LIG    1       23.501 -20.419   6.695  0.00  0.00    +0.027 C 
ENDBRANCH  13  16
ENDBRANCH  12  13
ENDBRANCH   9  12
ENDBRANCH   1   9
BRANCH   3  19
ATOM     19  C   LIG    1       26.809 -13.226   2.758  0.00  0.00    +0.194 C 
BRANCH  19  20
ATOM     20  O   LIG    1       28.112 -13.639   3.153  0.00  0.00    -0.390 OA
ATOM     21  H   LIG    1       28.453 -12.929   3.728  0.00  0.00    +0.210 HD
ENDBRANCH  19  20
ENDBRANCH   3  19
TORSDOF 8
ENDMDL
MODEL 4
REMARK VINA RESULT:      -4.5      2.631      6.714
REMARK  Name = *****
REMARK                            x       y       z     vdW  Elec       q    Type
REMARK                         _______ _______ _______ _____ _____    ______ ____
ROOT
ATOM      1  C   LIG    1       26.787 -15.766   3.691  0.00  0.00    -0.017 A 
ATOM      2  C   LIG    1       27.808 -14.869   4.057  0.00  0.00    +0.015 A 
ATOM      3  C   LIG    1       27.791 -13.526   3.633  0.00  0.00    +0.019 A 
ATOM      4  C   LIG    1       26.730 -13.095   2.835  0.00  0.00    +0.122 A 
ATOM      5  C   LIG    1       25.696 -13.959   2.476  0.00  0.00    +0.046 A 
ATOM      6  C   LIG    1       25.726 -15.286   2.913  0.00  0.00    +0.010 A 
ENDROOT
BRANCH   4   7
ATOM      7  O   LIG    1       26.705 -11.792   2.416  0.00  0.00    -0.506 OA
ATOM      8  H   LIG    1       26.170 -11.738   1.600  0.00  0.00    +0.292 HD
ENDBRANCH   4   7
BRANCH   1   9
ATOM      9  C   LIG    1       26.865 -17.222   4.115  0.00  0.00    +0.158 C 
BRANCH   9  10
ATOM     10  O   LIG    1       28.224 -17.666   3.995  0.00  0.00    -0.386 OA
ATOM     11  H   LIG    1       28.735 -16.878   3.740  0.00  0.00    +0.210 HD
ENDBRANCH   9  10
BRANCH   9  12
ATOM     12  C   LIG    1       25.943 -18.149   3.281  0.00  0.00    +0.117 C 
BRANCH  12  13
ATOM     13  N   LIG    1       25.834 -19.493   3.893  0.00  0.00    -0.309 NA
ATOM     14  H   LIG    1       26.237 -20.164   3.236  0.00  0.00    +0.122 HD
BRANCH  13  16
ATOM     15  C   LIG    1       24.129 -21.133   3.321  0.00  0.00    +0.027 C 
ATOM     16  C   LIG    1       24.461 -19.932   4.233  0.00  0.00    +0.011 C 
ATOM     17  C   LIG    1       24.360 -20.406   5.692  0.00  0.00    +0.027 C 
ATOM     18  C   LIG    1       23.422 -18.829   3.960  0.00  0.00    +0.027 C 
ENDBRANCH  13  16
ENDBRANCH  12  13
ENDBRANCH   9  12
ENDBRANCH   1   9
BRANCH   3  19
ATOM     19  C   LIG    1       28.924 -12.606   4.017  0.00  0.00    +0.194 C 
BRANCH  19  20
ATOM     20  O   LIG    1       28.772 -12.116   5.344  0.00  0.00    -0.390 OA
ATOM     21  H   LIG    1       29.160 -11.222   5.344  0.00  0.00    +0.210 HD
ENDBRANCH  19  20
ENDBRANCH   3  19
TORSDOF 8
ENDMDL
MODEL 5
REMARK VINA RESULT:      -4.2      2.708      6.882
REMARK  Name = *****
REMARK                            x       y       z     vdW  Elec       q    Type
REMARK                         _______ _______ _______ _____ _____    ______ ____
ROOT
ATOM      1  C   LIG    1       26.811 -15.728   3.635  0.00  0.00    -0.017 A 
ATOM      2  C   LIG    1       25.729 -15.173   2.926  0.00  0.00    +0.015 A 
ATOM      3  C   LIG    1       25.723 -13.819   2.539  0.00  0.00    +0.019 A 
ATOM      4  C   LIG    1       26.824 -13.028   2.872  0.00  0.00    +0.122 A 
ATOM      5  C   LIG    1       27.917 -13.559   3.555  0.00  0.00    +0.046 A 
ATOM      6  C   LIG    1       27.909 -14.907   3.925  0.00  0.00    +0.010 A 
ENDROOT
BRANCH   4   7
ATOM      7  O   LIG    1       26.827 -11.710   2.503  0.00  0.00    -0.506 OA
ATOM      8  H   LIG    1       27.589 -11.555   1.911  0.00  0.00    +0.292 HD
ENDBRANCH   4   7
BRANCH   1   9
ATOM      9  C   LIG    1       26.761 -17.176   4.090  0.00  0.00    +0.158 C 
BRANCH   9  10
ATOM     10  O   LIG    1       28.087 -17.722   4.038  0.00  0.00    -0.386 OA
ATOM     11  H   LIG    1       28.633 -17.137   4.591  0.00  0.00    +0.210 HD
ENDBRANCH   9  10
BRANCH   9  12
ATOM     12  C   LIG    1       25.808 -18.051   3.235  0.00  0.00    +0.117 C 
BRANCH  12  13
ATOM     13  N   LIG    1       25.786 -19.452   3.715  0.00  0.00    -0.309 NA
ATOM     14  H   LIG    1       26.095 -20.046   2.943  0.00  0.00    +0.122 HD
BRANCH  13  16
ATOM     15  C   LIG    1       24.119 -21.186   3.350  0.00  0.00    +0.027 C 
ATOM     16  C   LIG    1       24.474 -19.944   4.195  0.00  0.00    +0.011 C 
ATOM     17  C   LIG    1       24.534 -20.377   5.669  0.00  0.00    +0.027 C 
ATOM     18  C   LIG    1       23.361 -18.900   3.993  0.00  0.00    +0.027 C 
ENDBRANCH  13  16
ENDBRANCH  12  13
ENDBRANCH   9  12
ENDBRANCH   1   9
BRANCH   3  19
ATOM     19  C   LIG    1       24.527 -13.254   1.813  0.00  0.00    +0.194 C 
BRANCH  19  20
ATOM     20  O   LIG    1       23.812 -12.330   2.625  0.00  0.00    -0.390 OA
ATOM     21  H   LIG    1       23.741 -12.747   3.503  0.00  0.00    +0.210 HD
ENDBRANCH  19  20
ENDBRANCH   3  19
TORSDOF 8
ENDMDL
MODEL 6
REMARK VINA RESULT:      -4.2      2.670      6.550
REMARK  Name = *****
REMARK                            x       y       z     vdW  Elec       q    Type
REMARK                         _______ _______ _______ _____ _____    ______ ____
ROOT
ATOM      1  C   LIG    1       25.895 -17.043   3.511  0.00  0.00    -0.017 A 
ATOM      2  C   LIG    1       24.811 -16.146   3.551  0.00  0.00    +0.015 A 
ATOM      3  C   LIG    1       25.011 -14.761   3.712  0.00  0.00    +0.019 A 
ATOM      4  C   LIG    1       26.319 -14.288   3.831  0.00  0.00    +0.122 A 
ATOM      5  C   LIG    1       27.410 -15.154   3.775  0.00  0.00    +0.046 A 
ATOM      6  C   LIG    1       27.193 -16.524   3.606  0.00  0.00    +0.010 A 
ENDROOT
BRANCH   4   7
ATOM      7  O   LIG    1       26.524 -12.944   3.990  0.00  0.00    -0.506 OA
ATOM      8  H   LIG    1       26.994 -12.606   3.204  0.00  0.00    +0.292 HD
ENDBRANCH   4   7
BRANCH   1   9
ATOM      9  C   LIG    1       25.644 -18.536   3.397  0.00  0.00    +0.158 C 
BRANCH   9  10
ATOM     10  O   LIG    1       26.043 -18.972   2.090  0.00  0.00    -0.386 OA
ATOM     11  H   LIG    1       26.484 -19.829   2.223  0.00  0.00    +0.210 HD
ENDBRANCH   9  10
BRANCH   9  12
ATOM     12  C   LIG    1       24.162 -18.925   3.641  0.00  0.00    +0.117 C 
BRANCH  12  13
ATOM     13  N   LIG    1       24.055 -20.188   4.408  0.00  0.00    -0.309 NA
ATOM     14  H   LIG    1       23.984 -20.952   3.732  0.00  0.00    +0.122 HD
BRANCH  13  16
ATOM     15  C   LIG    1       22.194 -18.908   5.311  0.00  0.00    +0.027 C 
ATOM     16  C   LIG    1       22.910 -20.275   5.341  0.00  0.00    +0.011 C 
ATOM     17  C   LIG    1       21.899 -21.347   4.903  0.00  0.00    +0.027 C 
ATOM     18  C   LIG    1       23.368 -20.537   6.788  0.00  0.00    +0.027 C 
ENDBRANCH  13  16
ENDBRANCH  12  13
ENDBRANCH   9  12
ENDBRANCH   1   9
BRANCH   3  19
ATOM     19  C   LIG    1       23.821 -13.837   3.786  0.00  0.00    +0.194 C 
BRANCH  19  20
ATOM     20  O   LIG    1       23.773 -12.957   2.669  0.00  0.00    -0.390 OA
ATOM     21  H   LIG    1       24.096 -13.474   1.908  0.00  0.00    +0.210 HD
ENDBRANCH  19  20
ENDBRANCH   3  19
TORSDOF 8
ENDMDL
MODEL 7
REMARK VINA RESULT:      -4.1      3.235      6.815
REMARK  Name = *****
REMARK                            x       y       z     vdW  Elec       q    Type
REMARK                         _______ _______ _______ _____ _____    ______ ____
ROOT
ATOM      1  C   LIG    1       23.770 -14.909   3.868  0.00  0.00    -0.017 A 
ATOM      2  C   LIG    1       25.138 -15.231   3.959  0.00  0.00    +0.015 A 
ATOM      3  C   LIG    1       26.131 -14.348   3.493  0.00  0.00    +0.019 A 
ATOM      4  C   LIG    1       25.731 -13.132   2.936  0.00  0.00    +0.122 A 
ATOM      5  C   LIG    1       24.384 -12.781   2.854  0.00  0.00    +0.046 A 
ATOM      6  C   LIG    1       23.412 -13.667   3.328  0.00  0.00    +0.010 A 
ENDROOT
BRANCH   4   7
ATOM      7  O   LIG    1       26.688 -12.268   2.478  0.00  0.00    -0.506 OA
ATOM      8  H   LIG    1       26.855 -12.460   1.535  0.00  0.00    +0.292 HD
ENDBRANCH   4   7
BRANCH   1   9
ATOM      9  C   LIG    1       22.721 -15.907   4.325  0.00  0.00    +0.158 C 
BRANCH   9  10
ATOM     10  O   LIG    1       22.367 -15.616   5.684  0.00  0.00    -0.386 OA
ATOM     11  H   LIG    1       22.158 -14.666   5.702  0.00  0.00    +0.210 HD
ENDBRANCH   9  10
BRANCH   9  12
ATOM     12  C   LIG    1       23.196 -17.380   4.219  0.00  0.00    +0.117 C 
BRANCH  12  13
ATOM     13  N   LIG    1       22.230 -18.305   4.858  0.00  0.00    -0.309 NA
ATOM     14  H   LIG    1       22.072 -17.973   5.811  0.00  0.00    +0.122 HD
BRANCH  13  16
ATOM     15  C   LIG    1       23.825 -19.893   3.933  0.00  0.00    +0.027 C 
ATOM     16  C   LIG    1       22.645 -19.725   4.914  0.00  0.00    +0.011 C 
ATOM     17  C   LIG    1       23.137 -20.118   6.317  0.00  0.00    +0.027 C 
ATOM     18  C   LIG    1       21.517 -20.670   4.463  0.00  0.00    +0.027 C 
ENDBRANCH  13  16
ENDBRANCH  12  13
ENDBRANCH   9  12
ENDBRANCH   1   9
BRANCH   3  19
ATOM     19  C   LIG    1       27.584 -14.746   3.575  0.00  0.00    +0.194 C 
BRANCH  19  20
ATOM     20  O   LIG    1       28.395 -13.670   4.030  0.00  0.00    -0.390 OA
ATOM     21  H   LIG    1       29.195 -14.081   4.407  0.00  0.00    +0.210 HD
ENDBRANCH  19  20
ENDBRANCH   3  19
TORSDOF 8
ENDMDL
MODEL 8
REMARK VINA RESULT:      -3.9      1.771      2.947
REMARK  Name = *****
REMARK                            x       y       z     vdW  Elec       q    Type
REMARK                         _______ _______ _______ _____ _____    ______ ____
ROOT
ATOM      1  C   LIG    1       26.895 -17.202   3.803  0.00  0.00    -0.017 A 
ATOM      2  C   LIG    1       25.640 -17.741   3.465  0.00  0.00    +0.015 A 
ATOM      3  C   LIG    1       25.277 -19.047   3.847  0.00  0.00    +0.019 A 
ATOM      4  C   LIG    1       26.194 -19.805   4.578  0.00  0.00    +0.122 A 
ATOM      5  C   LIG    1       27.435 -19.286   4.942  0.00  0.00    +0.046 A 
ATOM      6  C   LIG    1       27.776 -17.985   4.560  0.00  0.00    +0.010 A 
ENDROOT
BRANCH   4   7
ATOM      7  O   LIG    1       25.852 -21.076   4.952  0.00  0.00    -0.506 OA
ATOM      8  H   LIG    1       25.392 -21.034   5.812  0.00  0.00    +0.292 HD
ENDBRANCH   4   7
BRANCH   1   9
ATOM      9  C   LIG    1       27.280 -15.813   3.325  0.00  0.00    +0.158 C 
BRANCH   9  10
ATOM     10  O   LIG    1       27.991 -15.143   4.376  0.00  0.00    -0.386 OA
ATOM     11  H   LIG    1       27.322 -14.926   5.048  0.00  0.00    +0.210 HD
ENDBRANCH   9  10
BRANCH   9  12
ATOM     12  C   LIG    1       26.060 -14.955   2.898  0.00  0.00    +0.117 C 
BRANCH  12  13
ATOM     13  N   LIG    1       25.903 -13.769   3.772  0.00  0.00    -0.309 NA
ATOM     14  H   LIG    1       26.255 -14.021   4.698  0.00  0.00    +0.122 HD
BRANCH  13  16
ATOM     15  C   LIG    1       23.623 -14.466   4.255  0.00  0.00    +0.027 C 
ATOM     16  C   LIG    1       24.521 -13.258   3.915  0.00  0.00    +0.011 C 
ATOM     17  C   LIG    1       24.406 -12.244   5.065  0.00  0.00    +0.027 C 
ATOM     18  C   LIG    1       24.002 -12.635   2.606  0.00  0.00    +0.027 C 
ENDBRANCH  13  16
ENDBRANCH  12  13
ENDBRANCH   9  12
ENDBRANCH   1   9
BRANCH   3  19
ATOM     19  C   LIG    1       23.936 -19.602   3.434  0.00  0.00    +0.194 C 
BRANCH  19  20
ATOM     20  O   LIG    1       23.257 -20.200   4.532  0.00  0.00    -0.390 OA
ATOM     21  H   LIG    1       23.949 -20.618   5.077  0.00  0.00    +0.210 HD
ENDBRANCH  19  20
ENDBRANCH   3  19
TORSDOF 8
ENDMDL
MODEL 9
REMARK VINA RESULT:      -3.9      1.928      2.488
REMARK  Name = *****
REMARK                            x       y       z     vdW  Elec       q    Type
REMARK                         _______ _______ _______ _____ _____    ______ ____
ROOT
ATOM      1  C   LIG    1       23.889 -16.771   4.094  0.00  0.00    -0.017 A 
ATOM      2  C   LIG    1       24.647 -17.911   3.766  0.00  0.00    +0.015 A 
ATOM      3  C   LIG    1       24.112 -19.207   3.891  0.00  0.00    +0.019 A 
ATOM      4  C   LIG    1       22.800 -19.344   4.350  0.00  0.00    +0.122 A 
ATOM      5  C   LIG    1       22.023 -18.230   4.663  0.00  0.00    +0.046 A 
ATOM      6  C   LIG    1       22.568 -16.950   4.525  0.00  0.00    +0.010 A 
ENDROOT
BRANCH   4   7
ATOM      7  O   LIG    1       22.272 -20.600   4.479  0.00  0.00    -0.506 OA
ATOM      8  H   LIG    1       22.253 -20.834   5.427  0.00  0.00    +0.292 HD
ENDBRANCH   4   7
BRANCH   1   9
ATOM      9  C   LIG    1       24.514 -15.390   4.005  0.00  0.00    +0.158 C 
BRANCH   9  10
ATOM     10  O   LIG    1       23.492 -14.442   3.668  0.00  0.00    -0.386 OA
ATOM     11  H   LIG    1       23.716 -13.630   4.155  0.00  0.00    +0.210 HD
ENDBRANCH   9  10
BRANCH   9  12
ATOM     12  C   LIG    1       25.661 -15.306   2.964  0.00  0.00    +0.117 C 
BRANCH  12  13
ATOM     13  N   LIG    1       26.962 -15.028   3.616  0.00  0.00    -0.309 NA
ATOM     14  H   LIG    1       26.980 -15.543   4.499  0.00  0.00    +0.122 HD
BRANCH  13  16
ATOM     15  C   LIG    1       26.470 -12.771   2.852  0.00  0.00    +0.027 C 
ATOM     16  C   LIG    1       27.246 -13.602   3.896  0.00  0.00    +0.011 C 
ATOM     17  C   LIG    1       26.752 -13.187   5.292  0.00  0.00    +0.027 C 
ATOM     18  C   LIG    1       28.742 -13.275   3.744  0.00  0.00    +0.027 C 
ENDBRANCH  13  16
ENDBRANCH  12  13
ENDBRANCH   9  12
ENDBRANCH   1   9
BRANCH   3  19
ATOM     19  C   LIG    1       24.969 -20.405   3.563  0.00  0.00    +0.194 C 
BRANCH  19  20
ATOM     20  O   LIG    1       26.206 -20.370   4.264  0.00  0.00    -0.390 OA
ATOM     21  H   LIG    1       25.975 -20.349   5.211  0.00  0.00    +0.210 HD
ENDBRANCH  19  20
ENDBRANCH   3  19
TORSDOF 8
ENDMDL
