MODEL 1
REMARK VINA RESULT:       3.3      0.000      0.000
REMARK  Name = *****
REMARK                            x       y       z     vdW  Elec       q    Type
REMARK                         _______ _______ _______ _____ _____    ______ ____
ROOT
ATOM      1  C   LIG    1       23.512 -20.114   6.300  0.00  0.00    +0.044 C 
ATOM      2  C   LIG    1       22.732 -21.429   6.074  0.00  0.00    +0.122 C 
ATOM      3  C   LIG    1       22.144 -21.306   4.662  0.00  0.00    +0.036 C 
ATOM      4  C   LIG    1       21.926 -19.801   4.436  0.00  0.00    -0.001 C 
ATOM      5  C   LIG    1       22.671 -19.209   3.237  0.00  0.00    +0.034 C 
ATOM      6  C   LIG    1       23.193 -17.890   3.741  0.00  0.00    -0.073 C 
ATOM      7  C   LIG    1       23.711 -16.942   2.945  0.00  0.00    -0.027 C 
ATOM      8  C   LIG    1       23.009 -17.751   5.224  0.00  0.00    +0.035 C 
ATOM      9  C   LIG    1       22.508 -19.107   5.678  0.00  0.00    +0.006 C 
ENDROOT
BRANCH   1  11
ATOM     10  C   LIG    1       25.996 -20.749   6.294  0.00  0.00    +0.000 C 
ATOM     11  C   LIG    1       24.915 -20.202   5.696  0.00  0.00    -0.022 C 
BRANCH  10  12
ATOM     12  C   LIG    1       27.367 -20.870   5.638  0.00  0.00    +0.141 C 
BRANCH  12  13
ATOM     13  C   LIG    1       28.581 -20.365   6.471  0.00  0.00    +0.030 C 
ATOM     14  C   LIG    1       29.448 -21.483   7.062  0.00  0.00    +0.011 C 
BRANCH  13  15
ATOM     15  C   LIG    1       29.464 -19.365   5.680  0.00  0.00    +0.095 C 
BRANCH  15  18
ATOM     16  C   LIG    1       27.347 -16.295   3.890  0.00  0.00    +0.106 C 
ATOM     17  C   LIG    1       28.088 -17.367   4.537  0.00  0.00    -0.106 C 
ATOM     18  C   LIG    1       28.704 -18.278   5.061  0.00  0.00    -0.102 C 
ENDBRANCH  15  18
ENDBRANCH  13  15
ENDBRANCH  12  13
BRANCH  12  19
ATOM     19  O   LIG    1       27.340 -20.103   4.430  0.00  0.00    -0.388 OA
ATOM     20  H   LIG    1       26.889 -19.262   4.610  0.00  0.00    +0.210 HD
ENDBRANCH  12  19
ENDBRANCH  10  12
ENDBRANCH   1  11
BRANCH   2  21
ATOM     21  O   LIG    1       21.680 -21.571   7.034  0.00  0.00    -0.391 OA
ATOM     22  H   LIG    1       21.835 -20.957   7.773  0.00  0.00    +0.210 HD
ENDBRANCH   2  21
BRANCH   7  23
ATOM     23  C   LIG    1       24.197 -15.595   3.408  0.00  0.00    +0.028 C 
BRANCH  23  24
ATOM     24  C   LIG    1       23.135 -14.820   4.191  0.00  0.00    +0.015 C 
BRANCH  24  25
ATOM     25  C   LIG    1       23.750 -13.812   5.158  0.00  0.00    +0.121 C 
BRANCH  25  26
ATOM     26  C   LIG    1       23.949 -12.468   4.513  0.00  0.00    +0.307 C 
ATOM     27  O   LIG    1       24.301 -11.448   5.090  0.00  0.00    -0.251 OA
BRANCH  26  28
ATOM     28  O   LIG    1       23.734 -12.577   3.171  0.00  0.00    -0.457 OA
BRANCH  28  29
ATOM     29  C   LIG    1       24.863 -12.221   2.379  0.00  0.00    +0.311 C 
BRANCH  29  30
ATOM     30  C   LIG    1       25.998 -13.236   2.515  0.00  0.00    +0.200 C 
ATOM     31  O   LIG    1       26.048 -14.265   1.840  0.00  0.00    -0.288 OA
BRANCH  30  32
ATOM     32  C   LIG    1       27.040 -12.994   3.549  0.00  0.00    +0.021 A 
ATOM     33  C   LIG    1       26.853 -13.392   4.877  0.00  0.00    +0.011 A 
ATOM     34  C   LIG    1       27.839 -13.146   5.829  0.00  0.00    +0.001 A 
ATOM     35  C   LIG    1       29.011 -12.488   5.465  0.00  0.00    +0.000 A 
ATOM     36  C   LIG    1       29.202 -12.076   4.147  0.00  0.00    +0.001 A 
ATOM     37  C   LIG    1       28.217 -12.325   3.186  0.00  0.00    +0.011 A 
ENDBRANCH  30  32
ENDBRANCH  29  30
ENDBRANCH  28  29
ENDBRANCH  26  28
ENDBRANCH  25  26
ENDBRANCH  24  25
ENDBRANCH  23  24
ENDBRANCH   7  23
TORSDOF 15
ENDMDL
MODEL 2
REMARK VINA RESULT:       5.6      1.022      2.027
REMARK  Name = *****
REMARK                            x       y       z     vdW  Elec       q    Type
REMARK                         _______ _______ _______ _____ _____    ______ ____
ROOT
ATOM      1  C   LIG    1       23.523 -19.667   6.098  0.00  0.00    +0.044 C 
ATOM      2  C   LIG    1       23.098 -21.145   5.943  0.00  0.00    +0.122 C 
ATOM      3  C   LIG    1       22.255 -21.183   4.661  0.00  0.00    +0.036 C 
ATOM      4  C   LIG    1       21.603 -19.795   4.554  0.00  0.00    -0.001 C 
ATOM      5  C   LIG    1       21.933 -19.019   3.276  0.00  0.00    +0.034 C 
ATOM      6  C   LIG    1       22.163 -17.608   3.751  0.00  0.00    -0.073 C 
ATOM      7  C   LIG    1       22.255 -16.552   2.927  0.00  0.00    -0.027 C 
ATOM      8  C   LIG    1       22.218 -17.529   5.248  0.00  0.00    +0.035 C 
ATOM      9  C   LIG    1       22.191 -18.971   5.711  0.00  0.00    +0.006 C 
ENDROOT
BRANCH   1  11
ATOM     10  C   LIG    1       25.164 -20.056   4.166  0.00  0.00    +0.000 C 
ATOM     11  C   LIG    1       24.766 -19.366   5.257  0.00  0.00    -0.022 C 
BRANCH  10  12
ATOM     12  C   LIG    1       26.378 -19.691   3.319  0.00  0.00    +0.141 C 
BRANCH  12  13
ATOM     13  C   LIG    1       26.838 -18.205   3.370  0.00  0.00    +0.030 C 
ATOM     14  C   LIG    1       25.708 -17.206   3.650  0.00  0.00    +0.011 C 
BRANCH  13  15
ATOM     15  C   LIG    1       28.007 -17.982   4.365  0.00  0.00    +0.095 C 
BRANCH  15  18
ATOM     16  C   LIG    1       28.524 -21.080   7.057  0.00  0.00    +0.106 C 
ATOM     17  C   LIG    1       28.356 -19.999   6.099  0.00  0.00    -0.106 C 
ATOM     18  C   LIG    1       28.193 -19.090   5.304  0.00  0.00    -0.102 C 
ENDBRANCH  15  18
ENDBRANCH  13  15
ENDBRANCH  12  13
BRANCH  12  19
ATOM     19  O   LIG    1       26.061 -19.984   1.955  0.00  0.00    -0.388 OA
ATOM     20  H   LIG    1       25.096 -20.068   1.874  0.00  0.00    +0.210 HD
ENDBRANCH  12  19
ENDBRANCH  10  12
ENDBRANCH   1  11
BRANCH   2  21
ATOM     21  O   LIG    1       22.314 -21.571   7.061  0.00  0.00    -0.391 OA
ATOM     22  H   LIG    1       22.271 -20.853   7.715  0.00  0.00    +0.210 HD
ENDBRANCH   2  21
BRANCH   7  23
ATOM     23  C   LIG    1       22.436 -15.125   3.369  0.00  0.00    +0.028 C 
BRANCH  23  24
ATOM     24  C   LIG    1       23.587 -14.954   4.363  0.00  0.00    +0.015 C 
BRANCH  24  25
ATOM     25  C   LIG    1       23.385 -13.752   5.280  0.00  0.00    +0.121 C 
BRANCH  25  26
ATOM     26  C   LIG    1       23.776 -12.464   4.609  0.00  0.00    +0.307 C 
ATOM     27  O   LIG    1       24.158 -11.452   5.181  0.00  0.00    -0.251 OA
BRANCH  26  28
ATOM     28  O   LIG    1       23.698 -12.620   3.257  0.00  0.00    -0.457 OA
BRANCH  28  29
ATOM     29  C   LIG    1       24.862 -12.184   2.562  0.00  0.00    +0.311 C 
BRANCH  29  30
ATOM     30  C   LIG    1       25.972 -13.234   2.592  0.00  0.00    +0.200 C 
ATOM     31  O   LIG    1       25.968 -14.219   1.851  0.00  0.00    -0.288 OA
BRANCH  30  32
ATOM     32  C   LIG    1       27.055 -13.086   3.599  0.00  0.00    +0.021 A 
ATOM     33  C   LIG    1       26.841 -13.391   4.948  0.00  0.00    +0.011 A 
ATOM     34  C   LIG    1       27.869 -13.235   5.875  0.00  0.00    +0.001 A 
ATOM     35  C   LIG    1       29.112 -12.761   5.464  0.00  0.00    +0.000 A 
ATOM     36  C   LIG    1       29.332 -12.442   4.125  0.00  0.00    +0.001 A 
ATOM     37  C   LIG    1       28.305 -12.601   3.190  0.00  0.00    +0.011 A 
ENDBRANCH  30  32
ENDBRANCH  29  30
ENDBRANCH  28  29
ENDBRANCH  26  28
ENDBRANCH  25  26
ENDBRANCH  24  25
ENDBRANCH  23  24
ENDBRANCH   7  23
TORSDOF 15
ENDMDL
MODEL 3
REMARK VINA RESULT:       6.2      1.649      5.146
REMARK  Name = *****
REMARK                            x       y       z     vdW  Elec       q    Type
REMARK                         _______ _______ _______ _____ _____    ______ ____
ROOT
ATOM      1  C   LIG    1       23.115 -20.400   3.825  0.00  0.00    +0.044 C 
ATOM      2  C   LIG    1       21.626 -20.394   4.236  0.00  0.00    +0.122 C 
ATOM      3  C   LIG    1       21.635 -20.519   5.766  0.00  0.00    +0.036 C 
ATOM      4  C   LIG    1       22.906 -21.314   6.106  0.00  0.00    -0.001 C 
ATOM      5  C   LIG    1       23.895 -20.595   7.028  0.00  0.00    +0.034 C 
ATOM      6  C   LIG    1       25.244 -20.903   6.435  0.00  0.00    -0.073 C 
ATOM      7  C   LIG    1       26.405 -20.657   7.060  0.00  0.00    -0.027 C 
ATOM      8  C   LIG    1       25.121 -21.566   5.094  0.00  0.00    +0.035 C 
ATOM      9  C   LIG    1       23.642 -21.511   4.772  0.00  0.00    +0.006 C 
ENDROOT
BRANCH   1  11
ATOM     10  C   LIG    1       23.131 -17.936   4.537  0.00  0.00    +0.000 C 
ATOM     11  C   LIG    1       23.721 -18.999   3.947  0.00  0.00    -0.022 C 
BRANCH  10  12
ATOM     12  C   LIG    1       23.790 -16.570   4.691  0.00  0.00    +0.141 C 
BRANCH  12  13
ATOM     13  C   LIG    1       22.851 -15.333   4.584  0.00  0.00    +0.030 C 
ATOM     14  C   LIG    1       23.186 -14.202   5.565  0.00  0.00    +0.011 C 
BRANCH  13  15
ATOM     15  C   LIG    1       22.767 -14.778   3.138  0.00  0.00    +0.095 C 
BRANCH  15  18
ATOM     16  C   LIG    1       25.195 -11.484   2.536  0.00  0.00    +0.106 C 
ATOM     17  C   LIG    1       24.334 -12.641   2.729  0.00  0.00    -0.106 C 
ATOM     18  C   LIG    1       23.628 -13.617   2.907  0.00  0.00    -0.102 C 
ENDBRANCH  15  18
ENDBRANCH  13  15
ENDBRANCH  12  13
BRANCH  12  19
ATOM     19  O   LIG    1       24.771 -16.441   3.657  0.00  0.00    -0.388 OA
ATOM     20  H   LIG    1       24.327 -16.533   2.798  0.00  0.00    +0.210 HD
ENDBRANCH  12  19
ENDBRANCH  10  12
ENDBRANCH   1  11
BRANCH   2  21
ATOM     21  O   LIG    1       20.931 -21.501   3.656  0.00  0.00    -0.391 OA
ATOM     22  H   LIG    1       21.056 -21.489   2.692  0.00  0.00    +0.210 HD
ENDBRANCH   2  21
BRANCH   7  23
ATOM     23  C   LIG    1       27.768 -20.996   6.519  0.00  0.00    +0.028 C 
BRANCH  23  24
ATOM     24  C   LIG    1       28.024 -20.388   5.138  0.00  0.00    +0.015 C 
BRANCH  24  25
ATOM     25  C   LIG    1       28.607 -18.981   5.225  0.00  0.00    +0.121 C 
BRANCH  25  26
ATOM     26  C   LIG    1       27.856 -18.010   4.355  0.00  0.00    +0.307 C 
ATOM     27  O   LIG    1       26.741 -18.191   3.886  0.00  0.00    -0.251 OA
BRANCH  26  28
ATOM     28  O   LIG    1       28.589 -16.868   4.222  0.00  0.00    -0.457 OA
BRANCH  28  29
ATOM     29  C   LIG    1       28.371 -16.189   2.989  0.00  0.00    +0.311 C 
BRANCH  29  30
ATOM     30  C   LIG    1       27.288 -15.116   3.112  0.00  0.00    +0.200 C 
ATOM     31  O   LIG    1       26.286 -15.105   2.397  0.00  0.00    -0.288 OA
BRANCH  30  32
ATOM     32  C   LIG    1       27.495 -14.015   4.089  0.00  0.00    +0.021 A 
ATOM     33  C   LIG    1       28.638 -13.208   4.045  0.00  0.00    +0.011 A 
ATOM     34  C   LIG    1       28.814 -12.188   4.977  0.00  0.00    +0.001 A 
ATOM     35  C   LIG    1       27.859 -11.977   5.968  0.00  0.00    +0.000 A 
ATOM     36  C   LIG    1       26.723 -12.784   6.029  0.00  0.00    +0.001 A 
ATOM     37  C   LIG    1       26.540 -13.805   5.092  0.00  0.00    +0.011 A 
ENDBRANCH  30  32
ENDBRANCH  29  30
ENDBRANCH  28  29
ENDBRANCH  26  28
ENDBRANCH  25  26
ENDBRANCH  24  25
ENDBRANCH  23  24
ENDBRANCH   7  23
TORSDOF 15
ENDMDL
MODEL 4
REMARK VINA RESULT:       6.3      2.007      5.671
REMARK  Name = *****
REMARK                            x       y       z     vdW  Elec       q    Type
REMARK                         _______ _______ _______ _____ _____    ______ ____
ROOT
ATOM      1  C   LIG    1       28.466 -15.107   3.658  0.00  0.00    +0.044 C 
ATOM      2  C   LIG    1       28.346 -13.718   4.324  0.00  0.00    +0.122 C 
ATOM      3  C   LIG    1       26.976 -13.726   5.016  0.00  0.00    +0.036 C 
ATOM      4  C   LIG    1       26.095 -14.664   4.175  0.00  0.00    -0.001 C 
ATOM      5  C   LIG    1       25.513 -15.861   4.932  0.00  0.00    +0.034 C 
ATOM      6  C   LIG    1       25.659 -17.011   3.971  0.00  0.00    -0.073 C 
ATOM      7  C   LIG    1       25.070 -18.204   4.144  0.00  0.00    -0.027 C 
ATOM      8  C   LIG    1       26.494 -16.637   2.781  0.00  0.00    +0.035 C 
ATOM      9  C   LIG    1       27.024 -15.254   3.102  0.00  0.00    +0.006 C 
ENDROOT
BRANCH   1  11
ATOM     10  C   LIG    1       28.719 -17.479   4.600  0.00  0.00    +0.000 C 
ATOM     11  C   LIG    1       28.964 -16.152   4.660  0.00  0.00    -0.022 C 
BRANCH  10  12
ATOM     12  C   LIG    1       29.280 -18.498   5.585  0.00  0.00    +0.141 C 
BRANCH  12  13
ATOM     13  C   LIG    1       28.410 -19.761   5.847  0.00  0.00    +0.030 C 
ATOM     14  C   LIG    1       29.212 -21.060   5.991  0.00  0.00    +0.011 C 
BRANCH  13  15
ATOM     15  C   LIG    1       27.460 -19.583   7.060  0.00  0.00    +0.095 C 
BRANCH  15  18
ATOM     16  C   LIG    1       23.851 -21.570   6.693  0.00  0.00    +0.106 C 
ATOM     17  C   LIG    1       25.129 -20.887   6.815  0.00  0.00    -0.106 C 
ATOM     18  C   LIG    1       26.188 -20.295   6.915  0.00  0.00    -0.102 C 
ENDBRANCH  15  18
ENDBRANCH  13  15
ENDBRANCH  12  13
BRANCH  12  19
ATOM     19  O   LIG    1       29.449 -17.838   6.844  0.00  0.00    -0.388 OA
ATOM     20  H   LIG    1       30.395 -17.833   7.064  0.00  0.00    +0.210 HD
ENDBRANCH  12  19
ENDBRANCH  10  12
ENDBRANCH   1  11
BRANCH   2  21
ATOM     21  O   LIG    1       28.398 -12.676   3.346  0.00  0.00    -0.391 OA
ATOM     22  H   LIG    1       27.496 -12.365   3.160  0.00  0.00    +0.210 HD
ENDBRANCH   2  21
BRANCH   7  23
ATOM     23  C   LIG    1       25.155 -19.358   3.181  0.00  0.00    +0.028 C 
BRANCH  23  24
ATOM     24  C   LIG    1       23.795 -20.004   2.910  0.00  0.00    +0.015 C 
BRANCH  24  25
ATOM     25  C   LIG    1       22.892 -19.990   4.140  0.00  0.00    +0.121 C 
BRANCH  25  26
ATOM     26  C   LIG    1       22.004 -18.777   4.169  0.00  0.00    +0.307 C 
ATOM     27  O   LIG    1       20.785 -18.785   4.073  0.00  0.00    -0.251 OA
BRANCH  26  28
ATOM     28  O   LIG    1       22.769 -17.667   4.380  0.00  0.00    -0.457 OA
BRANCH  28  29
ATOM     29  C   LIG    1       22.157 -16.458   3.938  0.00  0.00    +0.311 C 
BRANCH  29  30
ATOM     30  C   LIG    1       22.414 -15.302   4.905  0.00  0.00    +0.200 C 
ATOM     31  O   LIG    1       22.051 -15.332   6.081  0.00  0.00    -0.288 OA
BRANCH  30  32
ATOM     32  C   LIG    1       23.069 -14.076   4.378  0.00  0.00    +0.021 A 
ATOM     33  C   LIG    1       23.397 -13.007   5.220  0.00  0.00    +0.011 A 
ATOM     34  C   LIG    1       24.001 -11.864   4.700  0.00  0.00    +0.001 A 
ATOM     35  C   LIG    1       24.268 -11.775   3.337  0.00  0.00    +0.000 A 
ATOM     36  C   LIG    1       23.934 -12.829   2.487  0.00  0.00    +0.001 A 
ATOM     37  C   LIG    1       23.332 -13.980   3.005  0.00  0.00    +0.011 A 
ENDBRANCH  30  32
ENDBRANCH  29  30
ENDBRANCH  28  29
ENDBRANCH  26  28
ENDBRANCH  25  26
ENDBRANCH  24  25
ENDBRANCH  23  24
ENDBRANCH   7  23
TORSDOF 15
ENDMDL
