MODEL 1
REMARK VINA RESULT:       9.5      0.000      0.000
REMARK  Name = *****
REMARK                            x       y       z     vdW  Elec       q    Type
REMARK                         _______ _______ _______ _____ _____    ______ ____
ROOT
ATOM      1  C   LIG    1       24.595 -16.520   3.071  0.00  0.00    +0.131 C 
ATOM      2  C   LIG    1       23.482 -15.700   3.780  0.00  0.00    +0.280 C 
ATOM      3  C   LIG    1       23.504 -14.198   3.408  0.00  0.00    +0.262 C 
ATOM      4  O   LIG    1       22.730 -13.760   2.551  0.00  0.00    -0.271 OA
ATOM      5  N   LIG    1       24.379 -13.361   4.115  0.00  0.00    -0.266 N 
ATOM      6  C   LIG    1       25.578 -13.829   4.743  0.00  0.00    +0.050 A 
ATOM      7  C   LIG    1       26.453 -14.742   4.123  0.00  0.00    +0.030 A 
ATOM      8  C   LIG    1       27.700 -15.017   4.711  0.00  0.00    +0.016 A 
ATOM      9  C   LIG    1       28.043 -14.473   5.947  0.00  0.00    +0.001 A 
ATOM     10  C   LIG    1       27.152 -13.626   6.596  0.00  0.00    +0.002 A 
ATOM     11  C   LIG    1       25.940 -13.285   5.987  0.00  0.00    +0.024 A 
ATOM     12  S   LIG    1       26.111 -15.576   2.587  0.00  0.00    -0.111 S 
ENDROOT
BRANCH   1  16
ATOM     13  C   LIG    1       25.628 -20.342   4.946  0.00  0.00    +0.120 A 
ATOM     14  C   LIG    1       26.600 -19.392   4.660  0.00  0.00    +0.046 A 
ATOM     15  C   LIG    1       26.260 -18.183   4.059  0.00  0.00    +0.008 A 
ATOM     16  C   LIG    1       24.941 -17.867   3.717  0.00  0.00    -0.030 A 
ATOM     17  C   LIG    1       23.960 -18.837   3.994  0.00  0.00    +0.008 A 
ATOM     18  C   LIG    1       24.303 -20.063   4.603  0.00  0.00    +0.046 A 
BRANCH  13  20
ATOM     19  C   LIG    1       26.641 -21.470   6.761  0.00  0.00    +0.277 C 
ATOM     20  O   LIG    1       25.884 -21.546   5.551  0.00  0.00    -0.495 OA
ENDBRANCH  13  20
ENDBRANCH   1  16
BRANCH   2  21
ATOM     21  O   LIG    1       23.435 -15.852   5.218  0.00  0.00    -0.451 OA
BRANCH  21  22
ATOM     22  C   LIG    1       22.176 -16.065   5.709  0.00  0.00    +0.305 C 
ATOM     23  O   LIG    1       21.677 -15.473   6.645  0.00  0.00    -0.251 OA
ATOM     24  C   LIG    1       21.435 -17.106   4.921  0.00  0.00    +0.136 C 
ENDBRANCH  21  22
ENDBRANCH   2  21
BRANCH   5  25
ATOM     25  C   LIG    1       24.317 -11.904   3.852  0.00  0.00    +0.129 C 
BRANCH  25  26
ATOM     26  C   LIG    1       24.699 -11.513   2.404  0.00  0.00    +0.103 C 
BRANCH  26  27
ATOM     27  N   LIG    1       26.044 -11.960   1.963  0.00  0.00    -0.307 NA
ATOM     28  C   LIG    1       26.156 -13.411   1.815  0.00  0.00    +0.104 C 
ATOM     29  C   LIG    1       27.066 -11.485   2.901  0.00  0.00    +0.104 C 
ENDBRANCH  26  27
ENDBRANCH  25  26
ENDBRANCH   5  25
TORSDOF 7
ENDMDL
MODEL 2
REMARK VINA RESULT:      11.1      2.115      3.198
REMARK  Name = *****
REMARK                            x       y       z     vdW  Elec       q    Type
REMARK                         _______ _______ _______ _____ _____    ______ ____
ROOT
ATOM      1  C   LIG    1       25.430 -17.701   2.900  0.00  0.00    +0.131 C 
ATOM      2  C   LIG    1       25.182 -16.217   3.288  0.00  0.00    +0.280 C 
ATOM      3  C   LIG    1       26.334 -15.277   2.861  0.00  0.00    +0.262 C 
ATOM      4  O   LIG    1       26.238 -14.609   1.827  0.00  0.00    -0.271 OA
ATOM      5  N   LIG    1       27.442 -15.171   3.714  0.00  0.00    -0.266 N 
ATOM      6  C   LIG    1       27.833 -16.202   4.627  0.00  0.00    +0.050 A 
ATOM      7  C   LIG    1       27.842 -17.566   4.274  0.00  0.00    +0.030 A 
ATOM      8  C   LIG    1       28.410 -18.506   5.150  0.00  0.00    +0.016 A 
ATOM      9  C   LIG    1       28.879 -18.123   6.404  0.00  0.00    +0.001 A 
ATOM     10  C   LIG    1       28.808 -16.787   6.785  0.00  0.00    +0.002 A 
ATOM     11  C   LIG    1       28.313 -15.830   5.894  0.00  0.00    +0.024 A 
ATOM     12  S   LIG    1       27.202 -18.210   2.740  0.00  0.00    -0.111 S 
ENDROOT
BRANCH   1  16
ATOM     13  C   LIG    1       23.117 -20.670   5.140  0.00  0.00    +0.120 A 
ATOM     14  C   LIG    1       24.490 -20.802   4.973  0.00  0.00    +0.046 A 
ATOM     15  C   LIG    1       25.214 -19.854   4.254  0.00  0.00    +0.008 A 
ATOM     16  C   LIG    1       24.604 -18.736   3.672  0.00  0.00    -0.030 A 
ATOM     17  C   LIG    1       23.212 -18.615   3.831  0.00  0.00    +0.008 A 
ATOM     18  C   LIG    1       22.477 -19.574   4.559  0.00  0.00    +0.046 A 
BRANCH  13  20
ATOM     19  C   LIG    1       20.958 -21.571   5.490  0.00  0.00    +0.277 C 
ATOM     20  O   LIG    1       22.342 -21.553   5.848  0.00  0.00    -0.495 OA
ENDBRANCH  13  20
ENDBRANCH   1  16
BRANCH   2  21
ATOM     21  O   LIG    1       24.855 -15.998   4.681  0.00  0.00    -0.451 OA
BRANCH  21  22
ATOM     22  C   LIG    1       23.748 -15.219   4.872  0.00  0.00    +0.305 C 
ATOM     23  O   LIG    1       22.717 -15.580   5.402  0.00  0.00    -0.251 OA
ATOM     24  C   LIG    1       23.959 -13.815   4.383  0.00  0.00    +0.136 C 
ENDBRANCH  21  22
ENDBRANCH   2  21
BRANCH   5  25
ATOM     25  C   LIG    1       28.492 -14.180   3.374  0.00  0.00    +0.129 C 
BRANCH  25  26
ATOM     26  C   LIG    1       27.998 -12.713   3.398  0.00  0.00    +0.103 C 
BRANCH  26  27
ATOM     27  N   LIG    1       27.839 -12.123   4.750  0.00  0.00    -0.307 NA
ATOM     28  C   LIG    1       29.056 -12.182   5.559  0.00  0.00    +0.104 C 
ATOM     29  C   LIG    1       26.745 -12.789   5.467  0.00  0.00    +0.104 C 
ENDBRANCH  26  27
ENDBRANCH  25  26
ENDBRANCH   5  25
TORSDOF 7
ENDMDL
MODEL 3
REMARK VINA RESULT:      11.4      2.898      6.681
REMARK  Name = *****
REMARK                            x       y       z     vdW  Elec       q    Type
REMARK                         _______ _______ _______ _____ _____    ______ ____
ROOT
ATOM      1  C   LIG    1       26.252 -16.052   2.675  0.00  0.00    +0.131 C 
ATOM      2  C   LIG    1       26.485 -17.463   3.282  0.00  0.00    +0.280 C 
ATOM      3  C   LIG    1       25.408 -18.491   2.857  0.00  0.00    +0.262 C 
ATOM      4  O   LIG    1       25.637 -19.283   1.938  0.00  0.00    -0.271 OA
ATOM      5  N   LIG    1       24.212 -18.525   3.588  0.00  0.00    -0.266 N 
ATOM      6  C   LIG    1       23.698 -17.400   4.307  0.00  0.00    +0.050 A 
ATOM      7  C   LIG    1       23.702 -16.094   3.778  0.00  0.00    +0.030 A 
ATOM      8  C   LIG    1       23.017 -15.069   4.453  0.00  0.00    +0.016 A 
ATOM      9  C   LIG    1       22.416 -15.304   5.687  0.00  0.00    +0.001 A 
ATOM     10  C   LIG    1       22.470 -16.575   6.247  0.00  0.00    +0.002 A 
ATOM     11  C   LIG    1       23.083 -17.621   5.551  0.00  0.00    +0.024 A 
ATOM     12  S   LIG    1       24.500 -15.631   2.254  0.00  0.00    -0.111 S 
ENDROOT
BRANCH   1  16
ATOM     13  C   LIG    1       28.276 -12.780   4.770  0.00  0.00    +0.120 A 
ATOM     14  C   LIG    1       27.328 -13.569   5.409  0.00  0.00    +0.046 A 
ATOM     15  C   LIG    1       26.688 -14.603   4.731  0.00  0.00    +0.008 A 
ATOM     16  C   LIG    1       26.962 -14.897   3.391  0.00  0.00    -0.030 A 
ATOM     17  C   LIG    1       27.911 -14.086   2.742  0.00  0.00    +0.008 A 
ATOM     18  C   LIG    1       28.562 -13.038   3.427  0.00  0.00    +0.046 A 
BRANCH  13  20
ATOM     19  C   LIG    1       29.464 -12.052   6.681  0.00  0.00    +0.277 C 
ATOM     20  O   LIG    1       28.960 -11.757   5.376  0.00  0.00    -0.495 OA
ENDBRANCH  13  20
ENDBRANCH   1  16
BRANCH   2  21
ATOM     21  O   LIG    1       26.653 -17.489   4.719  0.00  0.00    -0.451 OA
BRANCH  21  22
ATOM     22  C   LIG    1       27.563 -18.414   5.151  0.00  0.00    +0.305 C 
ATOM     23  O   LIG    1       27.310 -19.563   5.451  0.00  0.00    -0.251 OA
ATOM     24  C   LIG    1       28.958 -17.859   5.175  0.00  0.00    +0.136 C 
ENDBRANCH  21  22
ENDBRANCH   2  21
BRANCH   5  25
ATOM     25  C   LIG    1       23.229 -19.589   3.268  0.00  0.00    +0.129 C 
BRANCH  25  26
ATOM     26  C   LIG    1       23.758 -21.022   3.510  0.00  0.00    +0.103 C 
BRANCH  26  27
ATOM     27  N   LIG    1       23.498 -21.572   4.864  0.00  0.00    -0.307 NA
ATOM     28  C   LIG    1       22.294 -21.028   5.491  0.00  0.00    +0.104 C 
ATOM     29  C   LIG    1       24.653 -21.333   5.736  0.00  0.00    +0.104 C 
ENDBRANCH  26  27
ENDBRANCH  25  26
ENDBRANCH   5  25
TORSDOF 7
ENDMDL
MODEL 4
REMARK VINA RESULT:      12.0      3.170      7.044
REMARK  Name = *****
REMARK                            x       y       z     vdW  Elec       q    Type
REMARK                         _______ _______ _______ _____ _____    ______ ____
ROOT
ATOM      1  C   LIG    1       25.813 -17.464   2.937  0.00  0.00    +0.131 C 
ATOM      2  C   LIG    1       26.413 -18.714   3.637  0.00  0.00    +0.280 C 
ATOM      3  C   LIG    1       25.616 -20.010   3.353  0.00  0.00    +0.262 C 
ATOM      4  O   LIG    1       26.005 -20.799   2.487  0.00  0.00    -0.271 OA
ATOM      5  N   LIG    1       24.491 -20.274   4.148  0.00  0.00    -0.266 N 
ATOM      6  C   LIG    1       23.735 -19.252   4.804  0.00  0.00    +0.050 A 
ATOM      7  C   LIG    1       23.393 -18.038   4.176  0.00  0.00    +0.030 A 
ATOM      8  C   LIG    1       22.496 -17.158   4.806  0.00  0.00    +0.016 A 
ATOM      9  C   LIG    1       22.014 -17.424   6.085  0.00  0.00    +0.001 A 
ATOM     10  C   LIG    1       22.404 -18.588   6.738  0.00  0.00    +0.002 A 
ATOM     11  C   LIG    1       23.237 -19.508   6.093  0.00  0.00    +0.024 A 
ATOM     12  S   LIG    1       23.999 -17.529   2.580  0.00  0.00    -0.111 S 
ENDROOT
BRANCH   1  16
ATOM     13  C   LIG    1       27.065 -13.600   4.576  0.00  0.00    +0.120 A 
ATOM     14  C   LIG    1       27.993 -14.584   4.259  0.00  0.00    +0.046 A 
ATOM     15  C   LIG    1       27.582 -15.810   3.743  0.00  0.00    +0.008 A 
ATOM     16  C   LIG    1       26.234 -16.110   3.521  0.00  0.00    -0.030 A 
ATOM     17  C   LIG    1       25.296 -15.117   3.858  0.00  0.00    +0.008 A 
ATOM     18  C   LIG    1       25.710 -13.874   4.380  0.00  0.00    +0.046 A 
BRANCH  13  20
ATOM     19  C   LIG    1       28.797 -12.107   5.181  0.00  0.00    +0.277 C 
ATOM     20  O   LIG    1       27.395 -12.363   5.071  0.00  0.00    -0.495 OA
ENDBRANCH  13  20
ENDBRANCH   1  16
BRANCH   2  21
ATOM     21  O   LIG    1       26.630 -18.570   5.061  0.00  0.00    -0.451 OA
BRANCH  21  22
ATOM     22  C   LIG    1       27.605 -19.391   5.556  0.00  0.00    +0.305 C 
ATOM     23  O   LIG    1       27.428 -20.510   5.991  0.00  0.00    -0.251 OA
ATOM     24  C   LIG    1       28.967 -18.764   5.462  0.00  0.00    +0.136 C 
ENDBRANCH  21  22
ENDBRANCH   2  21
BRANCH   5  25
ATOM     25  C   LIG    1       23.797 -21.572   3.965  0.00  0.00    +0.129 C 
BRANCH  25  26
ATOM     26  C   LIG    1       22.401 -21.447   3.309  0.00  0.00    +0.103 C 
BRANCH  26  27
ATOM     27  N   LIG    1       21.255 -21.482   4.251  0.00  0.00    -0.307 NA
ATOM     28  C   LIG    1       20.358 -20.334   4.121  0.00  0.00    +0.104 C 
ATOM     29  C   LIG    1       21.739 -21.568   5.633  0.00  0.00    +0.104 C 
ENDBRANCH  26  27
ENDBRANCH  25  26
ENDBRANCH   5  25
TORSDOF 7
ENDMDL
