MODEL 1
REMARK VINA RESULT:      -7.9      0.000      0.000
REMARK  Name = *****
REMARK                            x       y       z     vdW  Elec       q    Type
REMARK                         _______ _______ _______ _____ _____    ______ ____
ROOT
ATOM      1  C   LIG    1       22.712 -23.621   6.882  0.00  0.00    +0.044 C 
ATOM      2  C   LIG    1       23.998 -24.066   6.218  0.00  0.00    -0.050 C 
ATOM      3  C   LIG    1       24.053 -25.314   5.707  0.00  0.00    +0.003 C 
ENDROOT
BRANCH   3   4
ATOM      4  C   LIG    1       25.141 -25.955   5.000  0.00  0.00    +0.001 C 
ATOM      5  C   LIG    1       25.884 -26.986   5.433  0.00  0.00    +0.003 C 
BRANCH   5   6
ATOM      6  C   LIG    1       25.746 -27.747   6.667  0.00  0.00    -0.052 C 
ATOM      7  C   LIG    1       25.095 -28.925   6.692  0.00  0.00    +0.004 C 
ATOM      8  C   LIG    1       26.235 -27.106   7.945  0.00  0.00    +0.043 C 
BRANCH   7   9
ATOM      9  C   LIG    1       24.521 -29.671   5.530  0.00  0.00    +0.183 C 
BRANCH   9  10
ATOM     10  O   LIG    1       23.176 -29.268   5.336  0.00  0.00    -0.391 OA
ATOM     11  H   LIG    1       23.190 -28.457   4.801  0.00  0.00    +0.210 HD
ENDBRANCH   9  10
ENDBRANCH   7   9
ENDBRANCH   5   6
ENDBRANCH   3   4
BRANCH   2  12
ATOM     12  C   LIG    1       25.106 -23.119   6.168  0.00  0.00    +0.003 C 
ATOM     13  C   LIG    1       25.016 -21.783   6.290  0.00  0.00    +0.004 C 
BRANCH  13  14
ATOM     14  C   LIG    1       26.167 -20.882   6.241  0.00  0.00    -0.043 C 
ATOM     15  C   LIG    1       27.058 -20.848   7.507  0.00  0.00    -0.010 C 
ATOM     16  C   LIG    1       26.247 -20.726   8.819  0.00  0.00    +0.016 C 
ATOM     17  C   LIG    1       27.897 -22.145   7.577  0.00  0.00    +0.016 C 
ATOM     18  C   LIG    1       28.013 -19.623   7.482  0.00  0.00    +0.011 C 
ATOM     19  C   LIG    1       28.682 -19.446   6.132  0.00  0.00    +0.005 C 
ATOM     20  C   LIG    1       27.632 -19.206   5.058  0.00  0.00    +0.031 C 
ATOM     21  C   LIG    1       26.423 -20.111   5.153  0.00  0.00    -0.069 C 
ATOM     22  C   LIG    1       25.530 -20.030   3.937  0.00  0.00    +0.039 C 
ENDBRANCH  13  14
ENDBRANCH   2  12
TORSDOF 6
ENDMDL
MODEL 2
REMARK VINA RESULT:      -7.8      5.056      8.843
REMARK  Name = *****
REMARK                            x       y       z     vdW  Elec       q    Type
REMARK                         _______ _______ _______ _____ _____    ______ ____
ROOT
ATOM      1  C   LIG    1       30.788 -22.287   9.397  0.00  0.00    +0.044 C 
ATOM      2  C   LIG    1       30.632 -21.017   8.589  0.00  0.00    -0.050 C 
ATOM      3  C   LIG    1       31.492 -20.003   8.823  0.00  0.00    +0.003 C 
ENDROOT
BRANCH   3   4
ATOM      4  C   LIG    1       31.573 -18.716   8.168  0.00  0.00    +0.001 C 
ATOM      5  C   LIG    1       31.286 -17.519   8.706  0.00  0.00    +0.003 C 
BRANCH   5   6
ATOM      6  C   LIG    1       30.892 -17.212  10.074  0.00  0.00    -0.052 C 
ATOM      7  C   LIG    1       31.705 -16.523  10.897  0.00  0.00    +0.004 C 
ATOM      8  C   LIG    1       29.604 -17.812  10.584  0.00  0.00    +0.043 C 
BRANCH   7   9
ATOM      9  C   LIG    1       33.023 -15.900  10.561  0.00  0.00    +0.183 C 
BRANCH   9  10
ATOM     10  O   LIG    1       32.814 -14.833   9.651  0.00  0.00    -0.391 OA
ATOM     11  H   LIG    1       33.357 -14.086   9.951  0.00  0.00    +0.210 HD
ENDBRANCH   9  10
ENDBRANCH   7   9
ENDBRANCH   5   6
ENDBRANCH   3   4
BRANCH   2  12
ATOM     12  C   LIG    1       29.560 -20.960   7.603  0.00  0.00    +0.003 C 
ATOM     13  C   LIG    1       28.273 -20.654   7.844  0.00  0.00    +0.004 C 
BRANCH  13  14
ATOM     14  C   LIG    1       27.240 -20.604   6.809  0.00  0.00    -0.043 C 
ATOM     15  C   LIG    1       25.985 -21.476   7.059  0.00  0.00    -0.010 C 
ATOM     16  C   LIG    1       26.326 -22.917   7.509  0.00  0.00    +0.016 C 
ATOM     17  C   LIG    1       25.117 -20.820   8.157  0.00  0.00    +0.016 C 
ATOM     18  C   LIG    1       25.143 -21.623   5.762  0.00  0.00    +0.011 C 
ATOM     19  C   LIG    1       24.962 -20.299   5.044  0.00  0.00    +0.005 C 
ATOM     20  C   LIG    1       26.316 -19.743   4.629  0.00  0.00    +0.031 C 
ATOM     21  C   LIG    1       27.388 -19.849   5.691  0.00  0.00    -0.069 C 
ATOM     22  C   LIG    1       28.633 -19.063   5.351  0.00  0.00    +0.039 C 
ENDBRANCH  13  14
ENDBRANCH   2  12
TORSDOF 6
ENDMDL
MODEL 3
REMARK VINA RESULT:      -7.8      5.194      9.052
REMARK  Name = *****
REMARK                            x       y       z     vdW  Elec       q    Type
REMARK                         _______ _______ _______ _____ _____    ______ ____
ROOT
ATOM      1  C   LIG    1       30.231 -19.132   5.679  0.00  0.00    +0.044 C 
ATOM      2  C   LIG    1       29.530 -19.032   7.017  0.00  0.00    -0.050 C 
ATOM      3  C   LIG    1       30.228 -18.554   8.068  0.00  0.00    +0.003 C 
ENDROOT
BRANCH   3   4
ATOM      4  C   LIG    1       29.780 -18.329   9.425  0.00  0.00    +0.001 C 
ATOM      5  C   LIG    1       30.445 -17.682  10.396  0.00  0.00    +0.003 C 
BRANCH   5   6
ATOM      6  C   LIG    1       31.730 -17.000  10.314  0.00  0.00    -0.052 C 
ATOM      7  C   LIG    1       32.319 -16.488  11.410  0.00  0.00    +0.004 C 
ATOM      8  C   LIG    1       32.311 -16.763   8.940  0.00  0.00    +0.043 C 
BRANCH   7   9
ATOM      9  C   LIG    1       31.856 -16.600  12.828  0.00  0.00    +0.183 C 
BRANCH   9  10
ATOM     10  O   LIG    1       31.565 -15.306  13.326  0.00  0.00    -0.391 OA
ATOM     11  H   LIG    1       30.961 -15.414  14.079  0.00  0.00    +0.210 HD
ENDBRANCH   9  10
ENDBRANCH   7   9
ENDBRANCH   5   6
ENDBRANCH   3   4
BRANCH   2  12
ATOM     12  C   LIG    1       28.137 -19.458   7.094  0.00  0.00    +0.003 C 
ATOM     13  C   LIG    1       27.489 -20.223   6.198  0.00  0.00    +0.004 C 
BRANCH  13  14
ATOM     14  C   LIG    1       26.090 -20.627   6.333  0.00  0.00    -0.043 C 
ATOM     15  C   LIG    1       25.745 -21.473   7.584  0.00  0.00    -0.010 C 
ATOM     16  C   LIG    1       26.740 -22.633   7.826  0.00  0.00    +0.016 C 
ATOM     17  C   LIG    1       25.752 -20.562   8.834  0.00  0.00    +0.016 C 
ATOM     18  C   LIG    1       24.347 -22.133   7.440  0.00  0.00    +0.011 C 
ATOM     19  C   LIG    1       23.304 -21.159   6.926  0.00  0.00    +0.005 C 
ATOM     20  C   LIG    1       23.697 -20.657   5.546  0.00  0.00    +0.031 C 
ATOM     21  C   LIG    1       25.158 -20.291   5.405  0.00  0.00    -0.069 C 
ATOM     22  C   LIG    1       25.461 -19.558   4.119  0.00  0.00    +0.039 C 
ENDBRANCH  13  14
ENDBRANCH   2  12
TORSDOF 6
ENDMDL
MODEL 4
REMARK VINA RESULT:      -7.5      4.447      7.290
REMARK  Name = *****
REMARK                            x       y       z     vdW  Elec       q    Type
REMARK                         _______ _______ _______ _____ _____    ______ ____
ROOT
ATOM      1  C   LIG    1       27.193 -22.365   8.423  0.00  0.00    +0.044 C 
ATOM      2  C   LIG    1       27.428 -21.107   7.615  0.00  0.00    -0.050 C 
ATOM      3  C   LIG    1       28.683 -20.615   7.550  0.00  0.00    +0.003 C 
ENDROOT
BRANCH   3   4
ATOM      4  C   LIG    1       29.166 -19.461   6.823  0.00  0.00    +0.001 C 
ATOM      5  C   LIG    1       29.941 -18.475   7.303  0.00  0.00    +0.003 C 
BRANCH   5   6
ATOM      6  C   LIG    1       30.532 -18.350   8.628  0.00  0.00    -0.052 C 
ATOM      7  C   LIG    1       31.285 -19.334   9.152  0.00  0.00    +0.004 C 
ATOM      8  C   LIG    1       30.157 -17.141   9.452  0.00  0.00    +0.043 C 
BRANCH   7   9
ATOM      9  C   LIG    1       31.712 -20.604   8.488  0.00  0.00    +0.183 C 
BRANCH   9  10
ATOM     10  O   LIG    1       32.211 -21.498   9.468  0.00  0.00    -0.391 OA
ATOM     11  H   LIG    1       32.374 -20.982  10.275  0.00  0.00    +0.210 HD
ENDBRANCH   9  10
ENDBRANCH   7   9
ENDBRANCH   5   6
ENDBRANCH   3   4
BRANCH   2  12
ATOM     12  C   LIG    1       26.282 -20.496   6.952  0.00  0.00    +0.003 C 
ATOM     13  C   LIG    1       25.663 -20.956   5.851  0.00  0.00    +0.004 C 
BRANCH  13  14
ATOM     14  C   LIG    1       24.508 -20.303   5.233  0.00  0.00    -0.043 C 
ATOM     15  C   LIG    1       23.121 -20.705   5.792  0.00  0.00    -0.010 C 
ATOM     16  C   LIG    1       22.946 -22.235   5.942  0.00  0.00    +0.016 C 
ATOM     17  C   LIG    1       22.923 -20.058   7.182  0.00  0.00    +0.016 C 
ATOM     18  C   LIG    1       21.983 -20.238   4.844  0.00  0.00    +0.011 C 
ATOM     19  C   LIG    1       22.179 -18.807   4.377  0.00  0.00    +0.005 C 
ATOM     20  C   LIG    1       23.478 -18.689   3.596  0.00  0.00    +0.031 C 
ATOM     21  C   LIG    1       24.652 -19.412   4.219  0.00  0.00    -0.069 C 
ATOM     22  C   LIG    1       25.971 -19.064   3.570  0.00  0.00    +0.039 C 
ENDBRANCH  13  14
ENDBRANCH   2  12
TORSDOF 6
ENDMDL
MODEL 5
REMARK VINA RESULT:      -7.3      5.015      7.842
REMARK  Name = *****
REMARK                            x       y       z     vdW  Elec       q    Type
REMARK                         _______ _______ _______ _____ _____    ______ ____
ROOT
ATOM      1  C   LIG    1       27.045 -22.529   8.346  0.00  0.00    +0.044 C 
ATOM      2  C   LIG    1       27.315 -21.205   7.664  0.00  0.00    -0.050 C 
ATOM      3  C   LIG    1       28.567 -20.703   7.717  0.00  0.00    +0.003 C 
ENDROOT
BRANCH   3   4
ATOM      4  C   LIG    1       29.082 -19.489   7.122  0.00  0.00    +0.001 C 
ATOM      5  C   LIG    1       30.175 -18.808   7.501  0.00  0.00    +0.003 C 
BRANCH   5   6
ATOM      6  C   LIG    1       31.136 -19.144   8.543  0.00  0.00    -0.052 C 
ATOM      7  C   LIG    1       31.756 -18.187   9.256  0.00  0.00    +0.004 C 
ATOM      8  C   LIG    1       31.519 -20.597   8.702  0.00  0.00    +0.043 C 
BRANCH   7   9
ATOM      9  C   LIG    1       31.522 -16.710   9.193  0.00  0.00    +0.183 C 
BRANCH   9  10
ATOM     10  O   LIG    1       32.711 -16.068   8.764  0.00  0.00    -0.391 OA
ATOM     11  H   LIG    1       32.973 -16.475   7.922  0.00  0.00    +0.210 HD
ENDBRANCH   9  10
ENDBRANCH   7   9
ENDBRANCH   5   6
ENDBRANCH   3   4
BRANCH   2  12
ATOM     12  C   LIG    1       26.205 -20.544   6.988  0.00  0.00    +0.003 C 
ATOM     13  C   LIG    1       25.606 -20.954   5.856  0.00  0.00    +0.004 C 
BRANCH  13  14
ATOM     14  C   LIG    1       24.488 -20.253   5.227  0.00  0.00    -0.043 C 
ATOM     15  C   LIG    1       23.076 -20.626   5.742  0.00  0.00    -0.010 C 
ATOM     16  C   LIG    1       22.852 -22.154   5.850  0.00  0.00    +0.016 C 
ATOM     17  C   LIG    1       22.862 -20.006   7.142  0.00  0.00    +0.016 C 
ATOM     18  C   LIG    1       21.976 -20.103   4.778  0.00  0.00    +0.011 C 
ATOM     19  C   LIG    1       22.225 -18.668   4.350  0.00  0.00    +0.005 C 
ATOM     20  C   LIG    1       23.546 -18.570   3.604  0.00  0.00    +0.031 C 
ATOM     21  C   LIG    1       24.682 -19.343   4.238  0.00  0.00    -0.069 C 
ATOM     22  C   LIG    1       26.027 -19.019   3.631  0.00  0.00    +0.039 C 
ENDBRANCH  13  14
ENDBRANCH   2  12
TORSDOF 6
ENDMDL
MODEL 6
REMARK VINA RESULT:      -7.1      3.307      5.049
REMARK  Name = *****
REMARK                            x       y       z     vdW  Elec       q    Type
REMARK                         _______ _______ _______ _____ _____    ______ ____
ROOT
ATOM      1  C   LIG    1       25.587 -17.558   3.201  0.00  0.00    +0.044 C 
ATOM      2  C   LIG    1       25.518 -19.013   3.609  0.00  0.00    -0.050 C 
ATOM      3  C   LIG    1       24.486 -19.756   3.153  0.00  0.00    +0.003 C 
ENDROOT
BRANCH   3   4
ATOM      4  C   LIG    1       24.218 -21.161   3.368  0.00  0.00    +0.001 C 
ATOM      5  C   LIG    1       23.651 -21.715   4.452  0.00  0.00    +0.003 C 
BRANCH   5   6
ATOM      6  C   LIG    1       23.115 -21.052   5.633  0.00  0.00    -0.052 C 
ATOM      7  C   LIG    1       22.945 -21.717   6.790  0.00  0.00    +0.004 C 
ATOM      8  C   LIG    1       22.625 -19.631   5.478  0.00  0.00    +0.043 C 
BRANCH   7   9
ATOM      9  C   LIG    1       23.337 -23.128   7.094  0.00  0.00    +0.183 C 
BRANCH   9  10
ATOM     10  O   LIG    1       22.304 -24.000   6.668  0.00  0.00    -0.391 OA
ATOM     11  H   LIG    1       21.525 -23.817   7.218  0.00  0.00    +0.210 HD
ENDBRANCH   9  10
ENDBRANCH   7   9
ENDBRANCH   5   6
ENDBRANCH   3   4
BRANCH   2  12
ATOM     12  C   LIG    1       26.571 -19.533   4.474  0.00  0.00    +0.003 C 
ATOM     13  C   LIG    1       26.542 -19.587   5.817  0.00  0.00    +0.004 C 
BRANCH  13  14
ATOM     14  C   LIG    1       27.628 -20.129   6.633  0.00  0.00    -0.043 C 
ATOM     15  C   LIG    1       27.218 -21.169   7.705  0.00  0.00    -0.010 C 
ATOM     16  C   LIG    1       25.991 -20.733   8.539  0.00  0.00    +0.016 C 
ATOM     17  C   LIG    1       26.880 -22.510   7.012  0.00  0.00    +0.016 C 
ATOM     18  C   LIG    1       28.367 -21.398   8.725  0.00  0.00    +0.011 C 
ATOM     19  C   LIG    1       29.713 -21.564   8.045  0.00  0.00    +0.005 C 
ATOM     20  C   LIG    1       30.061 -20.304   7.266  0.00  0.00    +0.031 C 
ATOM     21  C   LIG    1       28.913 -19.726   6.468  0.00  0.00    -0.069 C 
ATOM     22  C   LIG    1       29.350 -18.642   5.510  0.00  0.00    +0.039 C 
ENDBRANCH  13  14
ENDBRANCH   2  12
TORSDOF 6
ENDMDL
MODEL 7
REMARK VINA RESULT:      -7.0      5.159      8.087
REMARK  Name = *****
REMARK                            x       y       z     vdW  Elec       q    Type
REMARK                         _______ _______ _______ _____ _____    ______ ____
ROOT
ATOM      1  C   LIG    1       27.464 -22.595   7.594  0.00  0.00    +0.044 C 
ATOM      2  C   LIG    1       27.644 -21.150   7.184  0.00  0.00    -0.050 C 
ATOM      3  C   LIG    1       28.861 -20.588   7.343  0.00  0.00    +0.003 C 
ENDROOT
BRANCH   3   4
ATOM      4  C   LIG    1       29.293 -19.251   6.998  0.00  0.00    +0.001 C 
ATOM      5  C   LIG    1       30.244 -18.529   7.613  0.00  0.00    +0.003 C 
BRANCH   5   6
ATOM      6  C   LIG    1       31.109 -18.923   8.716  0.00  0.00    -0.052 C 
ATOM      7  C   LIG    1       31.731 -18.004   9.478  0.00  0.00    +0.004 C 
ATOM      8  C   LIG    1       31.398 -20.395   8.890  0.00  0.00    +0.043 C 
BRANCH   7   9
ATOM      9  C   LIG    1       31.585 -16.517   9.410  0.00  0.00    +0.183 C 
BRANCH   9  10
ATOM     10  O   LIG    1       32.728 -15.966   8.778  0.00  0.00    -0.391 OA
ATOM     11  H   LIG    1       33.192 -15.425   9.438  0.00  0.00    +0.210 HD
ENDBRANCH   9  10
ENDBRANCH   7   9
ENDBRANCH   5   6
ENDBRANCH   3   4
BRANCH   2  12
ATOM     12  C   LIG    1       26.490 -20.444   6.637  0.00  0.00    +0.003 C 
ATOM     13  C   LIG    1       25.656 -20.901   5.687  0.00  0.00    +0.004 C 
BRANCH  13  14
ATOM     14  C   LIG    1       24.506 -20.149   5.183  0.00  0.00    -0.043 C 
ATOM     15  C   LIG    1       24.709 -19.426   3.829  0.00  0.00    -0.010 C 
ATOM     16  C   LIG    1       26.034 -18.632   3.755  0.00  0.00    +0.016 C 
ATOM     17  C   LIG    1       24.707 -20.469   2.688  0.00  0.00    +0.016 C 
ATOM     18  C   LIG    1       23.578 -18.392   3.577  0.00  0.00    +0.011 C 
ATOM     19  C   LIG    1       22.205 -18.957   3.888  0.00  0.00    +0.005 C 
ATOM     20  C   LIG    1       22.124 -19.349   5.356  0.00  0.00    +0.031 C 
ATOM     21  C   LIG    1       23.342 -20.080   5.876  0.00  0.00    -0.069 C 
ATOM     22  C   LIG    1       23.127 -20.680   7.247  0.00  0.00    +0.039 C 
ENDBRANCH  13  14
ENDBRANCH   2  12
TORSDOF 6
ENDMDL
MODEL 8
REMARK VINA RESULT:      -6.6      4.655      8.667
REMARK  Name = *****
REMARK                            x       y       z     vdW  Elec       q    Type
REMARK                         _______ _______ _______ _____ _____    ______ ____
ROOT
ATOM      1  C   LIG    1       21.698 -18.694   4.241  0.00  0.00    +0.044 C 
ATOM      2  C   LIG    1       23.209 -18.741   4.166  0.00  0.00    -0.050 C 
ATOM      3  C   LIG    1       23.852 -17.700   3.595  0.00  0.00    +0.003 C 
ENDROOT
BRANCH   3   4
ATOM      4  C   LIG    1       25.275 -17.493   3.437  0.00  0.00    +0.001 C 
ATOM      5  C   LIG    1       25.918 -16.314   3.409  0.00  0.00    +0.003 C 
BRANCH   5   6
ATOM      6  C   LIG    1       25.369 -14.978   3.592  0.00  0.00    -0.052 C 
ATOM      7  C   LIG    1       26.105 -13.880   3.342  0.00  0.00    +0.004 C 
ATOM      8  C   LIG    1       23.993 -14.863   4.204  0.00  0.00    +0.043 C 
BRANCH   7   9
ATOM      9  C   LIG    1       27.488 -13.822   2.776  0.00  0.00    +0.183 C 
BRANCH   9  10
ATOM     10  O   LIG    1       28.427 -14.046   3.815  0.00  0.00    -0.391 OA
ATOM     11  H   LIG    1       28.426 -13.257   4.381  0.00  0.00    +0.210 HD
ENDBRANCH   9  10
ENDBRANCH   7   9
ENDBRANCH   5   6
ENDBRANCH   3   4
BRANCH   2  12
ATOM     12  C   LIG    1       23.886 -19.910   4.716  0.00  0.00    +0.003 C 
ATOM     13  C   LIG    1       23.872 -20.306   6.000  0.00  0.00    +0.004 C 
BRANCH  13  14
ATOM     14  C   LIG    1       24.565 -21.497   6.493  0.00  0.00    -0.043 C 
ATOM     15  C   LIG    1       26.025 -21.286   6.965  0.00  0.00    -0.010 C 
ATOM     16  C   LIG    1       26.872 -20.457   5.971  0.00  0.00    +0.016 C 
ATOM     17  C   LIG    1       26.020 -20.552   8.326  0.00  0.00    +0.016 C 
ATOM     18  C   LIG    1       26.760 -22.645   7.120  0.00  0.00    +0.011 C 
ATOM     19  C   LIG    1       25.914 -23.674   7.847  0.00  0.00    +0.005 C 
ATOM     20  C   LIG    1       24.642 -23.950   7.062  0.00  0.00    +0.031 C 
ATOM     21  C   LIG    1       23.964 -22.713   6.515  0.00  0.00    -0.069 C 
ATOM     22  C   LIG    1       22.581 -22.991   5.971  0.00  0.00    +0.039 C 
ENDBRANCH  13  14
ENDBRANCH   2  12
TORSDOF 6
ENDMDL
MODEL 9
REMARK VINA RESULT:      -6.6      1.882      3.554
REMARK  Name = *****
REMARK                            x       y       z     vdW  Elec       q    Type
REMARK                         _______ _______ _______ _____ _____    ______ ____
ROOT
ATOM      1  C   LIG    1       27.485 -22.514   7.402  0.00  0.00    +0.044 C 
ATOM      2  C   LIG    1       26.110 -22.934   6.928  0.00  0.00    -0.050 C 
ATOM      3  C   LIG    1       25.804 -24.249   6.944  0.00  0.00    +0.003 C 
ENDROOT
BRANCH   3   4
ATOM      4  C   LIG    1       24.560 -24.893   6.580  0.00  0.00    +0.001 C 
ATOM      5  C   LIG    1       24.413 -26.122   6.061  0.00  0.00    +0.003 C 
BRANCH   5   6
ATOM      6  C   LIG    1       25.438 -27.123   5.797  0.00  0.00    -0.052 C 
ATOM      7  C   LIG    1       25.233 -28.423   6.077  0.00  0.00    +0.004 C 
ATOM      8  C   LIG    1       26.789 -26.637   5.330  0.00  0.00    +0.043 C 
BRANCH   7   9
ATOM      9  C   LIG    1       23.974 -29.057   6.580  0.00  0.00    +0.183 C 
BRANCH   9  10
ATOM     10  O   LIG    1       23.214 -29.519   5.476  0.00  0.00    -0.391 OA
ATOM     11  H   LIG    1       23.088 -30.475   5.590  0.00  0.00    +0.210 HD
ENDBRANCH   9  10
ENDBRANCH   7   9
ENDBRANCH   5   6
ENDBRANCH   3   4
BRANCH   2  12
ATOM     12  C   LIG    1       25.194 -21.893   6.478  0.00  0.00    +0.003 C 
ATOM     13  C   LIG    1       25.136 -21.363   5.244  0.00  0.00    +0.004 C 
BRANCH  13  14
ATOM     14  C   LIG    1       24.185 -20.324   4.848  0.00  0.00    -0.043 C 
ATOM     15  C   LIG    1       22.762 -20.442   5.446  0.00  0.00    -0.010 C 
ATOM     16  C   LIG    1       22.176 -21.871   5.345  0.00  0.00    +0.016 C 
ATOM     17  C   LIG    1       22.799 -20.039   6.938  0.00  0.00    +0.016 C 
ATOM     18  C   LIG    1       21.765 -19.520   4.692  0.00  0.00    +0.011 C 
ATOM     19  C   LIG    1       22.331 -18.131   4.462  0.00  0.00    +0.005 C 
ATOM     20  C   LIG    1       23.584 -18.216   3.605  0.00  0.00    +0.031 C 
ATOM     21  C   LIG    1       24.533 -19.329   3.994  0.00  0.00    -0.069 C 
ATOM     22  C   LIG    1       25.874 -19.226   3.304  0.00  0.00    +0.039 C 
ENDBRANCH  13  14
ENDBRANCH   2  12
TORSDOF 6
ENDMDL
