MODEL 1
REMARK VINA RESULT:      -2.7      0.000      0.000
REMARK  Name = *****
REMARK                            x       y       z     vdW  Elec       q    Type
REMARK                         _______ _______ _______ _____ _____    ______ ____
ROOT
ATOM      1  C   LIG    1       26.602 -15.182   3.114  0.00  0.00    +0.282 C 
ATOM      2  C   LIG    1       25.350 -14.288   2.998  0.00  0.00    +0.201 C 
ATOM      3  C   LIG    1       25.204 -13.363   4.216  0.00  0.00    +0.179 C 
ATOM      4  C   LIG    1       26.558 -12.937   4.806  0.00  0.00    +0.177 C 
ATOM      5  C   LIG    1       27.682 -13.103   3.774  0.00  0.00    +0.178 C 
ATOM      6  O   LIG    1       27.818 -14.469   3.346  0.00  0.00    -0.341 OA
ENDROOT
BRANCH   2   7
ATOM      7  O   LIG    1       25.440 -13.471   1.813  0.00  0.00    -0.384 OA
ATOM      8  H   LIG    1       25.873 -12.635   2.062  0.00  0.00    +0.210 HD
ENDBRANCH   2   7
BRANCH   3   9
ATOM      9  O   LIG    1       24.412 -13.966   5.251  0.00  0.00    -0.386 OA
ATOM     10  H   LIG    1       23.830 -14.612   4.803  0.00  0.00    +0.210 HD
ENDBRANCH   3   9
BRANCH   4  11
ATOM     11  O   LIG    1       26.841 -13.712   5.987  0.00  0.00    -0.387 OA
ATOM     12  H   LIG    1       26.468 -13.187   6.725  0.00  0.00    +0.210 HD
ENDBRANCH   4  11
BRANCH   1  13
ATOM     13  O   LIG    1       26.388 -16.207   4.095  0.00  0.00    -0.341 OA
BRANCH  13  14
ATOM     14  C   LIG    1       26.849 -17.510   3.668  0.00  0.00    +0.178 C 
BRANCH  14  15
ATOM     15  C   LIG    1       27.633 -18.196   4.827  0.00  0.00    +0.181 C 
BRANCH  15  16
ATOM     16  O   LIG    1       29.056 -17.963   4.735  0.00  0.00    -0.386 OA
ATOM     17  H   LIG    1       29.260 -17.802   3.787  0.00  0.00    +0.210 HD
ENDBRANCH  15  16
BRANCH  15  18
ATOM     18  C   LIG    1       27.446 -19.719   4.922  0.00  0.00    +0.208 C 
BRANCH  18  20
ATOM     19  O   LIG    1       25.376 -20.459   6.002  0.00  0.00    -0.298 OA
ATOM     20  C   LIG    1       26.574 -20.149   6.088  0.00  0.00    +0.257 C 
ENDBRANCH  18  20
BRANCH  18  21
ATOM     21  O   LIG    1       28.720 -20.370   5.139  0.00  0.00    -0.382 OA
ATOM     22  H   LIG    1       28.571 -21.330   5.040  0.00  0.00    +0.210 HD
ENDBRANCH  18  21
ENDBRANCH  15  18
ENDBRANCH  14  15
BRANCH  14  23
ATOM     23  C   LIG    1       25.709 -18.443   3.198  0.00  0.00    +0.190 C 
BRANCH  23  24
ATOM     24  O   LIG    1       24.447 -17.970   3.673  0.00  0.00    -0.392 OA
ATOM     25  H   LIG    1       24.186 -17.233   3.088  0.00  0.00    +0.209 HD
ENDBRANCH  23  24
ENDBRANCH  14  23
ENDBRANCH  13  14
ENDBRANCH   1  13
BRANCH   5  26
ATOM     26  C   LIG    1       29.038 -12.625   4.323  0.00  0.00    +0.190 C 
BRANCH  26  27
ATOM     27  O   LIG    1       28.935 -11.899   5.543  0.00  0.00    -0.392 OA
ATOM     28  H   LIG    1       28.806 -10.954   5.312  0.00  0.00    +0.209 HD
ENDBRANCH  26  27
ENDBRANCH   5  26
TORSDOF 14
ENDMDL
MODEL 2
REMARK VINA RESULT:      -2.4      1.973      2.376
REMARK  Name = *****
REMARK                            x       y       z     vdW  Elec       q    Type
REMARK                         _______ _______ _______ _____ _____    ______ ____
ROOT
ATOM      1  C   LIG    1       25.389 -14.927   3.055  0.00  0.00    +0.282 C 
ATOM      2  C   LIG    1       24.498 -13.667   3.052  0.00  0.00    +0.201 C 
ATOM      3  C   LIG    1       24.841 -12.734   4.223  0.00  0.00    +0.179 C 
ATOM      4  C   LIG    1       26.329 -12.777   4.604  0.00  0.00    +0.177 C 
ATOM      5  C   LIG    1       27.176 -13.321   3.446  0.00  0.00    +0.178 C 
ATOM      6  O   LIG    1       26.792 -14.658   3.084  0.00  0.00    -0.341 OA
ENDROOT
BRANCH   2   7
ATOM      7  O   LIG    1       24.682 -12.941   1.820  0.00  0.00    -0.384 OA
ATOM      8  H   LIG    1       25.630 -12.970   1.597  0.00  0.00    +0.210 HD
ENDBRANCH   2   7
BRANCH   3   9
ATOM      9  O   LIG    1       24.051 -13.025   5.386  0.00  0.00    -0.386 OA
ATOM     10  H   LIG    1       23.280 -12.423   5.347  0.00  0.00    +0.210 HD
ENDBRANCH   3   9
BRANCH   4  11
ATOM     11  O   LIG    1       26.507 -13.590   5.782  0.00  0.00    -0.387 OA
ATOM     12  H   LIG    1       26.810 -12.964   6.472  0.00  0.00    +0.210 HD
ENDBRANCH   4  11
BRANCH   1  13
ATOM     13  O   LIG    1       24.992 -15.811   4.113  0.00  0.00    -0.341 OA
BRANCH  13  14
ATOM     14  C   LIG    1       24.111 -16.869   3.672  0.00  0.00    +0.178 C 
BRANCH  14  15
ATOM     15  C   LIG    1       24.781 -18.253   3.930  0.00  0.00    +0.181 C 
BRANCH  15  16
ATOM     16  O   LIG    1       25.925 -18.473   3.075  0.00  0.00    -0.386 OA
ATOM     17  H   LIG    1       26.722 -18.452   3.651  0.00  0.00    +0.210 HD
ENDBRANCH  15  16
BRANCH  15  18
ATOM     18  C   LIG    1       23.855 -19.465   3.740  0.00  0.00    +0.208 C 
BRANCH  18  20
ATOM     19  O   LIG    1       23.050 -20.081   5.969  0.00  0.00    -0.298 OA
ATOM     20  C   LIG    1       23.745 -20.341   4.975  0.00  0.00    +0.257 C 
ENDBRANCH  18  20
BRANCH  18  21
ATOM     21  O   LIG    1       24.370 -20.333   2.703  0.00  0.00    -0.382 OA
ATOM     22  H   LIG    1       24.797 -21.090   3.149  0.00  0.00    +0.210 HD
ENDBRANCH  18  21
ENDBRANCH  15  18
ENDBRANCH  14  15
BRANCH  14  23
ATOM     23  C   LIG    1       22.722 -16.838   4.351  0.00  0.00    +0.190 C 
BRANCH  23  24
ATOM     24  O   LIG    1       22.518 -15.590   5.016  0.00  0.00    -0.392 OA
ATOM     25  H   LIG    1       22.824 -15.709   5.935  0.00  0.00    +0.209 HD
ENDBRANCH  23  24
ENDBRANCH  14  23
ENDBRANCH  13  14
ENDBRANCH   1  13
BRANCH   5  26
ATOM     26  C   LIG    1       28.678 -13.317   3.783  0.00  0.00    +0.190 C 
BRANCH  26  27
ATOM     27  O   LIG    1       29.054 -12.289   4.693  0.00  0.00    -0.392 OA
ATOM     28  H   LIG    1       28.472 -11.519   4.521  0.00  0.00    +0.209 HD
ENDBRANCH  26  27
ENDBRANCH   5  26
TORSDOF 14
ENDMDL
MODEL 3
REMARK VINA RESULT:      -2.2      1.945      3.765
REMARK  Name = *****
REMARK                            x       y       z     vdW  Elec       q    Type
REMARK                         _______ _______ _______ _____ _____    ______ ____
ROOT
ATOM      1  C   LIG    1       25.117 -14.852   4.549  0.00  0.00    +0.282 C 
ATOM      2  C   LIG    1       26.594 -14.515   4.253  0.00  0.00    +0.201 C 
ATOM      3  C   LIG    1       26.728 -13.618   3.012  0.00  0.00    +0.179 C 
ATOM      4  C   LIG    1       25.538 -12.662   2.837  0.00  0.00    +0.177 C 
ATOM      5  C   LIG    1       24.787 -12.472   4.162  0.00  0.00    +0.178 C 
ATOM      6  O   LIG    1       24.262 -13.713   4.662  0.00  0.00    -0.341 OA
ENDROOT
BRANCH   2   7
ATOM      7  O   LIG    1       27.173 -13.825   5.379  0.00  0.00    -0.384 OA
ATOM      8  H   LIG    1       26.893 -14.290   6.188  0.00  0.00    +0.210 HD
ENDBRANCH   2   7
BRANCH   3   9
ATOM      9  O   LIG    1       26.889 -14.390   1.812  0.00  0.00    -0.386 OA
ATOM     10  H   LIG    1       27.453 -13.852   1.220  0.00  0.00    +0.210 HD
ENDBRANCH   3   9
BRANCH   4  11
ATOM     11  O   LIG    1       24.648 -13.171   1.823  0.00  0.00    -0.387 OA
ATOM     12  H   LIG    1       25.022 -12.845   0.979  0.00  0.00    +0.210 HD
ENDBRANCH   4  11
BRANCH   1  13
ATOM     13  O   LIG    1       24.624 -15.797   3.588  0.00  0.00    -0.341 OA
BRANCH  13  14
ATOM     14  C   LIG    1       24.949 -17.167   3.918  0.00  0.00    +0.178 C 
BRANCH  14  15
ATOM     15  C   LIG    1       23.708 -18.077   3.663  0.00  0.00    +0.181 C 
BRANCH  15  16
ATOM     16  O   LIG    1       22.545 -17.629   4.394  0.00  0.00    -0.386 OA
ATOM     17  H   LIG    1       21.900 -18.372   4.389  0.00  0.00    +0.210 HD
ENDBRANCH  15  16
BRANCH  15  18
ATOM     18  C   LIG    1       23.908 -19.558   4.025  0.00  0.00    +0.208 C 
BRANCH  18  20
ATOM     19  O   LIG    1       22.575 -20.220   5.969  0.00  0.00    -0.298 OA
ATOM     20  C   LIG    1       22.716 -20.171   4.738  0.00  0.00    +0.257 C 
ENDBRANCH  18  20
BRANCH  18  21
ATOM     21  O   LIG    1       25.017 -19.706   4.942  0.00  0.00    -0.382 OA
ATOM     22  H   LIG    1       24.687 -20.211   5.710  0.00  0.00    +0.210 HD
ENDBRANCH  18  21
ENDBRANCH  15  18
ENDBRANCH  14  15
BRANCH  14  23
ATOM     23  C   LIG    1       26.160 -17.720   3.132  0.00  0.00    +0.190 C 
BRANCH  23  24
ATOM     24  O   LIG    1       27.208 -18.097   4.027  0.00  0.00    -0.392 OA
ATOM     25  H   LIG    1       28.026 -18.142   3.498  0.00  0.00    +0.209 HD
ENDBRANCH  23  24
ENDBRANCH  14  23
ENDBRANCH  13  14
ENDBRANCH   1  13
BRANCH   5  26
ATOM     26  C   LIG    1       23.626 -11.470   4.024  0.00  0.00    +0.190 C 
BRANCH  26  27
ATOM     27  O   LIG    1       23.045 -11.447   2.725  0.00  0.00    -0.392 OA
ATOM     28  H   LIG    1       22.232 -10.901   2.778  0.00  0.00    +0.209 HD
ENDBRANCH  26  27
ENDBRANCH   5  26
TORSDOF 14
ENDMDL
MODEL 4
REMARK VINA RESULT:      -2.1      1.439      3.452
REMARK  Name = *****
REMARK                            x       y       z     vdW  Elec       q    Type
REMARK                         _______ _______ _______ _____ _____    ______ ____
ROOT
ATOM      1  C   LIG    1       26.588 -15.238   4.742  0.00  0.00    +0.282 C 
ATOM      2  C   LIG    1       27.536 -14.091   5.153  0.00  0.00    +0.201 C 
ATOM      3  C   LIG    1       27.875 -13.187   3.959  0.00  0.00    +0.179 C 
ATOM      4  C   LIG    1       26.722 -13.077   2.948  0.00  0.00    +0.177 C 
ATOM      5  C   LIG    1       25.385 -13.457   3.598  0.00  0.00    +0.178 C 
ATOM      6  O   LIG    1       25.393 -14.809   4.087  0.00  0.00    -0.341 OA
ENDROOT
BRANCH   2   7
ATOM      7  O   LIG    1       26.914 -13.285   6.175  0.00  0.00    -0.384 OA
ATOM      8  H   LIG    1       26.437 -13.884   6.777  0.00  0.00    +0.210 HD
ENDBRANCH   2   7
BRANCH   3   9
ATOM      9  O   LIG    1       29.057 -13.629   3.274  0.00  0.00    -0.386 OA
ATOM     10  H   LIG    1       29.233 -14.535   3.597  0.00  0.00    +0.210 HD
ENDBRANCH   3   9
BRANCH   4  11
ATOM     11  O   LIG    1       26.988 -13.923   1.812  0.00  0.00    -0.387 OA
ATOM     12  H   LIG    1       26.128 -13.994   1.349  0.00  0.00    +0.210 HD
ENDBRANCH   4  11
BRANCH   1  13
ATOM     13  O   LIG    1       27.300 -16.216   3.971  0.00  0.00    -0.341 OA
BRANCH  13  14
ATOM     14  C   LIG    1       27.033 -17.574   4.387  0.00  0.00    +0.178 C 
BRANCH  14  15
ATOM     15  C   LIG    1       26.091 -18.265   3.355  0.00  0.00    +0.181 C 
BRANCH  15  16
ATOM     16  O   LIG    1       24.843 -17.554   3.195  0.00  0.00    -0.386 OA
ATOM     17  H   LIG    1       24.463 -17.832   2.332  0.00  0.00    +0.210 HD
ENDBRANCH  15  16
BRANCH  15  18
ATOM     18  C   LIG    1       25.724 -19.721   3.687  0.00  0.00    +0.208 C 
BRANCH  18  20
ATOM     19  O   LIG    1       23.505 -19.746   4.721  0.00  0.00    -0.298 OA
ATOM     20  C   LIG    1       24.227 -19.969   3.738  0.00  0.00    +0.257 C 
ENDBRANCH  18  20
BRANCH  18  21
ATOM     21  O   LIG    1       26.214 -20.075   5.001  0.00  0.00    -0.382 OA
ATOM     22  H   LIG    1       25.900 -19.386   5.619  0.00  0.00    +0.210 HD
ENDBRANCH  18  21
ENDBRANCH  15  18
ENDBRANCH  14  15
BRANCH  14  23
ATOM     23  C   LIG    1       28.311 -18.427   4.565  0.00  0.00    +0.190 C 
BRANCH  23  24
ATOM     24  O   LIG    1       29.349 -17.653   5.167  0.00  0.00    -0.392 OA
ATOM     25  H   LIG    1       29.307 -17.826   6.127  0.00  0.00    +0.209 HD
ENDBRANCH  23  24
ENDBRANCH  14  23
ENDBRANCH  13  14
ENDBRANCH   1  13
BRANCH   5  26
ATOM     26  C   LIG    1       24.207 -13.296   2.621  0.00  0.00    +0.190 C 
BRANCH  26  27
ATOM     27  O   LIG    1       24.278 -12.113   1.833  0.00  0.00    -0.392 OA
ATOM     28  H   LIG    1       23.779 -12.282   1.005  0.00  0.00    +0.209 HD
ENDBRANCH  26  27
ENDBRANCH   5  26
TORSDOF 14
ENDMDL
MODEL 5
REMARK VINA RESULT:      -2.1      2.086      6.679
REMARK  Name = *****
REMARK                            x       y       z     vdW  Elec       q    Type
REMARK                         _______ _______ _______ _____ _____    ______ ____
ROOT
ATOM      1  C   LIG    1       24.739 -18.506   3.291  0.00  0.00    +0.282 C 
ATOM      2  C   LIG    1       25.740 -19.642   2.996  0.00  0.00    +0.201 C 
ATOM      3  C   LIG    1       25.973 -20.522   4.235  0.00  0.00    +0.179 C 
ATOM      4  C   LIG    1       24.727 -20.635   5.128  0.00  0.00    +0.177 C 
ATOM      5  C   LIG    1       23.455 -20.287   4.342  0.00  0.00    +0.178 C 
ATOM      6  O   LIG    1       23.491 -18.944   3.833  0.00  0.00    -0.341 OA
ENDROOT
BRANCH   2   7
ATOM      7  O   LIG    1       25.235 -20.475   1.933  0.00  0.00    -0.384 OA
ATOM      8  H   LIG    1       24.349 -20.149   1.696  0.00  0.00    +0.210 HD
ENDBRANCH   2   7
BRANCH   3   9
ATOM      9  O   LIG    1       27.074 -20.049   5.025  0.00  0.00    -0.386 OA
ATOM     10  H   LIG    1       27.066 -19.074   4.944  0.00  0.00    +0.210 HD
ENDBRANCH   3   9
BRANCH   4  11
ATOM     11  O   LIG    1       24.866 -19.766   6.269  0.00  0.00    -0.387 OA
ATOM     12  H   LIG    1       24.041 -19.239   6.282  0.00  0.00    +0.210 HD
ENDBRANCH   4  11
BRANCH   1  13
ATOM     13  O   LIG    1       25.356 -17.504   4.112  0.00  0.00    -0.341 OA
BRANCH  13  14
ATOM     14  C   LIG    1       26.310 -16.688   3.395  0.00  0.00    +0.178 C 
BRANCH  14  15
ATOM     15  C   LIG    1       25.662 -15.316   3.034  0.00  0.00    +0.181 C 
BRANCH  15  16
ATOM     16  O   LIG    1       26.494 -14.537   2.146  0.00  0.00    -0.386 OA
ATOM     17  H   LIG    1       26.012 -13.701   1.961  0.00  0.00    +0.210 HD
ENDBRANCH  15  16
BRANCH  15  18
ATOM     18  C   LIG    1       25.345 -14.414   4.238  0.00  0.00    +0.208 C 
BRANCH  18  20
ATOM     19  O   LIG    1       23.849 -12.951   2.966  0.00  0.00    -0.298 OA
ATOM     20  C   LIG    1       24.129 -13.531   4.026  0.00  0.00    +0.257 C 
ENDBRANCH  18  20
BRANCH  18  21
ATOM     21  O   LIG    1       26.440 -13.502   4.484  0.00  0.00    -0.382 OA
ATOM     22  H   LIG    1       26.927 -13.406   3.643  0.00  0.00    +0.210 HD
ENDBRANCH  18  21
ENDBRANCH  15  18
ENDBRANCH  14  15
BRANCH  14  23
ATOM     23  C   LIG    1       27.623 -16.444   4.175  0.00  0.00    +0.190 C 
BRANCH  23  24
ATOM     24  O   LIG    1       28.335 -17.670   4.350  0.00  0.00    -0.392 OA
ATOM     25  H   LIG    1       28.670 -17.671   5.267  0.00  0.00    +0.209 HD
ENDBRANCH  23  24
ENDBRANCH  14  23
ENDBRANCH  13  14
ENDBRANCH   1  13
BRANCH   5  26
ATOM     26  C   LIG    1       22.189 -20.453   5.201  0.00  0.00    +0.190 C 
BRANCH  26  27
ATOM     27  O   LIG    1       21.391 -21.572   4.830  0.00  0.00    -0.392 OA
ATOM     28  H   LIG    1       20.565 -21.530   5.358  0.00  0.00    +0.209 HD
ENDBRANCH  26  27
ENDBRANCH   5  26
TORSDOF 14
ENDMDL
MODEL 6
REMARK VINA RESULT:      -1.8      1.901      2.653
REMARK  Name = *****
REMARK                            x       y       z     vdW  Elec       q    Type
REMARK                         _______ _______ _______ _____ _____    ______ ____
ROOT
ATOM      1  C   LIG    1       24.855 -14.933   3.085  0.00  0.00    +0.282 C 
ATOM      2  C   LIG    1       24.098 -13.588   3.077  0.00  0.00    +0.201 C 
ATOM      3  C   LIG    1       24.584 -12.663   4.203  0.00  0.00    +0.179 C 
ATOM      4  C   LIG    1       26.075 -12.850   4.527  0.00  0.00    +0.177 C 
ATOM      5  C   LIG    1       26.812 -13.511   3.354  0.00  0.00    +0.178 C 
ATOM      6  O   LIG    1       26.277 -14.810   3.050  0.00  0.00    -0.341 OA
ENDROOT
BRANCH   2   7
ATOM      7  O   LIG    1       24.303 -12.919   1.816  0.00  0.00    -0.384 OA
ATOM      8  H   LIG    1       23.809 -13.410   1.136  0.00  0.00    +0.210 HD
ENDBRANCH   2   7
BRANCH   3   9
ATOM      9  O   LIG    1       23.818 -12.838   5.405  0.00  0.00    -0.386 OA
ATOM     10  H   LIG    1       22.891 -12.634   5.167  0.00  0.00    +0.210 HD
ENDBRANCH   3   9
BRANCH   4  11
ATOM     11  O   LIG    1       26.218 -13.643   5.722  0.00  0.00    -0.387 OA
ATOM     12  H   LIG    1       25.491 -14.297   5.675  0.00  0.00    +0.210 HD
ENDBRANCH   4  11
BRANCH   1  13
ATOM     13  O   LIG    1       24.414 -15.741   4.186  0.00  0.00    -0.341 OA
BRANCH  13  14
ATOM     14  C   LIG    1       24.823 -17.124   4.077  0.00  0.00    +0.178 C 
BRANCH  14  15
ATOM     15  C   LIG    1       23.589 -18.010   3.726  0.00  0.00    +0.181 C 
BRANCH  15  16
ATOM     16  O   LIG    1       22.423 -17.652   4.501  0.00  0.00    -0.386 OA
ATOM     17  H   LIG    1       22.343 -18.316   5.221  0.00  0.00    +0.210 HD
ENDBRANCH  15  16
BRANCH  15  18
ATOM     18  C   LIG    1       23.799 -19.520   3.926  0.00  0.00    +0.208 C 
BRANCH  18  20
ATOM     19  O   LIG    1       22.777 -20.013   6.095  0.00  0.00    -0.298 OA
ATOM     20  C   LIG    1       22.785 -20.151   4.863  0.00  0.00    +0.257 C 
ENDBRANCH  18  20
BRANCH  18  21
ATOM     21  O   LIG    1       25.088 -19.771   4.534  0.00  0.00    -0.382 OA
ATOM     22  H   LIG    1       25.542 -18.909   4.609  0.00  0.00    +0.210 HD
ENDBRANCH  18  21
ENDBRANCH  15  18
ENDBRANCH  14  15
BRANCH  14  23
ATOM     23  C   LIG    1       25.936 -17.357   3.029  0.00  0.00    +0.190 C 
BRANCH  23  24
ATOM     24  O   LIG    1       27.186 -17.608   3.674  0.00  0.00    -0.392 OA
ATOM     25  H   LIG    1       27.842 -17.023   3.250  0.00  0.00    +0.209 HD
ENDBRANCH  23  24
ENDBRANCH  14  23
ENDBRANCH  13  14
ENDBRANCH   1  13
BRANCH   5  26
ATOM     26  C   LIG    1       28.319 -13.653   3.632  0.00  0.00    +0.190 C 
BRANCH  26  27
ATOM     27  O   LIG    1       28.855 -12.596   4.420  0.00  0.00    -0.392 OA
ATOM     28  H   LIG    1       28.224 -12.429   5.153  0.00  0.00    +0.209 HD
ENDBRANCH  26  27
ENDBRANCH   5  26
TORSDOF 14
ENDMDL
MODEL 7
REMARK VINA RESULT:      -1.7      2.017      4.808
REMARK  Name = *****
REMARK                            x       y       z     vdW  Elec       q    Type
REMARK                         _______ _______ _______ _____ _____    ______ ____
ROOT
ATOM      1  C   LIG    1       25.524 -12.607   4.865  0.00  0.00    +0.282 C 
ATOM      2  C   LIG    1       24.432 -11.572   4.524  0.00  0.00    +0.201 C 
ATOM      3  C   LIG    1       23.637 -11.984   3.276  0.00  0.00    +0.179 C 
ATOM      4  C   LIG    1       23.502 -13.508   3.131  0.00  0.00    +0.177 C 
ATOM      5  C   LIG    1       23.733 -14.209   4.477  0.00  0.00    +0.178 C 
ATOM      6  O   LIG    1       25.047 -13.947   4.998  0.00  0.00    -0.341 OA
ENDROOT
BRANCH   2   7
ATOM      7  O   LIG    1       23.514 -11.447   5.630  0.00  0.00    -0.384 OA
ATOM      8  H   LIG    1       24.005 -11.068   6.381  0.00  0.00    +0.210 HD
ENDBRANCH   2   7
BRANCH   3   9
ATOM      9  O   LIG    1       24.214 -11.448   2.075  0.00  0.00    -0.386 OA
ATOM     10  H   LIG    1       23.752 -11.889   1.334  0.00  0.00    +0.210 HD
ENDBRANCH   3   9
BRANCH   4  11
ATOM     11  O   LIG    1       24.439 -13.988   2.147  0.00  0.00    -0.387 OA
ATOM     12  H   LIG    1       24.046 -14.822   1.815  0.00  0.00    +0.210 HD
ENDBRANCH   4  11
BRANCH   1  13
ATOM     13  O   LIG    1       26.604 -12.515   3.924  0.00  0.00    -0.341 OA
BRANCH  13  14
ATOM     14  C   LIG    1       27.750 -13.317   4.291  0.00  0.00    +0.178 C 
BRANCH  14  15
ATOM     15  C   LIG    1       27.831 -14.570   3.368  0.00  0.00    +0.181 C 
BRANCH  15  16
ATOM     16  O   LIG    1       27.233 -14.334   2.074  0.00  0.00    -0.386 OA
ATOM     17  H   LIG    1       27.168 -15.206   1.625  0.00  0.00    +0.210 HD
ENDBRANCH  15  16
BRANCH  15  18
ATOM     18  C   LIG    1       27.163 -15.834   3.933  0.00  0.00    +0.208 C 
BRANCH  18  20
ATOM     19  O   LIG    1       27.928 -18.097   4.472  0.00  0.00    -0.298 OA
ATOM     20  C   LIG    1       28.155 -16.879   4.411  0.00  0.00    +0.257 C 
ENDBRANCH  18  20
BRANCH  18  21
ATOM     21  O   LIG    1       26.383 -16.492   2.907  0.00  0.00    -0.382 OA
ATOM     22  H   LIG    1       25.890 -17.215   3.342  0.00  0.00    +0.210 HD
ENDBRANCH  18  21
ENDBRANCH  15  18
ENDBRANCH  14  15
BRANCH  14  23
ATOM     23  C   LIG    1       29.088 -12.545   4.227  0.00  0.00    +0.190 C 
BRANCH  23  24
ATOM     24  O   LIG    1       29.281 -11.778   5.416  0.00  0.00    -0.392 OA
ATOM     25  H   LIG    1       28.813 -10.932   5.283  0.00  0.00    +0.209 HD
ENDBRANCH  23  24
ENDBRANCH  14  23
ENDBRANCH  13  14
ENDBRANCH   1  13
BRANCH   5  26
ATOM     26  C   LIG    1       23.544 -15.733   4.368  0.00  0.00    +0.190 C 
BRANCH  26  27
ATOM     27  O   LIG    1       22.253 -16.177   4.773  0.00  0.00    -0.392 OA
ATOM     28  H   LIG    1       22.152 -15.953   5.723  0.00  0.00    +0.209 HD
ENDBRANCH  26  27
ENDBRANCH   5  26
TORSDOF 14
ENDMDL
MODEL 8
REMARK VINA RESULT:      -1.5      1.857      2.939
REMARK  Name = *****
REMARK                            x       y       z     vdW  Elec       q    Type
REMARK                         _______ _______ _______ _____ _____    ______ ____
ROOT
ATOM      1  C   LIG    1       25.904 -15.407   3.479  0.00  0.00    +0.282 C 
ATOM      2  C   LIG    1       25.809 -14.504   2.232  0.00  0.00    +0.201 C 
ATOM      3  C   LIG    1       24.990 -13.236   2.517  0.00  0.00    +0.179 C 
ATOM      4  C   LIG    1       25.133 -12.748   3.967  0.00  0.00    +0.177 C 
ATOM      5  C   LIG    1       26.406 -13.313   4.614  0.00  0.00    +0.178 C 
ATOM      6  O   LIG    1       26.395 -14.750   4.649  0.00  0.00    -0.341 OA
ENDROOT
BRANCH   2   7
ATOM      7  O   LIG    1       27.131 -14.109   1.812  0.00  0.00    -0.384 OA
ATOM      8  H   LIG    1       27.033 -13.487   1.069  0.00  0.00    +0.210 HD
ENDBRANCH   2   7
BRANCH   3   9
ATOM      9  O   LIG    1       23.598 -13.422   2.221  0.00  0.00    -0.386 OA
ATOM     10  H   LIG    1       23.114 -12.793   2.792  0.00  0.00    +0.210 HD
ENDBRANCH   3   9
BRANCH   4  11
ATOM     11  O   LIG    1       23.970 -13.132   4.728  0.00  0.00    -0.387 OA
ATOM     12  H   LIG    1       23.735 -14.020   4.390  0.00  0.00    +0.210 HD
ENDBRANCH   4  11
BRANCH   1  13
ATOM     13  O   LIG    1       24.645 -16.054   3.718  0.00  0.00    -0.341 OA
BRANCH  13  14
ATOM     14  C   LIG    1       24.774 -17.468   3.994  0.00  0.00    +0.178 C 
BRANCH  14  15
ATOM     15  C   LIG    1       23.440 -18.195   3.644  0.00  0.00    +0.181 C 
BRANCH  15  16
ATOM     16  O   LIG    1       22.322 -17.675   4.397  0.00  0.00    -0.386 OA
ATOM     17  H   LIG    1       22.217 -16.732   4.140  0.00  0.00    +0.210 HD
ENDBRANCH  15  16
BRANCH  15  18
ATOM     18  C   LIG    1       23.453 -19.715   3.874  0.00  0.00    +0.208 C 
BRANCH  18  20
ATOM     19  O   LIG    1       24.867 -20.378   5.760  0.00  0.00    -0.298 OA
ATOM     20  C   LIG    1       23.743 -20.104   5.313  0.00  0.00    +0.257 C 
ENDBRANCH  18  20
BRANCH  18  21
ATOM     21  O   LIG    1       24.503 -20.333   3.094  0.00  0.00    -0.382 OA
ATOM     22  H   LIG    1       24.201 -21.235   2.872  0.00  0.00    +0.210 HD
ENDBRANCH  18  21
ENDBRANCH  15  18
ENDBRANCH  14  15
BRANCH  14  23
ATOM     23  C   LIG    1       25.940 -18.140   3.232  0.00  0.00    +0.190 C 
BRANCH  23  24
ATOM     24  O   LIG    1       26.762 -18.886   4.133  0.00  0.00    -0.392 OA
ATOM     25  H   LIG    1       26.484 -19.818   4.059  0.00  0.00    +0.209 HD
ENDBRANCH  23  24
ENDBRANCH  14  23
ENDBRANCH  13  14
ENDBRANCH   1  13
BRANCH   5  26
ATOM     26  C   LIG    1       26.601 -12.789   6.047  0.00  0.00    +0.190 C 
BRANCH  26  27
ATOM     27  O   LIG    1       27.104 -13.769   6.949  0.00  0.00    -0.392 OA
ATOM     28  H   LIG    1       26.399 -14.440   7.074  0.00  0.00    +0.209 HD
ENDBRANCH  26  27
ENDBRANCH   5  26
TORSDOF 14
ENDMDL
MODEL 9
REMARK VINA RESULT:      -0.9      1.120      2.800
REMARK  Name = *****
REMARK                            x       y       z     vdW  Elec       q    Type
REMARK                         _______ _______ _______ _____ _____    ______ ____
ROOT
ATOM      1  C   LIG    1       26.446 -15.450   4.389  0.00  0.00    +0.282 C 
ATOM      2  C   LIG    1       27.479 -14.439   4.929  0.00  0.00    +0.201 C 
ATOM      3  C   LIG    1       27.704 -13.285   3.940  0.00  0.00    +0.179 C 
ATOM      4  C   LIG    1       26.443 -12.933   3.136  0.00  0.00    +0.177 C 
ATOM      5  C   LIG    1       25.180 -13.443   3.845  0.00  0.00    +0.178 C 
ATOM      6  O   LIG    1       25.197 -14.872   4.005  0.00  0.00    -0.341 OA
ENDROOT
BRANCH   2   7
ATOM      7  O   LIG    1       27.016 -13.887   6.178  0.00  0.00    -0.384 OA
ATOM      8  H   LIG    1       27.644 -14.155   6.872  0.00  0.00    +0.210 HD
ENDBRANCH   2   7
BRANCH   3   9
ATOM      9  O   LIG    1       28.778 -13.565   3.029  0.00  0.00    -0.386 OA
ATOM     10  H   LIG    1       28.360 -13.939   2.227  0.00  0.00    +0.210 HD
ENDBRANCH   3   9
BRANCH   4  11
ATOM     11  O   LIG    1       26.537 -13.495   1.812  0.00  0.00    -0.387 OA
ATOM     12  H   LIG    1       26.616 -14.460   1.956  0.00  0.00    +0.210 HD
ENDBRANCH   4  11
BRANCH   1  13
ATOM     13  O   LIG    1       27.022 -16.229   3.330  0.00  0.00    -0.341 OA
BRANCH  13  14
ATOM     14  C   LIG    1       26.779 -17.647   3.468  0.00  0.00    +0.178 C 
BRANCH  14  15
ATOM     15  C   LIG    1       27.512 -18.185   4.735  0.00  0.00    +0.181 C 
BRANCH  15  16
ATOM     16  O   LIG    1       28.909 -17.816   4.754  0.00  0.00    -0.386 OA
ATOM     17  H   LIG    1       29.235 -17.880   3.829  0.00  0.00    +0.210 HD
ENDBRANCH  15  16
BRANCH  15  18
ATOM     18  C   LIG    1       27.461 -19.712   4.911  0.00  0.00    +0.208 C 
BRANCH  18  20
ATOM     19  O   LIG    1       25.379 -20.468   5.954  0.00  0.00    -0.298 OA
ATOM     20  C   LIG    1       26.575 -20.158   6.060  0.00  0.00    +0.257 C 
ENDBRANCH  18  20
BRANCH  18  21
ATOM     21  O   LIG    1       28.777 -20.225   5.224  0.00  0.00    -0.382 OA
ATOM     22  H   LIG    1       28.925 -20.071   6.177  0.00  0.00    +0.210 HD
ENDBRANCH  18  21
ENDBRANCH  15  18
ENDBRANCH  14  15
BRANCH  14  23
ATOM     23  C   LIG    1       25.278 -18.010   3.552  0.00  0.00    +0.190 C 
BRANCH  23  24
ATOM     24  O   LIG    1       25.049 -19.320   3.029  0.00  0.00    -0.392 OA
ATOM     25  H   LIG    1       24.919 -19.218   2.067  0.00  0.00    +0.209 HD
ENDBRANCH  23  24
ENDBRANCH  14  23
ENDBRANCH  13  14
ENDBRANCH   1  13
BRANCH   5  26
ATOM     26  C   LIG    1       23.900 -13.050   3.087  0.00  0.00    +0.190 C 
BRANCH  26  27
ATOM     27  O   LIG    1       24.137 -12.199   1.971  0.00  0.00    -0.392 OA
ATOM     28  H   LIG    1       24.040 -11.274   2.282  0.00  0.00    +0.209 HD
ENDBRANCH  26  27
ENDBRANCH   5  26
TORSDOF 14
ENDMDL
