MODEL 1
REMARK VINA RESULT:      -7.7      0.000      0.000
REMARK  Name = *****
REMARK                            x       y       z     vdW  Elec       q    Type
REMARK                         _______ _______ _______ _____ _____    ______ ____
ROOT
ATOM      1  N   LIG    1       27.337 -20.243   8.042  0.00  0.00    -0.301 N 
ATOM      2  H   LIG    1       26.788 -19.406   7.865  0.00  0.00    +0.150 HD
ATOM      3  C   LIG    1       28.706 -20.125   8.146  0.00  0.00    +0.232 C 
ATOM      4  O   LIG    1       29.400 -21.098   8.453  0.00  0.00    -0.275 OA
ENDROOT
BRANCH   1  10
ATOM      5  C   LIG    1       25.027 -21.140   4.619  0.00  0.00    +0.025 C 
ATOM      6  C   LIG    1       24.066 -21.560   5.745  0.00  0.00    +0.042 C 
ATOM      7  CA  LIG    1       24.428 -22.973   6.275  0.00  0.00    +0.201 C 
ATOM      8  N   LIG    1       25.258 -22.807   7.476  0.00  0.00    -0.271 N 
ATOM      9  C   LIG    1       25.103 -21.568   8.268  0.00  0.00    +0.165 C 
ATOM     10  CA  LIG    1       26.648 -21.522   8.400  0.00  0.00    +0.190 C 
ATOM     11  C   LIG    1       26.610 -22.628   7.321  0.00  0.00    +0.240 C 
ATOM     12  O   LIG    1       27.367 -23.091   6.496  0.00  0.00    -0.273 OA
ATOM     13  S   LIG    1       24.309 -20.368   7.150  0.00  0.00    -0.127 S 
ATOM     14  C   LIG    1       22.628 -21.391   5.241  0.00  0.00    +0.025 C 
BRANCH   7  15
ATOM     15  C   LIG    1       23.250 -23.903   6.589  0.00  0.00    +0.327 C 
ATOM     16  O   LIG    1       22.232 -23.555   7.172  0.00  0.00    -0.249 OA
BRANCH  15  17
ATOM     17  OXT LIG    1       23.402 -25.163   6.114  0.00  0.00    -0.479 OA
ATOM     18  HXT LIG    1       23.175 -25.818   6.804  0.00  0.00    +0.295 HD
ENDBRANCH  15  17
ENDBRANCH   7  15
ENDBRANCH   1  10
BRANCH   3  19
ATOM     19  C   LIG    1       29.320 -18.792   7.720  0.00  0.00    +0.213 C 
BRANCH  19  20
ATOM     20  C   LIG    1       30.190 -18.193   8.821  0.00  0.00    -0.025 A 
ATOM     21  C   LIG    1       29.692 -17.993  10.118  0.00  0.00    +0.005 A 
ATOM     22  C   LIG    1       30.496 -17.416  11.104  0.00  0.00    +0.000 A 
ATOM     23  C   LIG    1       31.793 -17.007  10.803  0.00  0.00    +0.000 A 
ATOM     24  C   LIG    1       32.299 -17.197   9.520  0.00  0.00    +0.000 A 
ATOM     25  C   LIG    1       31.512 -17.808   8.540  0.00  0.00    +0.005 A 
ENDBRANCH  19  20
BRANCH  19  26
ATOM     26  C   LIG    1       30.016 -18.825   6.357  0.00  0.00    +0.321 C 
ATOM     27  O   LIG    1       31.021 -19.482   6.117  0.00  0.00    -0.250 OA
BRANCH  26  28
ATOM     28  O   LIG    1       29.533 -17.963   5.427  0.00  0.00    -0.480 OA
ATOM     29  H   LIG    1       30.207 -17.362   5.034  0.00  0.00    +0.295 HD
ENDBRANCH  26  28
ENDBRANCH  19  26
ENDBRANCH   3  19
TORSDOF 7
ENDMDL
MODEL 2
REMARK VINA RESULT:      -6.4      3.429      5.465
REMARK  Name = *****
REMARK                            x       y       z     vdW  Elec       q    Type
REMARK                         _______ _______ _______ _____ _____    ______ ____
ROOT
ATOM      1  N   LIG    1       26.000 -23.688   6.424  0.00  0.00    -0.301 N 
ATOM      2  H   LIG    1       26.768 -24.103   6.945  0.00  0.00    +0.150 HD
ATOM      3  C   LIG    1       25.806 -22.325   6.507  0.00  0.00    +0.232 C 
ATOM      4  O   LIG    1       24.948 -21.769   5.818  0.00  0.00    -0.275 OA
ENDROOT
BRANCH   1  10
ATOM      5  C   LIG    1       25.308 -27.341   8.430  0.00  0.00    +0.025 C 
ATOM      6  C   LIG    1       25.615 -27.837   7.006  0.00  0.00    +0.042 C 
ATOM      7  CA  LIG    1       24.359 -27.717   6.101  0.00  0.00    +0.201 C 
ATOM      8  N   LIG    1       24.464 -26.461   5.346  0.00  0.00    -0.271 N 
ATOM      9  C   LIG    1       25.812 -25.915   5.081  0.00  0.00    +0.165 C 
ATOM     10  CA  LIG    1       25.251 -24.509   5.423  0.00  0.00    +0.190 C 
ATOM     11  C   LIG    1       24.027 -25.301   5.936  0.00  0.00    +0.240 C 
ATOM     12  O   LIG    1       23.105 -25.115   6.698  0.00  0.00    -0.273 OA
ATOM     13  S   LIG    1       26.911 -26.710   6.298  0.00  0.00    -0.127 S 
ATOM     14  C   LIG    1       26.227 -29.239   7.105  0.00  0.00    +0.025 C 
BRANCH   7  15
ATOM     15  C   LIG    1       24.106 -28.879   5.135  0.00  0.00    +0.327 C 
ATOM     16  O   LIG    1       24.813 -29.144   4.172  0.00  0.00    -0.249 OA
BRANCH  15  17
ATOM     17  OXT LIG    1       23.036 -29.645   5.462  0.00  0.00    -0.479 OA
ATOM     18  HXT LIG    1       23.294 -30.336   6.105  0.00  0.00    +0.295 HD
ENDBRANCH  15  17
ENDBRANCH   7  15
ENDBRANCH   1  10
BRANCH   3  19
ATOM     19  C   LIG    1       26.589 -21.580   7.588  0.00  0.00    +0.213 C 
BRANCH  19  20
ATOM     20  C   LIG    1       27.726 -20.755   6.993  0.00  0.00    -0.025 A 
ATOM     21  C   LIG    1       29.017 -20.786   7.545  0.00  0.00    +0.005 A 
ATOM     22  C   LIG    1       30.037 -19.999   7.003  0.00  0.00    +0.000 A 
ATOM     23  C   LIG    1       29.777 -19.156   5.926  0.00  0.00    +0.000 A 
ATOM     24  C   LIG    1       28.501 -19.114   5.370  0.00  0.00    +0.000 A 
ATOM     25  C   LIG    1       27.487 -19.926   5.884  0.00  0.00    +0.005 A 
ENDBRANCH  19  20
BRANCH  19  26
ATOM     26  C   LIG    1       25.717 -20.785   8.562  0.00  0.00    +0.321 C 
ATOM     27  O   LIG    1       26.113 -20.345   9.635  0.00  0.00    -0.250 OA
BRANCH  26  28
ATOM     28  O   LIG    1       24.402 -20.697   8.240  0.00  0.00    -0.480 OA
ATOM     29  H   LIG    1       23.936 -19.919   8.623  0.00  0.00    +0.295 HD
ENDBRANCH  26  28
ENDBRANCH  19  26
ENDBRANCH   3  19
TORSDOF 7
ENDMDL
MODEL 3
REMARK VINA RESULT:      -6.3      1.845      2.932
REMARK  Name = *****
REMARK                            x       y       z     vdW  Elec       q    Type
REMARK                         _______ _______ _______ _____ _____    ______ ____
ROOT
ATOM      1  N   LIG    1       28.317 -20.075   7.819  0.00  0.00    -0.301 N 
ATOM      2  H   LIG    1       28.449 -20.759   8.560  0.00  0.00    +0.150 HD
ATOM      3  C   LIG    1       29.427 -19.457   7.285  0.00  0.00    +0.232 C 
ATOM      4  O   LIG    1       29.320 -18.693   6.323  0.00  0.00    -0.275 OA
ENDROOT
BRANCH   1  10
ATOM      5  C   LIG    1       26.298 -23.644   8.839  0.00  0.00    +0.025 C 
ATOM      6  C   LIG    1       25.814 -23.431   7.393  0.00  0.00    +0.042 C 
ATOM      7  CA  LIG    1       24.655 -22.400   7.351  0.00  0.00    +0.201 C 
ATOM      8  N   LIG    1       25.228 -21.089   7.017  0.00  0.00    -0.271 N 
ATOM      9  C   LIG    1       26.486 -21.052   6.241  0.00  0.00    +0.165 C 
ATOM     10  CA  LIG    1       26.972 -19.920   7.184  0.00  0.00    +0.190 C 
ATOM     11  C   LIG    1       25.742 -20.319   8.030  0.00  0.00    +0.240 C 
ATOM     12  O   LIG    1       25.379 -20.202   9.180  0.00  0.00    -0.273 OA
ATOM     13  S   LIG    1       27.233 -22.702   6.440  0.00  0.00    -0.127 S 
ATOM     14  C   LIG    1       25.502 -24.801   6.782  0.00  0.00    +0.025 C 
BRANCH   7  15
ATOM     15  C   LIG    1       23.500 -22.715   6.393  0.00  0.00    +0.327 C 
ATOM     16  O   LIG    1       22.481 -23.311   6.713  0.00  0.00    -0.249 OA
BRANCH  15  17
ATOM     17  OXT LIG    1       23.675 -22.227   5.141  0.00  0.00    -0.479 OA
ATOM     18  HXT LIG    1       24.532 -22.525   4.774  0.00  0.00    +0.295 HD
ENDBRANCH  15  17
ENDBRANCH   7  15
ENDBRANCH   1  10
BRANCH   3  19
ATOM     19  C   LIG    1       30.749 -19.646   8.029  0.00  0.00    +0.213 C 
BRANCH  19  20
ATOM     20  C   LIG    1       31.056 -18.465   8.945  0.00  0.00    -0.025 A 
ATOM     21  C   LIG    1       32.174 -17.645   8.729  0.00  0.00    +0.005 A 
ATOM     22  C   LIG    1       32.454 -16.586   9.597  0.00  0.00    +0.000 A 
ATOM     23  C   LIG    1       31.640 -16.350  10.702  0.00  0.00    +0.000 A 
ATOM     24  C   LIG    1       30.528 -17.157  10.929  0.00  0.00    +0.000 A 
ATOM     25  C   LIG    1       30.223 -18.194  10.044  0.00  0.00    +0.005 A 
ENDBRANCH  19  20
BRANCH  19  26
ATOM     26  C   LIG    1       30.889 -21.000   8.729  0.00  0.00    +0.321 C 
ATOM     27  O   LIG    1       29.961 -21.780   8.904  0.00  0.00    -0.250 OA
BRANCH  26  28
ATOM     28  O   LIG    1       32.100 -21.254   9.287  0.00  0.00    -0.480 OA
ATOM     29  H   LIG    1       32.345 -20.654  10.028  0.00  0.00    +0.295 HD
ENDBRANCH  26  28
ENDBRANCH  19  26
ENDBRANCH   3  19
TORSDOF 7
ENDMDL
MODEL 4
REMARK VINA RESULT:      -6.2      4.915      7.876
REMARK  Name = *****
REMARK                            x       y       z     vdW  Elec       q    Type
REMARK                         _______ _______ _______ _____ _____    ______ ____
ROOT
ATOM      1  N   LIG    1       24.773 -26.283   6.578  0.00  0.00    -0.301 N 
ATOM      2  H   LIG    1       24.569 -26.423   7.565  0.00  0.00    +0.150 HD
ATOM      3  C   LIG    1       24.769 -24.998   6.079  0.00  0.00    +0.232 C 
ATOM      4  O   LIG    1       25.104 -24.775   4.913  0.00  0.00    -0.275 OA
ENDROOT
BRANCH   1  10
ATOM      5  C   LIG    1       23.740 -29.701   8.838  0.00  0.00    +0.025 C 
ATOM      6  C   LIG    1       25.128 -30.103   8.308  0.00  0.00    +0.042 C 
ATOM      7  CA  LIG    1       25.026 -30.630   6.852  0.00  0.00    +0.201 C 
ATOM      8  N   LIG    1       25.351 -29.520   5.945  0.00  0.00    -0.271 N 
ATOM      9  C   LIG    1       26.229 -28.442   6.446  0.00  0.00    +0.165 C 
ATOM     10  CA  LIG    1       25.284 -27.424   5.756  0.00  0.00    +0.190 C 
ATOM     11  C   LIG    1       24.353 -28.646   5.592  0.00  0.00    +0.240 C 
ATOM     12  O   LIG    1       23.172 -28.846   5.410  0.00  0.00    -0.273 OA
ATOM     13  S   LIG    1       26.167 -28.563   8.263  0.00  0.00    -0.127 S 
ATOM     14  C   LIG    1       25.769 -31.063   9.316  0.00  0.00    +0.025 C 
BRANCH   7  15
ATOM     15  C   LIG    1       25.894 -31.846   6.508  0.00  0.00    +0.327 C 
ATOM     16  O   LIG    1       27.111 -31.882   6.628  0.00  0.00    -0.249 OA
BRANCH  15  17
ATOM     17  OXT LIG    1       25.188 -32.927   6.096  0.00  0.00    -0.479 OA
ATOM     18  HXT LIG    1       25.045 -33.546   6.839  0.00  0.00    +0.295 HD
ENDBRANCH  15  17
ENDBRANCH   7  15
ENDBRANCH   1  10
BRANCH   3  19
ATOM     19  C   LIG    1       24.192 -23.908   6.982  0.00  0.00    +0.213 C 
BRANCH  19  20
ATOM     20  C   LIG    1       25.233 -22.845   7.319  0.00  0.00    -0.025 A 
ATOM     21  C   LIG    1       26.585 -23.014   6.981  0.00  0.00    +0.005 A 
ATOM     22  C   LIG    1       27.528 -22.041   7.326  0.00  0.00    +0.000 A 
ATOM     23  C   LIG    1       27.139 -20.906   8.034  0.00  0.00    +0.000 A 
ATOM     24  C   LIG    1       25.802 -20.727   8.377  0.00  0.00    +0.000 A 
ATOM     25  C   LIG    1       24.849 -21.678   8.002  0.00  0.00    +0.005 A 
ENDBRANCH  19  20
BRANCH  19  26
ATOM     26  C   LIG    1       22.868 -23.316   6.488  0.00  0.00    +0.321 C 
ATOM     27  O   LIG    1       21.766 -23.716   6.841  0.00  0.00    -0.250 OA
BRANCH  26  28
ATOM     28  O   LIG    1       22.968 -22.386   5.505  0.00  0.00    -0.480 OA
ATOM     29  H   LIG    1       23.397 -22.706   4.679  0.00  0.00    +0.295 HD
ENDBRANCH  26  28
ENDBRANCH  19  26
ENDBRANCH   3  19
TORSDOF 7
ENDMDL
MODEL 5
REMARK VINA RESULT:      -6.1      9.015     10.885
REMARK  Name = *****
REMARK                            x       y       z     vdW  Elec       q    Type
REMARK                         _______ _______ _______ _____ _____    ______ ____
ROOT
ATOM      1  N   LIG    1       25.029 -28.581  11.839  0.00  0.00    -0.301 N 
ATOM      2  H   LIG    1       24.531 -28.136  11.072  0.00  0.00    +0.150 HD
ATOM      3  C   LIG    1       24.920 -28.039  13.102  0.00  0.00    +0.232 C 
ATOM      4  O   LIG    1       25.429 -28.601  14.074  0.00  0.00    -0.275 OA
ENDROOT
BRANCH   1  10
ATOM      5  C   LIG    1       25.391 -28.884   7.640  0.00  0.00    +0.025 C 
ATOM      6  C   LIG    1       25.011 -30.329   8.011  0.00  0.00    +0.042 C 
ATOM      7  CA  LIG    1       26.257 -31.113   8.504  0.00  0.00    +0.201 C 
ATOM      8  N   LIG    1       26.263 -31.073   9.973  0.00  0.00    -0.271 N 
ATOM      9  C   LIG    1       24.972 -30.914  10.674  0.00  0.00    +0.165 C 
ATOM     10  CA  LIG    1       25.675 -29.914  11.631  0.00  0.00    +0.190 C 
ATOM     11  C   LIG    1       26.824 -29.987  10.598  0.00  0.00    +0.240 C 
ATOM     12  O   LIG    1       27.773 -29.307  10.277  0.00  0.00    -0.273 OA
ATOM     13  S   LIG    1       23.821 -30.236   9.435  0.00  0.00    -0.127 S 
ATOM     14  C   LIG    1       24.265 -30.951   6.825  0.00  0.00    +0.025 C 
BRANCH   7  15
ATOM     15  C   LIG    1       26.377 -32.565   8.028  0.00  0.00    +0.327 C 
ATOM     16  O   LIG    1       25.731 -33.497   8.486  0.00  0.00    -0.249 OA
BRANCH  15  17
ATOM     17  OXT LIG    1       27.241 -32.736   6.998  0.00  0.00    -0.479 OA
ATOM     18  HXT LIG    1       26.824 -32.471   6.154  0.00  0.00    +0.295 HD
ENDBRANCH  15  17
ENDBRANCH   7  15
ENDBRANCH   1  10
BRANCH   3  19
ATOM     19  C   LIG    1       24.278 -26.656  13.207  0.00  0.00    +0.213 C 
BRANCH  19  20
ATOM     20  C   LIG    1       22.846 -26.735  13.725  0.00  0.00    -0.025 A 
ATOM     21  C   LIG    1       21.799 -27.201  12.913  0.00  0.00    +0.005 A 
ATOM     22  C   LIG    1       20.489 -27.238  13.398  0.00  0.00    +0.000 A 
ATOM     23  C   LIG    1       20.204 -26.786  14.684  0.00  0.00    +0.000 A 
ATOM     24  C   LIG    1       21.231 -26.319  15.500  0.00  0.00    +0.000 A 
ATOM     25  C   LIG    1       22.548 -26.315  15.033  0.00  0.00    +0.005 A 
ENDBRANCH  19  20
BRANCH  19  26
ATOM     26  C   LIG    1       25.129 -25.622  13.949  0.00  0.00    +0.321 C 
ATOM     27  O   LIG    1       25.279 -24.464  13.578  0.00  0.00    -0.250 OA
BRANCH  26  28
ATOM     28  O   LIG    1       25.844 -26.093  15.002  0.00  0.00    -0.480 OA
ATOM     29  H   LIG    1       25.330 -26.650  15.631  0.00  0.00    +0.295 HD
ENDBRANCH  26  28
ENDBRANCH  19  26
ENDBRANCH   3  19
TORSDOF 7
ENDMDL
MODEL 6
REMARK VINA RESULT:      -6.1      8.452     11.135
REMARK  Name = *****
REMARK                            x       y       z     vdW  Elec       q    Type
REMARK                         _______ _______ _______ _____ _____    ______ ____
ROOT
ATOM      1  N   LIG    1       25.157 -30.361   9.597  0.00  0.00    -0.301 N 
ATOM      2  H   LIG    1       24.394 -29.749   9.874  0.00  0.00    +0.150 HD
ATOM      3  C   LIG    1       25.455 -30.480   8.256  0.00  0.00    +0.232 C 
ATOM      4  O   LIG    1       26.430 -31.136   7.885  0.00  0.00    -0.275 OA
ENDROOT
BRANCH   1  10
ATOM      5  C   LIG    1       24.831 -27.653  12.824  0.00  0.00    +0.025 C 
ATOM      6  C   LIG    1       26.332 -27.990  12.869  0.00  0.00    +0.042 C 
ATOM      7  CA  LIG    1       26.569 -29.340  13.597  0.00  0.00    +0.201 C 
ATOM      8  N   LIG    1       26.687 -30.390  12.576  0.00  0.00    -0.271 N 
ATOM      9  C   LIG    1       27.159 -30.006  11.229  0.00  0.00    +0.165 C 
ATOM     10  CA  LIG    1       26.065 -30.934  10.638  0.00  0.00    +0.190 C 
ATOM     11  C   LIG    1       25.539 -30.967  12.091  0.00  0.00    +0.240 C 
ATOM     12  O   LIG    1       24.494 -31.212  12.652  0.00  0.00    -0.273 OA
ATOM     13  S   LIG    1       26.900 -28.206  11.113  0.00  0.00    -0.127 S 
ATOM     14  C   LIG    1       27.080 -26.785  13.451  0.00  0.00    +0.025 C 
BRANCH   7  15
ATOM     15  C   LIG    1       27.777 -29.401  14.539  0.00  0.00    +0.327 C 
ATOM     16  O   LIG    1       27.941 -28.662  15.500  0.00  0.00    -0.249 OA
BRANCH  15  17
ATOM     17  OXT LIG    1       28.651 -30.395  14.249  0.00  0.00    -0.479 OA
ATOM     18  HXT LIG    1       28.972 -30.819  15.070  0.00  0.00    +0.295 HD
ENDBRANCH  15  17
ENDBRANCH   7  15
ENDBRANCH   1  10
BRANCH   3  19
ATOM     19  C   LIG    1       24.445 -29.895   7.269  0.00  0.00    +0.213 C 
BRANCH  19  20
ATOM     20  C   LIG    1       24.788 -28.456   6.896  0.00  0.00    -0.025 A 
ATOM     21  C   LIG    1       24.034 -27.747   5.948  0.00  0.00    +0.005 A 
ATOM     22  C   LIG    1       24.383 -26.440   5.599  0.00  0.00    +0.000 A 
ATOM     23  C   LIG    1       25.502 -25.836   6.168  0.00  0.00    +0.000 A 
ATOM     24  C   LIG    1       26.261 -26.529   7.108  0.00  0.00    +0.000 A 
ATOM     25  C   LIG    1       25.894 -27.822   7.488  0.00  0.00    +0.005 A 
ENDBRANCH  19  20
BRANCH  19  26
ATOM     26  C   LIG    1       24.169 -30.781   6.051  0.00  0.00    +0.321 C 
ATOM     27  O   LIG    1       23.204 -31.528   5.953  0.00  0.00    -0.250 OA
BRANCH  26  28
ATOM     28  O   LIG    1       25.143 -30.805   5.107  0.00  0.00    -0.480 OA
ATOM     29  H   LIG    1       26.046 -30.608   5.443  0.00  0.00    +0.295 HD
ENDBRANCH  26  28
ENDBRANCH  19  26
ENDBRANCH   3  19
TORSDOF 7
ENDMDL
MODEL 7
REMARK VINA RESULT:      -6.1      9.674     11.203
REMARK  Name = *****
REMARK                            x       y       z     vdW  Elec       q    Type
REMARK                         _______ _______ _______ _____ _____    ______ ____
ROOT
ATOM      1  N   LIG    1       26.326 -30.104  10.866  0.00  0.00    -0.301 N 
ATOM      2  H   LIG    1       26.144 -30.830  11.554  0.00  0.00    +0.150 HD
ATOM      3  C   LIG    1       26.556 -28.818  11.307  0.00  0.00    +0.232 C 
ATOM      4  O   LIG    1       26.873 -27.928  10.515  0.00  0.00    -0.275 OA
ENDROOT
BRANCH   1  10
ATOM      5  C   LIG    1       22.510 -31.309   9.508  0.00  0.00    +0.025 C 
ATOM      6  C   LIG    1       23.415 -32.332   8.799  0.00  0.00    +0.042 C 
ATOM      7  CA  LIG    1       24.039 -31.717   7.519  0.00  0.00    +0.201 C 
ATOM      8  N   LIG    1       25.385 -31.235   7.858  0.00  0.00    -0.271 N 
ATOM      9  C   LIG    1       26.100 -31.886   8.976  0.00  0.00    +0.165 C 
ATOM     10  CA  LIG    1       26.556 -30.476   9.435  0.00  0.00    +0.190 C 
ATOM     11  C   LIG    1       25.517 -29.982   8.403  0.00  0.00    +0.240 C 
ATOM     12  O   LIG    1       24.882 -28.972   8.195  0.00  0.00    -0.273 OA
ATOM     13  S   LIG    1       24.814 -32.725   9.958  0.00  0.00    -0.127 S 
ATOM     14  C   LIG    1       22.613 -33.622   8.591  0.00  0.00    +0.025 C 
BRANCH   7  15
ATOM     15  C   LIG    1       24.115 -32.634   6.293  0.00  0.00    +0.327 C 
ATOM     16  O   LIG    1       24.933 -33.532   6.151  0.00  0.00    -0.249 OA
BRANCH  15  17
ATOM     17  OXT LIG    1       23.148 -32.402   5.372  0.00  0.00    -0.479 OA
ATOM     18  HXT LIG    1       22.941 -33.221   4.879  0.00  0.00    +0.295 HD
ENDBRANCH  15  17
ENDBRANCH   7  15
ENDBRANCH   1  10
BRANCH   3  19
ATOM     19  C   LIG    1       26.255 -28.528  12.778  0.00  0.00    +0.213 C 
BRANCH  19  20
ATOM     20  C   LIG    1       24.840 -27.991  12.969  0.00  0.00    -0.025 A 
ATOM     21  C   LIG    1       23.716 -28.748  12.602  0.00  0.00    +0.005 A 
ATOM     22  C   LIG    1       22.429 -28.225  12.757  0.00  0.00    +0.000 A 
ATOM     23  C   LIG    1       22.250 -26.936  13.253  0.00  0.00    +0.000 A 
ATOM     24  C   LIG    1       23.356 -26.174  13.619  0.00  0.00    +0.000 A 
ATOM     25  C   LIG    1       24.643 -26.705  13.500  0.00  0.00    +0.005 A 
ENDBRANCH  19  20
BRANCH  19  26
ATOM     26  C   LIG    1       26.594 -29.679  13.729  0.00  0.00    +0.321 C 
ATOM     27  O   LIG    1       26.078 -29.833  14.829  0.00  0.00    -0.250 OA
BRANCH  26  28
ATOM     28  O   LIG    1       27.624 -30.476  13.346  0.00  0.00    -0.480 OA
ATOM     29  H   LIG    1       28.088 -30.931  14.086  0.00  0.00    +0.295 HD
ENDBRANCH  26  28
ENDBRANCH  19  26
ENDBRANCH   3  19
TORSDOF 7
ENDMDL
MODEL 8
REMARK VINA RESULT:      -6.0     10.538     12.998
REMARK  Name = *****
REMARK                            x       y       z     vdW  Elec       q    Type
REMARK                         _______ _______ _______ _____ _____    ______ ____
ROOT
ATOM      1  N   LIG    1       24.396 -31.812   8.712  0.00  0.00    -0.301 N 
ATOM      2  H   LIG    1       25.291 -31.509   9.088  0.00  0.00    +0.150 HD
ATOM      3  C   LIG    1       24.196 -31.750   7.349  0.00  0.00    +0.232 C 
ATOM      4  O   LIG    1       23.162 -32.195   6.845  0.00  0.00    -0.275 OA
ENDROOT
BRANCH   1  10
ATOM      5  C   LIG    1       24.047 -29.252  12.056  0.00  0.00    +0.025 C 
ATOM      6  C   LIG    1       24.014 -30.634  12.734  0.00  0.00    +0.042 C 
ATOM      7  CA  LIG    1       22.594 -31.253  12.646  0.00  0.00    +0.201 C 
ATOM      8  N   LIG    1       22.570 -32.168  11.496  0.00  0.00    -0.271 N 
ATOM      9  C   LIG    1       23.842 -32.785  11.067  0.00  0.00    +0.165 C 
ATOM     10  CA  LIG    1       23.417 -32.514   9.599  0.00  0.00    +0.190 C 
ATOM     11  C   LIG    1       22.312 -31.651  10.251  0.00  0.00    +0.240 C 
ATOM     12  O   LIG    1       21.589 -30.737   9.921  0.00  0.00    -0.273 OA
ATOM     13  S   LIG    1       25.157 -31.743  11.777  0.00  0.00    -0.127 S 
ATOM     14  C   LIG    1       24.587 -30.490  14.148  0.00  0.00    +0.025 C 
BRANCH   7  15
ATOM     15  C   LIG    1       22.094 -31.985  13.896  0.00  0.00    +0.327 C 
ATOM     16  O   LIG    1       22.437 -33.115  14.218  0.00  0.00    -0.249 OA
BRANCH  15  17
ATOM     17  OXT LIG    1       21.259 -31.248  14.668  0.00  0.00    -0.479 OA
ATOM     18  HXT LIG    1       20.424 -31.732  14.827  0.00  0.00    +0.295 HD
ENDBRANCH  15  17
ENDBRANCH   7  15
ENDBRANCH   1  10
BRANCH   3  19
ATOM     19  C   LIG    1       25.232 -30.978   6.533  0.00  0.00    +0.213 C 
BRANCH  19  20
ATOM     20  C   LIG    1       26.080 -31.908   5.672  0.00  0.00    -0.025 A 
ATOM     21  C   LIG    1       25.816 -32.080   4.304  0.00  0.00    +0.005 A 
ATOM     22  C   LIG    1       26.586 -32.961   3.539  0.00  0.00    +0.000 A 
ATOM     23  C   LIG    1       27.607 -33.699   4.134  0.00  0.00    +0.000 A 
ATOM     24  C   LIG    1       27.878 -33.540   5.490  0.00  0.00    +0.000 A 
ATOM     25  C   LIG    1       27.135 -32.633   6.251  0.00  0.00    +0.005 A 
ENDBRANCH  19  20
BRANCH  19  26
ATOM     26  C   LIG    1       24.662 -29.791   5.752  0.00  0.00    +0.321 C 
ATOM     27  O   LIG    1       25.324 -28.826   5.391  0.00  0.00    -0.250 OA
BRANCH  26  28
ATOM     28  O   LIG    1       23.315 -29.787   5.585  0.00  0.00    -0.480 OA
ATOM     29  H   LIG    1       22.798 -29.741   6.421  0.00  0.00    +0.295 HD
ENDBRANCH  26  28
ENDBRANCH  19  26
ENDBRANCH   3  19
TORSDOF 7
ENDMDL
MODEL 9
REMARK VINA RESULT:      -5.9      5.334      7.712
REMARK  Name = *****
REMARK                            x       y       z     vdW  Elec       q    Type
REMARK                         _______ _______ _______ _____ _____    ______ ____
ROOT
ATOM      1  N   LIG    1       25.001 -23.533   6.838  0.00  0.00    -0.301 N 
ATOM      2  H   LIG    1       25.997 -23.329   6.834  0.00  0.00    +0.150 HD
ATOM      3  C   LIG    1       24.595 -24.843   6.702  0.00  0.00    +0.232 C 
ATOM      4  O   LIG    1       23.403 -25.145   6.797  0.00  0.00    -0.275 OA
ENDROOT
BRANCH   1  10
ATOM      5  C   LIG    1       24.083 -21.682   3.153  0.00  0.00    +0.025 C 
ATOM      6  C   LIG    1       24.134 -20.465   4.092  0.00  0.00    +0.042 C 
ATOM      7  CA  LIG    1       22.800 -20.319   4.873  0.00  0.00    +0.201 C 
ATOM      8  N   LIG    1       22.977 -20.945   6.191  0.00  0.00    -0.271 N 
ATOM      9  C   LIG    1       24.341 -21.012   6.756  0.00  0.00    +0.165 C 
ATOM     10  CA  LIG    1       24.025 -22.462   7.209  0.00  0.00    +0.190 C 
ATOM     11  C   LIG    1       22.781 -22.299   6.306  0.00  0.00    +0.240 C 
ATOM     12  O   LIG    1       21.998 -23.024   5.733  0.00  0.00    -0.273 OA
ATOM     13  S   LIG    1       25.469 -20.790   5.343  0.00  0.00    -0.127 S 
ATOM     14  C   LIG    1       24.557 -19.240   3.273  0.00  0.00    +0.025 C 
BRANCH   7  15
ATOM     15  C   LIG    1       22.269 -18.892   5.049  0.00  0.00    +0.327 C 
ATOM     16  O   LIG    1       22.560 -18.157   5.983  0.00  0.00    -0.249 OA
BRANCH  15  17
ATOM     17  OXT LIG    1       21.469 -18.475   4.038  0.00  0.00    -0.479 OA
ATOM     18  HXT LIG    1       21.364 -19.181   3.370  0.00  0.00    +0.295 HD
ENDBRANCH  15  17
ENDBRANCH   7  15
ENDBRANCH   1  10
BRANCH   3  19
ATOM     19  C   LIG    1       25.659 -25.857   6.283  0.00  0.00    +0.213 C 
BRANCH  19  20
ATOM     20  C   LIG    1       25.538 -27.160   7.068  0.00  0.00    -0.025 A 
ATOM     21  C   LIG    1       24.591 -28.136   6.719  0.00  0.00    +0.005 A 
ATOM     22  C   LIG    1       24.476 -29.310   7.469  0.00  0.00    +0.000 A 
ATOM     23  C   LIG    1       25.282 -29.510   8.588  0.00  0.00    +0.000 A 
ATOM     24  C   LIG    1       26.223 -28.549   8.946  0.00  0.00    +0.000 A 
ATOM     25  C   LIG    1       26.368 -27.391   8.178  0.00  0.00    +0.005 A 
ENDBRANCH  19  20
BRANCH  19  26
ATOM     26  C   LIG    1       25.762 -26.074   4.771  0.00  0.00    +0.321 C 
ATOM     27  O   LIG    1       26.546 -26.852   4.242  0.00  0.00    -0.250 OA
BRANCH  26  28
ATOM     28  O   LIG    1       25.013 -25.242   4.004  0.00  0.00    -0.480 OA
ATOM     29  H   LIG    1       24.967 -25.490   3.052  0.00  0.00    +0.295 HD
ENDBRANCH  26  28
ENDBRANCH  19  26
ENDBRANCH   3  19
TORSDOF 7
ENDMDL
