MODEL 1
REMARK VINA RESULT:      -7.8      0.000      0.000
REMARK  Name = *****
REMARK                            x       y       z     vdW  Elec       q    Type
REMARK                         _______ _______ _______ _____ _____    ______ ____
ROOT
ATOM      1  S   LIG    1       30.945 -18.705   8.570  0.00  0.00    +0.074 S 
ATOM      2  O   LIG    1       32.157 -18.545   7.801  0.00  0.00    -0.150 OA
ATOM      3  O   LIG    1       30.874 -19.608   9.703  0.00  0.00    -0.150 OA
ENDROOT
BRANCH   1   7
ATOM      4  C   LIG    1       27.628 -19.898   5.664  0.00  0.00    +0.025 A 
ATOM      5  C   LIG    1       27.647 -20.403   6.968  0.00  0.00    +0.024 A 
ATOM      6  C   LIG    1       28.668 -20.057   7.854  0.00  0.00    +0.030 A 
ATOM      7  C   LIG    1       29.659 -19.166   7.439  0.00  0.00    +0.109 A 
ATOM      8  C   LIG    1       29.615 -18.592   6.167  0.00  0.00    +0.030 A 
ATOM      9  C   LIG    1       28.589 -18.951   5.291  0.00  0.00    +0.024 A 
BRANCH   4  10
ATOM     10  N   LIG    1       26.536 -20.152   4.829  0.00  0.00    -0.358 N 
ATOM     11  H   LIG    1       26.198 -19.332   4.333  0.00  0.00    +0.142 HD
ATOM     12  H   LIG    1       25.784 -20.666   5.277  0.00  0.00    +0.142 HD
ENDBRANCH   4  10
ENDBRANCH   1   7
BRANCH   1  13
ATOM     13  N   LIG    1       30.347 -17.207   9.104  0.00  0.00    -0.194 N 
ATOM     14  H   LIG    1       29.438 -17.423   9.518  0.00  0.00    +0.176 HD
BRANCH  13  15
ATOM     15  C   LIG    1       31.137 -16.736  10.178  0.00  0.00    +0.177 A 
ATOM     16  S   LIG    1       32.767 -16.250  10.039  0.00  0.00    -0.059 S 
ATOM     17  C   LIG    1       32.776 -15.916  11.723  0.00  0.00    +0.068 A 
ATOM     18  C   LIG    1       31.524 -16.160  12.249  0.00  0.00    +0.120 A 
ATOM     19  N   LIG    1       30.565 -16.566  11.342  0.00  0.00    -0.232 NA
ENDBRANCH  13  15
ENDBRANCH   1  13
TORSDOF 4
ENDMDL
MODEL 2
REMARK VINA RESULT:      -7.7      0.061      1.211
REMARK  Name = *****
REMARK                            x       y       z     vdW  Elec       q    Type
REMARK                         _______ _______ _______ _____ _____    ______ ____
ROOT
ATOM      1  S   LIG    1       30.951 -18.691   8.565  0.00  0.00    +0.074 S 
ATOM      2  O   LIG    1       32.153 -18.548   7.776  0.00  0.00    -0.150 OA
ATOM      3  O   LIG    1       30.886 -19.590   9.701  0.00  0.00    -0.150 OA
ENDROOT
BRANCH   1   7
ATOM      4  C   LIG    1       27.580 -19.839   5.701  0.00  0.00    +0.025 A 
ATOM      5  C   LIG    1       28.586 -18.955   5.298  0.00  0.00    +0.024 A 
ATOM      6  C   LIG    1       29.608 -18.587   6.174  0.00  0.00    +0.030 A 
ATOM      7  C   LIG    1       29.641 -19.139   7.456  0.00  0.00    +0.109 A 
ATOM      8  C   LIG    1       28.688 -20.080   7.851  0.00  0.00    +0.030 A 
ATOM      9  C   LIG    1       27.671 -20.436   6.964  0.00  0.00    +0.024 A 
BRANCH   4  10
ATOM     10  N   LIG    1       26.636 -20.296   4.777  0.00  0.00    -0.358 N 
ATOM     11  H   LIG    1       26.408 -19.620   4.054  0.00  0.00    +0.142 HD
ATOM     12  H   LIG    1       25.806 -20.700   5.200  0.00  0.00    +0.142 HD
ENDBRANCH   4  10
ENDBRANCH   1   7
BRANCH   1  13
ATOM     13  N   LIG    1       30.380 -17.184   9.104  0.00  0.00    -0.194 N 
ATOM     14  H   LIG    1       29.466 -17.384   9.514  0.00  0.00    +0.176 HD
BRANCH  13  15
ATOM     15  C   LIG    1       31.176 -16.733  10.182  0.00  0.00    +0.177 A 
ATOM     16  S   LIG    1       32.812 -16.266  10.047  0.00  0.00    -0.059 S 
ATOM     17  C   LIG    1       32.826 -15.948  11.734  0.00  0.00    +0.068 A 
ATOM     18  C   LIG    1       31.571 -16.183  12.258  0.00  0.00    +0.120 A 
ATOM     19  N   LIG    1       30.607 -16.568  11.348  0.00  0.00    -0.232 NA
ENDBRANCH  13  15
ENDBRANCH   1  13
TORSDOF 4
ENDMDL
MODEL 3
REMARK VINA RESULT:      -7.3      1.374      1.582
REMARK  Name = *****
REMARK                            x       y       z     vdW  Elec       q    Type
REMARK                         _______ _______ _______ _____ _____    ______ ____
ROOT
ATOM      1  S   LIG    1       30.821 -19.441   8.176  0.00  0.00    +0.074 S 
ATOM      2  O   LIG    1       31.854 -19.560   7.173  0.00  0.00    -0.150 OA
ATOM      3  O   LIG    1       30.967 -20.026   9.495  0.00  0.00    -0.150 OA
ENDROOT
BRANCH   1   7
ATOM      4  C   LIG    1       26.966 -21.098   6.368  0.00  0.00    +0.025 A 
ATOM      5  C   LIG    1       27.473 -21.620   7.563  0.00  0.00    +0.024 A 
ATOM      6  C   LIG    1       28.660 -21.130   8.110  0.00  0.00    +0.030 A 
ATOM      7  C   LIG    1       29.324 -20.082   7.471  0.00  0.00    +0.109 A 
ATOM      8  C   LIG    1       28.794 -19.498   6.320  0.00  0.00    +0.030 A 
ATOM      9  C   LIG    1       27.608 -20.000   5.783  0.00  0.00    +0.024 A 
BRANCH   4  10
ATOM     10  N   LIG    1       25.715 -21.509   5.898  0.00  0.00    -0.358 N 
ATOM     11  H   LIG    1       25.146 -20.754   5.527  0.00  0.00    +0.142 HD
ATOM     12  H   LIG    1       25.200 -22.092   6.550  0.00  0.00    +0.142 HD
ENDBRANCH   4  10
ENDBRANCH   1   7
BRANCH   1  13
ATOM     13  N   LIG    1       30.367 -17.820   8.410  0.00  0.00    -0.194 N 
ATOM     14  H   LIG    1       29.453 -17.869   8.861  0.00  0.00    +0.176 HD
BRANCH  13  15
ATOM     15  C   LIG    1       31.218 -17.223   9.368  0.00  0.00    +0.177 A 
ATOM     16  S   LIG    1       30.881 -17.134  11.038  0.00  0.00    -0.059 S 
ATOM     17  C   LIG    1       32.367 -16.304  11.261  0.00  0.00    +0.068 A 
ATOM     18  C   LIG    1       33.022 -16.199  10.051  0.00  0.00    +0.120 A 
ATOM     19  N   LIG    1       32.389 -16.791   8.976  0.00  0.00    -0.232 NA
ENDBRANCH  13  15
ENDBRANCH   1  13
TORSDOF 4
ENDMDL
MODEL 4
REMARK VINA RESULT:      -7.2      4.322      5.922
REMARK  Name = *****
REMARK                            x       y       z     vdW  Elec       q    Type
REMARK                         _______ _______ _______ _____ _____    ______ ____
ROOT
ATOM      1  S   LIG    1       26.145 -21.249   8.106  0.00  0.00    +0.074 S 
ATOM      2  O   LIG    1       25.727 -21.198   9.488  0.00  0.00    -0.150 OA
ATOM      3  O   LIG    1       25.913 -20.143   7.197  0.00  0.00    -0.150 OA
ENDROOT
BRANCH   1   7
ATOM      4  C   LIG    1       24.248 -24.969   6.251  0.00  0.00    +0.025 A 
ATOM      5  C   LIG    1       23.459 -23.869   6.604  0.00  0.00    +0.024 A 
ATOM      6  C   LIG    1       24.031 -22.738   7.188  0.00  0.00    +0.030 A 
ATOM      7  C   LIG    1       25.412 -22.695   7.386  0.00  0.00    +0.109 A 
ATOM      8  C   LIG    1       26.225 -23.751   6.970  0.00  0.00    +0.030 A 
ATOM      9  C   LIG    1       25.638 -24.877   6.390  0.00  0.00    +0.024 A 
BRANCH   4  10
ATOM     10  N   LIG    1       23.684 -26.042   5.554  0.00  0.00    -0.358 N 
ATOM     11  H   LIG    1       23.180 -25.768   4.715  0.00  0.00    +0.142 HD
ATOM     12  H   LIG    1       23.144 -26.674   6.136  0.00  0.00    +0.142 HD
ENDBRANCH   4  10
ENDBRANCH   1   7
BRANCH   1  13
ATOM     13  N   LIG    1       27.790 -21.653   7.971  0.00  0.00    -0.194 N 
ATOM     14  H   LIG    1       27.837 -22.284   7.169  0.00  0.00    +0.176 HD
BRANCH  13  15
ATOM     15  C   LIG    1       28.528 -20.511   7.582  0.00  0.00    +0.177 A 
ATOM     16  S   LIG    1       28.775 -20.024   5.966  0.00  0.00    -0.059 S 
ATOM     17  C   LIG    1       29.699 -18.696   6.542  0.00  0.00    +0.068 A 
ATOM     18  C   LIG    1       29.710 -18.706   7.922  0.00  0.00    +0.120 A 
ATOM     19  N   LIG    1       28.977 -19.714   8.517  0.00  0.00    -0.232 NA
ENDBRANCH  13  15
ENDBRANCH   1  13
TORSDOF 4
ENDMDL
MODEL 5
REMARK VINA RESULT:      -7.1      3.982      5.133
REMARK  Name = *****
REMARK                            x       y       z     vdW  Elec       q    Type
REMARK                         _______ _______ _______ _____ _____    ______ ____
ROOT
ATOM      1  S   LIG    1       26.583 -21.273   8.196  0.00  0.00    +0.074 S 
ATOM      2  O   LIG    1       25.991 -22.341   8.968  0.00  0.00    -0.150 OA
ATOM      3  O   LIG    1       27.057 -20.052   8.820  0.00  0.00    -0.150 OA
ENDROOT
BRANCH   1   7
ATOM      4  C   LIG    1       23.561 -20.087   4.981  0.00  0.00    +0.025 A 
ATOM      5  C   LIG    1       23.137 -20.387   6.280  0.00  0.00    +0.024 A 
ATOM      6  C   LIG    1       24.054 -20.767   7.261  0.00  0.00    +0.030 A 
ATOM      7  C   LIG    1       25.412 -20.812   6.946  0.00  0.00    +0.109 A 
ATOM      8  C   LIG    1       25.863 -20.443   5.677  0.00  0.00    +0.030 A 
ATOM      9  C   LIG    1       24.934 -20.067   4.705  0.00  0.00    +0.024 A 
BRANCH   4  10
ATOM     10  N   LIG    1       22.652 -19.587   4.044  0.00  0.00    -0.358 N 
ATOM     11  H   LIG    1       22.624 -20.114   3.177  0.00  0.00    +0.142 HD
ATOM     12  H   LIG    1       22.732 -18.588   3.883  0.00  0.00    +0.142 HD
ENDBRANCH   4  10
ENDBRANCH   1   7
BRANCH   1  13
ATOM     13  N   LIG    1       27.851 -21.843   7.219  0.00  0.00    -0.194 N 
ATOM     14  H   LIG    1       27.587 -21.575   6.269  0.00  0.00    +0.176 HD
BRANCH  13  15
ATOM     15  C   LIG    1       29.028 -21.110   7.494  0.00  0.00    +0.177 A 
ATOM     16  S   LIG    1       29.519 -19.715   6.641  0.00  0.00    -0.059 S 
ATOM     17  C   LIG    1       30.912 -19.634   7.642  0.00  0.00    +0.068 A 
ATOM     18  C   LIG    1       30.870 -20.651   8.573  0.00  0.00    +0.120 A 
ATOM     19  N   LIG    1       29.749 -21.456   8.529  0.00  0.00    -0.232 NA
ENDBRANCH  13  15
ENDBRANCH   1  13
TORSDOF 4
ENDMDL
MODEL 6
REMARK VINA RESULT:      -7.0      8.113     11.138
REMARK  Name = *****
REMARK                            x       y       z     vdW  Elec       q    Type
REMARK                         _______ _______ _______ _____ _____    ______ ____
ROOT
ATOM      1  S   LIG    1       25.570 -26.363   5.918  0.00  0.00    +0.074 S 
ATOM      2  O   LIG    1       26.577 -26.777   6.867  0.00  0.00    -0.150 OA
ATOM      3  O   LIG    1       25.865 -26.225   4.505  0.00  0.00    -0.150 OA
ENDROOT
BRANCH   1   7
ATOM      4  C   LIG    1       23.904 -22.363   7.368  0.00  0.00    +0.025 A 
ATOM      5  C   LIG    1       25.283 -22.600   7.365  0.00  0.00    +0.024 A 
ATOM      6  C   LIG    1       25.796 -23.826   6.940  0.00  0.00    +0.030 A 
ATOM      7  C   LIG    1       24.920 -24.811   6.481  0.00  0.00    +0.109 A 
ATOM      8  C   LIG    1       23.548 -24.566   6.406  0.00  0.00    +0.030 A 
ATOM      9  C   LIG    1       23.049 -23.336   6.836  0.00  0.00    +0.024 A 
BRANCH   4  10
ATOM     10  N   LIG    1       23.412 -21.091   7.676  0.00  0.00    -0.358 N 
ATOM     11  H   LIG    1       23.878 -20.339   7.177  0.00  0.00    +0.142 HD
ATOM     12  H   LIG    1       23.341 -20.905   8.671  0.00  0.00    +0.142 HD
ENDBRANCH   4  10
ENDBRANCH   1   7
BRANCH   1  13
ATOM     13  N   LIG    1       24.176 -27.327   6.033  0.00  0.00    -0.194 N 
ATOM     14  H   LIG    1       23.751 -27.280   5.106  0.00  0.00    +0.176 HD
BRANCH  13  15
ATOM     15  C   LIG    1       24.548 -28.681   6.198  0.00  0.00    +0.177 A 
ATOM     16  S   LIG    1       24.409 -29.550   7.660  0.00  0.00    -0.059 S 
ATOM     17  C   LIG    1       25.068 -30.923   6.869  0.00  0.00    +0.068 A 
ATOM     18  C   LIG    1       25.302 -30.623   5.542  0.00  0.00    +0.120 A 
ATOM     19  N   LIG    1       24.936 -29.352   5.145  0.00  0.00    -0.232 NA
ENDBRANCH  13  15
ENDBRANCH   1  13
TORSDOF 4
ENDMDL
MODEL 7
REMARK VINA RESULT:      -6.9      5.701      8.346
REMARK  Name = *****
REMARK                            x       y       z     vdW  Elec       q    Type
REMARK                         _______ _______ _______ _____ _____    ______ ____
ROOT
ATOM      1  S   LIG    1       24.113 -21.337   6.020  0.00  0.00    +0.074 S 
ATOM      2  O   LIG    1       24.265 -21.952   4.722  0.00  0.00    -0.150 OA
ATOM      3  O   LIG    1       23.187 -20.244   6.243  0.00  0.00    -0.150 OA
ENDROOT
BRANCH   1   7
ATOM      4  C   LIG    1       28.252 -19.919   7.337  0.00  0.00    +0.025 A 
ATOM      5  C   LIG    1       27.905 -19.938   5.982  0.00  0.00    +0.024 A 
ATOM      6  C   LIG    1       26.649 -20.388   5.573  0.00  0.00    +0.030 A 
ATOM      7  C   LIG    1       25.720 -20.787   6.535  0.00  0.00    +0.109 A 
ATOM      8  C   LIG    1       26.021 -20.703   7.895  0.00  0.00    +0.030 A 
ATOM      9  C   LIG    1       27.282 -20.254   8.289  0.00  0.00    +0.024 A 
BRANCH   4  10
ATOM     10  N   LIG    1       29.464 -19.350   7.742  0.00  0.00    -0.358 N 
ATOM     11  H   LIG    1       29.506 -19.137   8.734  0.00  0.00    +0.142 HD
ATOM     12  H   LIG    1       29.766 -18.569   7.169  0.00  0.00    +0.142 HD
ENDBRANCH   4  10
ENDBRANCH   1   7
BRANCH   1  13
ATOM     13  N   LIG    1       23.798 -22.495   7.222  0.00  0.00    -0.194 N 
ATOM     14  H   LIG    1       22.780 -22.573   7.247  0.00  0.00    +0.176 HD
BRANCH  13  15
ATOM     15  C   LIG    1       24.253 -23.762   6.791  0.00  0.00    +0.177 A 
ATOM     16  S   LIG    1       25.885 -24.262   6.813  0.00  0.00    -0.059 S 
ATOM     17  C   LIG    1       25.398 -25.768   6.149  0.00  0.00    +0.068 A 
ATOM     18  C   LIG    1       24.026 -25.787   6.005  0.00  0.00    +0.120 A 
ATOM     19  N   LIG    1       23.365 -24.655   6.440  0.00  0.00    -0.232 NA
ENDBRANCH  13  15
ENDBRANCH   1  13
TORSDOF 4
ENDMDL
MODEL 8
REMARK VINA RESULT:      -6.9      1.644      2.209
REMARK  Name = *****
REMARK                            x       y       z     vdW  Elec       q    Type
REMARK                         _______ _______ _______ _____ _____    ______ ____
ROOT
ATOM      1  S   LIG    1       30.287 -19.507   7.678  0.00  0.00    +0.074 S 
ATOM      2  O   LIG    1       31.163 -19.526   6.530  0.00  0.00    -0.150 OA
ATOM      3  O   LIG    1       30.598 -20.243   8.889  0.00  0.00    -0.150 OA
ENDROOT
BRANCH   1   7
ATOM      4  C   LIG    1       26.163 -20.868   6.258  0.00  0.00    +0.025 A 
ATOM      5  C   LIG    1       26.980 -20.091   5.429  0.00  0.00    +0.024 A 
ATOM      6  C   LIG    1       28.233 -19.658   5.865  0.00  0.00    +0.030 A 
ATOM      7  C   LIG    1       28.685 -20.037   7.130  0.00  0.00    +0.109 A 
ATOM      8  C   LIG    1       27.916 -20.873   7.941  0.00  0.00    +0.030 A 
ATOM      9  C   LIG    1       26.664 -21.297   7.492  0.00  0.00    +0.024 A 
BRANCH   4  10
ATOM     10  N   LIG    1       24.968 -21.399   5.764  0.00  0.00    -0.358 N 
ATOM     11  H   LIG    1       24.585 -22.148   6.334  0.00  0.00    +0.142 HD
ATOM     12  H   LIG    1       25.000 -21.645   4.780  0.00  0.00    +0.142 HD
ENDBRANCH   4  10
ENDBRANCH   1   7
BRANCH   1  13
ATOM     13  N   LIG    1       29.925 -17.917   8.155  0.00  0.00    -0.194 N 
ATOM     14  H   LIG    1       29.027 -17.988   8.636  0.00  0.00    +0.176 HD
BRANCH  13  15
ATOM     15  C   LIG    1       30.841 -17.499   9.148  0.00  0.00    +0.177 A 
ATOM     16  S   LIG    1       30.520 -17.508  10.824  0.00  0.00    -0.059 S 
ATOM     17  C   LIG    1       32.092 -16.873  11.095  0.00  0.00    +0.068 A 
ATOM     18  C   LIG    1       32.752 -16.745   9.890  0.00  0.00    +0.120 A 
ATOM     19  N   LIG    1       32.052 -17.172   8.779  0.00  0.00    -0.232 NA
ENDBRANCH  13  15
ENDBRANCH   1  13
TORSDOF 4
ENDMDL
MODEL 9
REMARK VINA RESULT:      -6.9      3.635      5.002
REMARK  Name = *****
REMARK                            x       y       z     vdW  Elec       q    Type
REMARK                         _______ _______ _______ _____ _____    ______ ____
ROOT
ATOM      1  S   LIG    1       26.874 -21.219   7.267  0.00  0.00    +0.074 S 
ATOM      2  O   LIG    1       26.870 -22.662   7.316  0.00  0.00    -0.150 OA
ATOM      3  O   LIG    1       26.940 -20.414   8.472  0.00  0.00    -0.150 OA
ENDROOT
BRANCH   1   7
ATOM      4  C   LIG    1       23.148 -19.925   4.961  0.00  0.00    +0.025 A 
ATOM      5  C   LIG    1       23.055 -20.318   6.300  0.00  0.00    +0.024 A 
ATOM      6  C   LIG    1       24.187 -20.732   7.004  0.00  0.00    +0.030 A 
ATOM      7  C   LIG    1       25.430 -20.716   6.369  0.00  0.00    +0.109 A 
ATOM      8  C   LIG    1       25.554 -20.255   5.057  0.00  0.00    +0.030 A 
ATOM      9  C   LIG    1       24.413 -19.847   4.365  0.00  0.00    +0.024 A 
BRANCH   4  10
ATOM     10  N   LIG    1       22.032 -19.395   4.306  0.00  0.00    -0.358 N 
ATOM     11  H   LIG    1       21.165 -19.882   4.513  0.00  0.00    +0.142 HD
ATOM     12  H   LIG    1       22.165 -19.255   3.310  0.00  0.00    +0.142 HD
ENDBRANCH   4  10
ENDBRANCH   1   7
BRANCH   1  13
ATOM     13  N   LIG    1       28.086 -20.637   6.228  0.00  0.00    -0.194 N 
ATOM     14  H   LIG    1       27.672 -19.818   5.779  0.00  0.00    +0.176 HD
BRANCH  13  15
ATOM     15  C   LIG    1       29.164 -20.132   6.991  0.00  0.00    +0.177 A 
ATOM     16  S   LIG    1       30.120 -21.068   8.050  0.00  0.00    -0.059 S 
ATOM     17  C   LIG    1       31.019 -19.657   8.433  0.00  0.00    +0.068 A 
ATOM     18  C   LIG    1       30.547 -18.594   7.691  0.00  0.00    +0.120 A 
ATOM     19  N   LIG    1       29.524 -18.888   6.811  0.00  0.00    -0.232 NA
ENDBRANCH  13  15
ENDBRANCH   1  13
TORSDOF 4
ENDMDL
