MODEL 1
REMARK VINA RESULT:      -2.9      0.000      0.000
REMARK  Name = *****
REMARK                            x       y       z     vdW  Elec       q    Type
REMARK                         _______ _______ _______ _____ _____    ______ ____
ROOT
ATOM      1  O   LIG    1       21.427 -21.508   4.811  0.00  0.00    -0.273 OA
ATOM      2  C   LIG    1       22.361 -20.780   4.472  0.00  0.00    +0.239 C 
ATOM      3  N   LIG    1       22.354 -19.462   4.844  0.00  0.00    -0.283 N 
ATOM      4  H   LIG    1       21.481 -19.179   5.272  0.00  0.00    +0.155 HD
ATOM      5  C   LIG    1       23.290 -18.481   4.484  0.00  0.00    +0.043 A 
ATOM      6  C   LIG    1       24.644 -18.737   4.207  0.00  0.00    +0.024 A 
ATOM      7  C   LIG    1       25.457 -17.700   3.716  0.00  0.00    +0.027 A 
ATOM      8  C   LIG    1       24.945 -16.412   3.583  0.00  0.00    +0.019 A 
ATOM      9  C   LIG    1       23.629 -16.136   3.938  0.00  0.00    +0.017 A 
ATOM     10 BR   LIG    1       26.056 -15.021   2.947  0.00  0.00    -0.050 Br
ATOM     11  C   LIG    1       25.275 -20.059   4.520  0.00  0.00    +0.093 C 
ATOM     12  N   LIG    1       24.754 -21.205   4.217  0.00  0.00    -0.272 NA
ATOM     13  C   LIG    1       22.806 -17.167   4.392  0.00  0.00    +0.025 A 
ATOM     14  C   LIG    1       23.465 -21.248   3.540  0.00  0.00    +0.238 C 
ENDROOT
BRANCH  11  15
ATOM     15  C   LIG    1       26.585 -20.070   5.268  0.00  0.00    +0.089 A 
ATOM     16  N   LIG    1       27.552 -19.226   4.831  0.00  0.00    -0.253 NA
ATOM     17  C   LIG    1       28.715 -19.216   5.518  0.00  0.00    +0.111 A 
ATOM     18  C   LIG    1       28.963 -20.011   6.626  0.00  0.00    +0.020 A 
ATOM     19  C   LIG    1       27.957 -20.866   7.062  0.00  0.00    +0.004 A 
ATOM     20  C   LIG    1       26.746 -20.896   6.377  0.00  0.00    +0.030 A 
ENDBRANCH  11  15
TORSDOF 1
ENDMDL
MODEL 2
REMARK VINA RESULT:      -2.7      0.700      1.147
REMARK  Name = *****
REMARK                            x       y       z     vdW  Elec       q    Type
REMARK                         _______ _______ _______ _____ _____    ______ ____
ROOT
ATOM      1  O   LIG    1       21.595 -21.209   4.586  0.00  0.00    -0.273 OA
ATOM      2  C   LIG    1       22.563 -20.513   4.276  0.00  0.00    +0.239 C 
ATOM      3  N   LIG    1       22.587 -19.194   4.644  0.00  0.00    -0.283 N 
ATOM      4  H   LIG    1       21.710 -18.881   5.042  0.00  0.00    +0.155 HD
ATOM      5  C   LIG    1       23.567 -18.246   4.313  0.00  0.00    +0.043 A 
ATOM      6  C   LIG    1       24.919 -18.547   4.081  0.00  0.00    +0.024 A 
ATOM      7  C   LIG    1       25.782 -17.539   3.615  0.00  0.00    +0.027 A 
ATOM      8  C   LIG    1       25.317 -16.235   3.461  0.00  0.00    +0.019 A 
ATOM      9  C   LIG    1       24.000 -15.915   3.771  0.00  0.00    +0.017 A 
ATOM     10 BR   LIG    1       26.494 -14.884   2.858  0.00  0.00    -0.050 Br
ATOM     11  C   LIG    1       25.497 -19.887   4.418  0.00  0.00    +0.093 C 
ATOM     12  N   LIG    1       24.949 -21.016   4.102  0.00  0.00    -0.272 NA
ATOM     13  C   LIG    1       23.129 -16.917   4.201  0.00  0.00    +0.025 A 
ATOM     14  C   LIG    1       23.681 -21.021   3.382  0.00  0.00    +0.238 C 
ENDROOT
BRANCH  11  15
ATOM     15  C   LIG    1       26.780 -19.938   5.209  0.00  0.00    +0.089 A 
ATOM     16  N   LIG    1       26.921 -20.961   6.090  0.00  0.00    -0.253 NA
ATOM     17  C   LIG    1       28.081 -21.021   6.778  0.00  0.00    +0.111 A 
ATOM     18  C   LIG    1       29.114 -20.110   6.632  0.00  0.00    +0.020 A 
ATOM     19  C   LIG    1       28.953 -19.073   5.720  0.00  0.00    +0.004 A 
ATOM     20  C   LIG    1       27.769 -18.984   4.992  0.00  0.00    +0.030 A 
ENDBRANCH  11  15
TORSDOF 1
ENDMDL
MODEL 3
REMARK VINA RESULT:      -1.8      2.746      4.903
REMARK  Name = *****
REMARK                            x       y       z     vdW  Elec       q    Type
REMARK                         _______ _______ _______ _____ _____    ______ ____
ROOT
ATOM      1  O   LIG    1       27.050 -20.785   5.577  0.00  0.00    -0.273 OA
ATOM      2  C   LIG    1       26.136 -20.225   4.970  0.00  0.00    +0.239 C 
ATOM      3  N   LIG    1       24.890 -20.168   5.538  0.00  0.00    -0.283 N 
ATOM      4  H   LIG    1       24.816 -20.727   6.379  0.00  0.00    +0.155 HD
ATOM      5  C   LIG    1       23.725 -19.642   4.959  0.00  0.00    +0.043 A 
ATOM      6  C   LIG    1       23.706 -18.598   4.019  0.00  0.00    +0.024 A 
ATOM      7  C   LIG    1       22.493 -18.249   3.399  0.00  0.00    +0.027 A 
ATOM      8  C   LIG    1       21.308 -18.877   3.773  0.00  0.00    +0.019 A 
ATOM      9  C   LIG    1       21.311 -19.852   4.765  0.00  0.00    +0.017 A 
ATOM     10 BR   LIG    1       19.681 -18.380   2.950  0.00  0.00    -0.050 Br
ATOM     11  C   LIG    1       24.923 -17.772   3.734  0.00  0.00    +0.093 C 
ATOM     12  N   LIG    1       26.100 -18.262   3.514  0.00  0.00    -0.272 NA
ATOM     13  C   LIG    1       22.516 -20.229   5.360  0.00  0.00    +0.025 A 
ATOM     14  C   LIG    1       26.293 -19.707   3.551  0.00  0.00    +0.238 C 
ENDROOT
BRANCH  11  15
ATOM     15  C   LIG    1       24.788 -16.269   3.737  0.00  0.00    +0.089 A 
ATOM     16  N   LIG    1       25.783 -15.561   3.147  0.00  0.00    -0.253 NA
ATOM     17  C   LIG    1       25.648 -14.217   3.126  0.00  0.00    +0.111 A 
ATOM     18  C   LIG    1       24.566 -13.541   3.666  0.00  0.00    +0.020 A 
ATOM     19  C   LIG    1       23.555 -14.286   4.262  0.00  0.00    +0.004 A 
ATOM     20  C   LIG    1       23.662 -15.673   4.297  0.00  0.00    +0.030 A 
ENDBRANCH  11  15
TORSDOF 1
ENDMDL
