MODEL 1
REMARK VINA RESULT:      -9.0      0.000      0.000
REMARK  Name = *****
REMARK                            x       y       z     vdW  Elec       q    Type
REMARK                         _______ _______ _______ _____ _____    ______ ____
ROOT
ATOM      1  C   LIG    1       26.461 -22.092   7.403  0.00  0.00    +0.041 A 
ATOM      2  C   LIG    1       25.266 -21.558   6.907  0.00  0.00    +0.062 A 
ATOM      3  C   LIG    1       24.213 -22.391   6.511  0.00  0.00    +0.163 A 
ATOM      4  C   LIG    1       24.361 -23.782   6.611  0.00  0.00    +0.168 A 
ATOM      5  C   LIG    1       25.542 -24.311   7.159  0.00  0.00    +0.050 A 
ATOM      6  C   LIG    1       26.598 -23.472   7.545  0.00  0.00    +0.017 A 
ENDROOT
BRANCH   1   8
ATOM      7  O   LIG    1       27.205 -20.184   8.533  0.00  0.00    -0.270 OA
ATOM      8  C   LIG    1       27.513 -21.121   7.817  0.00  0.00    +0.248 C 
ATOM      9  N   LIG    1       28.773 -21.307   7.254  0.00  0.00    -0.279 N 
ATOM     10  H   LIG    1       28.780 -21.734   6.332  0.00  0.00    +0.155 HD
BRANCH   9  11
ATOM     11  C   LIG    1       29.785 -20.335   7.521  0.00  0.00    +0.074 A 
ATOM     12  C   LIG    1       29.863 -19.159   6.762  0.00  0.00    +0.082 A 
ATOM     13 CL   LIG    1       28.772 -18.826   5.469  0.00  0.00    -0.080 Cl
ATOM     14  C   LIG    1       30.822 -18.211   7.103  0.00  0.00    +0.132 A 
ATOM     15  N   LIG    1       31.709 -18.360   8.116  0.00  0.00    -0.260 NA
ATOM     16  C   LIG    1       31.639 -19.522   8.808  0.00  0.00    +0.132 A 
ATOM     17  C   LIG    1       30.720 -20.530   8.547  0.00  0.00    +0.082 A 
ATOM     18 CL   LIG    1       30.884 -22.032   9.387  0.00  0.00    -0.080 Cl
ENDBRANCH   9  11
ENDBRANCH   1   8
BRANCH   3  19
ATOM     19  O   LIG    1       23.014 -21.916   6.061  0.00  0.00    -0.488 OA
BRANCH  19  20
ATOM     20  C   LIG    1       22.793 -20.513   6.099  0.00  0.00    +0.232 C 
BRANCH  20  21
ATOM     21  C   LIG    1       22.486 -20.044   4.710  0.00  0.00    +0.027 C 
ATOM     22  C   LIG    1       22.264 -18.580   4.434  0.00  0.00    +0.007 C 
ATOM     23  C   LIG    1       23.533 -19.244   3.980  0.00  0.00    +0.007 C 
ENDBRANCH  20  21
ENDBRANCH  19  20
ENDBRANCH   3  19
BRANCH   4  24
ATOM     24  O   LIG    1       23.407 -24.711   6.275  0.00  0.00    -0.430 OA
BRANCH  24  25
ATOM     25  C   LIG    1       23.829 -25.789   5.444  0.00  0.00    +0.541 C 
ATOM     26  F   LIG    1       24.199 -26.808   6.267  0.00  0.00    -0.166 F 
ATOM     27  F   LIG    1       24.950 -25.421   4.771  0.00  0.00    -0.166 F 
ENDBRANCH  24  25
ENDBRANCH   4  24
TORSDOF 7
ENDMDL
MODEL 2
REMARK VINA RESULT:      -8.8      0.764      2.015
REMARK  Name = *****
REMARK                            x       y       z     vdW  Elec       q    Type
REMARK                         _______ _______ _______ _____ _____    ______ ____
ROOT
ATOM      1  C   LIG    1       26.620 -22.149   7.183  0.00  0.00    +0.041 A 
ATOM      2  C   LIG    1       25.974 -21.834   5.981  0.00  0.00    +0.062 A 
ATOM      3  C   LIG    1       24.986 -22.672   5.451  0.00  0.00    +0.163 A 
ATOM      4  C   LIG    1       24.640 -23.846   6.135  0.00  0.00    +0.168 A 
ATOM      5  C   LIG    1       25.253 -24.131   7.368  0.00  0.00    +0.050 A 
ATOM      6  C   LIG    1       26.250 -23.293   7.889  0.00  0.00    +0.017 A 
ENDROOT
BRANCH   1   8
ATOM      7  O   LIG    1       27.293 -20.270   8.400  0.00  0.00    -0.270 OA
ATOM      8  C   LIG    1       27.643 -21.183   7.673  0.00  0.00    +0.248 C 
ATOM      9  N   LIG    1       28.929 -21.343   7.165  0.00  0.00    -0.279 N 
ATOM     10  H   LIG    1       28.983 -21.744   6.233  0.00  0.00    +0.155 HD
BRANCH   9  11
ATOM     11  C   LIG    1       29.919 -20.372   7.507  0.00  0.00    +0.074 A 
ATOM     12  C   LIG    1       30.787 -20.587   8.587  0.00  0.00    +0.082 A 
ATOM     13 CL   LIG    1       30.703 -22.006   9.563  0.00  0.00    -0.080 Cl
ATOM     14  C   LIG    1       31.778 -19.645   8.840  0.00  0.00    +0.132 A 
ATOM     15  N   LIG    1       31.949 -18.512   8.119  0.00  0.00    -0.260 NA
ATOM     16  C   LIG    1       31.072 -18.307   7.107  0.00  0.00    +0.132 A 
ATOM     17  C   LIG    1       30.049 -19.185   6.774  0.00  0.00    +0.082 A 
ATOM     18 CL   LIG    1       28.895 -18.690   5.586  0.00  0.00    -0.080 Cl
ENDBRANCH   9  11
ENDBRANCH   1   8
BRANCH   3  19
ATOM     19  O   LIG    1       24.300 -22.385   4.306  0.00  0.00    -0.488 OA
BRANCH  19  20
ATOM     20  C   LIG    1       24.041 -21.021   4.004  0.00  0.00    +0.232 C 
BRANCH  20  21
ATOM     21  C   LIG    1       22.765 -20.620   4.677  0.00  0.00    +0.027 C 
ATOM     22  C   LIG    1       22.798 -19.879   5.989  0.00  0.00    +0.007 C 
ATOM     23  C   LIG    1       22.415 -19.156   4.728  0.00  0.00    +0.007 C 
ENDBRANCH  20  21
ENDBRANCH  19  20
ENDBRANCH   3  19
BRANCH   4  24
ATOM     24  O   LIG    1       23.681 -24.746   5.739  0.00  0.00    -0.430 OA
BRANCH  24  25
ATOM     25  C   LIG    1       24.144 -26.014   5.284  0.00  0.00    +0.541 C 
ATOM     26  F   LIG    1       24.144 -26.850   6.358  0.00  0.00    -0.166 F 
ATOM     27  F   LIG    1       25.439 -25.901   4.891  0.00  0.00    -0.166 F 
ENDBRANCH  24  25
ENDBRANCH   4  24
TORSDOF 7
ENDMDL
MODEL 3
REMARK VINA RESULT:      -8.3      4.714      7.845
REMARK  Name = *****
REMARK                            x       y       z     vdW  Elec       q    Type
REMARK                         _______ _______ _______ _____ _____    ______ ____
ROOT
ATOM      1  C   LIG    1       24.994 -25.096   6.784  0.00  0.00    +0.041 A 
ATOM      2  C   LIG    1       25.840 -24.077   7.236  0.00  0.00    +0.062 A 
ATOM      3  C   LIG    1       25.390 -22.755   7.330  0.00  0.00    +0.163 A 
ATOM      4  C   LIG    1       24.072 -22.448   6.963  0.00  0.00    +0.168 A 
ATOM      5  C   LIG    1       23.211 -23.484   6.561  0.00  0.00    +0.050 A 
ATOM      6  C   LIG    1       23.670 -24.805   6.458  0.00  0.00    +0.017 A 
ENDROOT
BRANCH   1   8
ATOM      7  O   LIG    1       26.629 -26.655   6.180  0.00  0.00    -0.270 OA
ATOM      8  C   LIG    1       25.561 -26.473   6.738  0.00  0.00    +0.248 C 
ATOM      9  N   LIG    1       24.757 -27.485   7.258  0.00  0.00    -0.279 N 
ATOM     10  H   LIG    1       23.756 -27.322   7.194  0.00  0.00    +0.155 HD
BRANCH   9  11
ATOM     11  C   LIG    1       25.200 -28.836   7.129  0.00  0.00    +0.074 A 
ATOM     12  C   LIG    1       25.846 -29.480   8.193  0.00  0.00    +0.082 A 
ATOM     13 CL   LIG    1       26.157 -28.688   9.693  0.00  0.00    -0.080 Cl
ATOM     14  C   LIG    1       26.197 -30.818   8.045  0.00  0.00    +0.132 A 
ATOM     15  N   LIG    1       25.975 -31.541   6.922  0.00  0.00    -0.260 NA
ATOM     16  C   LIG    1       25.386 -30.884   5.893  0.00  0.00    +0.132 A 
ATOM     17  C   LIG    1       24.997 -29.552   5.941  0.00  0.00    +0.082 A 
ATOM     18 CL   LIG    1       24.440 -28.805   4.485  0.00  0.00    -0.080 Cl
ENDBRANCH   9  11
ENDBRANCH   1   8
BRANCH   3  19
ATOM     19  O   LIG    1       26.165 -21.734   7.805  0.00  0.00    -0.488 OA
BRANCH  19  20
ATOM     20  C   LIG    1       27.541 -21.718   7.450  0.00  0.00    +0.232 C 
BRANCH  20  21
ATOM     21  C   LIG    1       27.944 -20.301   7.182  0.00  0.00    +0.027 C 
ATOM     22  C   LIG    1       29.290 -19.995   6.578  0.00  0.00    +0.007 C 
ATOM     23  C   LIG    1       28.045 -19.847   5.750  0.00  0.00    +0.007 C 
ENDBRANCH  20  21
ENDBRANCH  19  20
ENDBRANCH   3  19
BRANCH   4  24
ATOM     24  O   LIG    1       23.498 -21.202   7.022  0.00  0.00    -0.430 OA
BRANCH  24  25
ATOM     25  C   LIG    1       23.302 -20.530   5.781  0.00  0.00    +0.541 C 
ATOM     26  F   LIG    1       24.509 -20.033   5.398  0.00  0.00    -0.166 F 
ATOM     27  F   LIG    1       22.495 -19.456   5.977  0.00  0.00    -0.166 F 
ENDBRANCH  24  25
ENDBRANCH   4  24
TORSDOF 7
ENDMDL
MODEL 4
REMARK VINA RESULT:      -8.2      4.788      7.752
REMARK  Name = *****
REMARK                            x       y       z     vdW  Elec       q    Type
REMARK                         _______ _______ _______ _____ _____    ______ ____
ROOT
ATOM      1  C   LIG    1       25.014 -25.221   6.764  0.00  0.00    +0.041 A 
ATOM      2  C   LIG    1       25.876 -24.234   7.257  0.00  0.00    +0.062 A 
ATOM      3  C   LIG    1       25.454 -22.905   7.384  0.00  0.00    +0.163 A 
ATOM      4  C   LIG    1       24.148 -22.558   7.009  0.00  0.00    +0.168 A 
ATOM      5  C   LIG    1       23.270 -23.563   6.565  0.00  0.00    +0.050 A 
ATOM      6  C   LIG    1       23.702 -24.891   6.430  0.00  0.00    +0.017 A 
ENDROOT
BRANCH   1   8
ATOM      7  O   LIG    1       26.616 -26.799   6.123  0.00  0.00    -0.270 OA
ATOM      8  C   LIG    1       25.552 -26.608   6.686  0.00  0.00    +0.248 C 
ATOM      9  N   LIG    1       24.726 -27.614   7.182  0.00  0.00    -0.279 N 
ATOM     10  H   LIG    1       23.729 -27.428   7.123  0.00  0.00    +0.155 HD
BRANCH   9  11
ATOM     11  C   LIG    1       25.140 -28.971   7.022  0.00  0.00    +0.074 A 
ATOM     12  C   LIG    1       25.026 -29.609   5.778  0.00  0.00    +0.082 A 
ATOM     13 CL   LIG    1       24.375 -28.815   4.394  0.00  0.00    -0.080 Cl
ATOM     14  C   LIG    1       25.505 -30.909   5.654  0.00  0.00    +0.132 A 
ATOM     15  N   LIG    1       26.059 -31.614   6.668  0.00  0.00    -0.260 NA
ATOM     16  C   LIG    1       26.120 -30.990   7.869  0.00  0.00    +0.132 A 
ATOM     17  C   LIG    1       25.671 -29.696   8.097  0.00  0.00    +0.082 A 
ATOM     18 CL   LIG    1       25.637 -29.111   9.724  0.00  0.00    -0.080 Cl
ENDBRANCH   9  11
ENDBRANCH   1   8
BRANCH   3  19
ATOM     19  O   LIG    1       26.244 -21.917   7.899  0.00  0.00    -0.488 OA
BRANCH  19  20
ATOM     20  C   LIG    1       27.539 -21.737   7.342  0.00  0.00    +0.232 C 
BRANCH  20  21
ATOM     21  C   LIG    1       27.748 -20.276   7.088  0.00  0.00    +0.027 C 
ATOM     22  C   LIG    1       29.115 -19.754   6.729  0.00  0.00    +0.007 C 
ATOM     23  C   LIG    1       28.042 -19.832   5.679  0.00  0.00    +0.007 C 
ENDBRANCH  20  21
ENDBRANCH  19  20
ENDBRANCH   3  19
BRANCH   4  24
ATOM     24  O   LIG    1       23.601 -21.302   7.096  0.00  0.00    -0.430 OA
BRANCH  24  25
ATOM     25  C   LIG    1       23.398 -20.607   5.869  0.00  0.00    +0.541 C 
ATOM     26  F   LIG    1       24.602 -20.098   5.493  0.00  0.00    -0.166 F 
ATOM     27  F   LIG    1       22.587 -19.540   6.089  0.00  0.00    -0.166 F 
ENDBRANCH  24  25
ENDBRANCH   4  24
TORSDOF 7
ENDMDL
MODEL 5
REMARK VINA RESULT:      -7.9      4.582      7.520
REMARK  Name = *****
REMARK                            x       y       z     vdW  Elec       q    Type
REMARK                         _______ _______ _______ _____ _____    ______ ____
ROOT
ATOM      1  C   LIG    1       25.628 -24.987   6.161  0.00  0.00    +0.041 A 
ATOM      2  C   LIG    1       26.019 -24.106   7.174  0.00  0.00    +0.062 A 
ATOM      3  C   LIG    1       25.708 -22.742   7.106  0.00  0.00    +0.163 A 
ATOM      4  C   LIG    1       24.993 -22.254   6.002  0.00  0.00    +0.168 A 
ATOM      5  C   LIG    1       24.556 -23.153   5.013  0.00  0.00    +0.050 A 
ATOM      6  C   LIG    1       24.881 -24.516   5.082  0.00  0.00    +0.017 A 
ENDROOT
BRANCH   1   8
ATOM      7  O   LIG    1       26.895 -26.889   5.667  0.00  0.00    -0.270 OA
ATOM      8  C   LIG    1       25.990 -26.422   6.336  0.00  0.00    +0.248 C 
ATOM      9  N   LIG    1       25.179 -27.158   7.195  0.00  0.00    -0.279 N 
ATOM     10  H   LIG    1       24.215 -26.844   7.260  0.00  0.00    +0.155 HD
BRANCH   9  11
ATOM     11  C   LIG    1       25.408 -28.563   7.305  0.00  0.00    +0.074 A 
ATOM     12  C   LIG    1       24.954 -29.441   6.310  0.00  0.00    +0.082 A 
ATOM     13 CL   LIG    1       24.091 -28.889   4.924  0.00  0.00    -0.080 Cl
ATOM     14  C   LIG    1       25.261 -30.793   6.427  0.00  0.00    +0.132 A 
ATOM     15  N   LIG    1       25.955 -31.326   7.460  0.00  0.00    -0.260 NA
ATOM     16  C   LIG    1       26.347 -30.464   8.429  0.00  0.00    +0.132 A 
ATOM     17  C   LIG    1       26.092 -29.099   8.405  0.00  0.00    +0.082 A 
ATOM     18 CL   LIG    1       26.484 -28.165   9.806  0.00  0.00    -0.080 Cl
ENDBRANCH   9  11
ENDBRANCH   1   8
BRANCH   3  19
ATOM     19  O   LIG    1       26.032 -21.852   8.089  0.00  0.00    -0.488 OA
BRANCH  19  20
ATOM     20  C   LIG    1       27.399 -21.502   8.253  0.00  0.00    +0.232 C 
BRANCH  20  21
ATOM     21  C   LIG    1       27.652 -20.222   7.518  0.00  0.00    +0.027 C 
ATOM     22  C   LIG    1       29.043 -19.648   7.449  0.00  0.00    +0.007 C 
ATOM     23  C   LIG    1       28.431 -20.280   6.231  0.00  0.00    +0.007 C 
ENDBRANCH  20  21
ENDBRANCH  19  20
ENDBRANCH   3  19
BRANCH   4  24
ATOM     24  O   LIG    1       24.608 -20.949   5.815  0.00  0.00    -0.430 OA
BRANCH  24  25
ATOM     25  C   LIG    1       23.340 -20.576   6.345  0.00  0.00    +0.541 C 
ATOM     26  F   LIG    1       22.999 -21.515   7.269  0.00  0.00    -0.166 F 
ATOM     27  F   LIG    1       22.405 -20.655   5.363  0.00  0.00    -0.166 F 
ENDBRANCH  24  25
ENDBRANCH   4  24
TORSDOF 7
ENDMDL
MODEL 6
REMARK VINA RESULT:      -7.8      2.143      3.559
REMARK  Name = *****
REMARK                            x       y       z     vdW  Elec       q    Type
REMARK                         _______ _______ _______ _____ _____    ______ ____
ROOT
ATOM      1  C   LIG    1       26.384 -20.681   6.831  0.00  0.00    +0.041 A 
ATOM      2  C   LIG    1       25.447 -21.526   7.437  0.00  0.00    +0.062 A 
ATOM      3  C   LIG    1       24.290 -21.925   6.757  0.00  0.00    +0.163 A 
ATOM      4  C   LIG    1       24.066 -21.467   5.451  0.00  0.00    +0.168 A 
ATOM      5  C   LIG    1       25.036 -20.662   4.829  0.00  0.00    +0.050 A 
ATOM      6  C   LIG    1       26.188 -20.257   5.518  0.00  0.00    +0.017 A 
ENDROOT
BRANCH   1   8
ATOM      7  O   LIG    1       27.448 -19.842   8.737  0.00  0.00    -0.270 OA
ATOM      8  C   LIG    1       27.592 -20.330   7.630  0.00  0.00    +0.248 C 
ATOM      9  N   LIG    1       28.818 -20.494   6.990  0.00  0.00    -0.279 N 
ATOM     10  H   LIG    1       28.801 -20.385   5.980  0.00  0.00    +0.155 HD
BRANCH   9  11
ATOM     11  C   LIG    1       29.999 -20.059   7.665  0.00  0.00    +0.074 A 
ATOM     12  C   LIG    1       30.587 -18.826   7.352  0.00  0.00    +0.082 A 
ATOM     13 CL   LIG    1       29.943 -17.783   6.140  0.00  0.00    -0.080 Cl
ATOM     14  C   LIG    1       31.695 -18.414   8.084  0.00  0.00    +0.132 A 
ATOM     15  N   LIG    1       32.264 -19.142   9.074  0.00  0.00    -0.260 NA
ATOM     16  C   LIG    1       31.702 -20.348   9.330  0.00  0.00    +0.132 A 
ATOM     17  C   LIG    1       30.595 -20.849   8.658  0.00  0.00    +0.082 A 
ATOM     18 CL   LIG    1       30.117 -22.482   8.963  0.00  0.00    -0.080 Cl
ENDBRANCH   9  11
ENDBRANCH   1   8
BRANCH   3  19
ATOM     19  O   LIG    1       23.369 -22.782   7.291  0.00  0.00    -0.488 OA
BRANCH  19  20
ATOM     20  C   LIG    1       23.103 -23.994   6.599  0.00  0.00    +0.232 C 
BRANCH  20  21
ATOM     21  C   LIG    1       24.357 -24.813   6.578  0.00  0.00    +0.027 C 
ATOM     22  C   LIG    1       24.340 -26.214   6.023  0.00  0.00    +0.007 C 
ATOM     23  C   LIG    1       24.994 -25.106   5.246  0.00  0.00    +0.007 C 
ENDBRANCH  20  21
ENDBRANCH  19  20
ENDBRANCH   3  19
BRANCH   4  24
ATOM     24  O   LIG    1       22.986 -21.792   4.667  0.00  0.00    -0.430 OA
BRANCH  24  25
ATOM     25  C   LIG    1       21.980 -20.794   4.521  0.00  0.00    +0.541 C 
ATOM     26  F   LIG    1       22.138 -19.913   5.546  0.00  0.00    -0.166 F 
ATOM     27  F   LIG    1       20.759 -21.362   4.696  0.00  0.00    -0.166 F 
ENDBRANCH  24  25
ENDBRANCH   4  24
TORSDOF 7
ENDMDL
MODEL 7
REMARK VINA RESULT:      -7.5      4.428      7.352
REMARK  Name = *****
REMARK                            x       y       z     vdW  Elec       q    Type
REMARK                         _______ _______ _______ _____ _____    ______ ____
ROOT
ATOM      1  C   LIG    1       25.196 -24.359   6.580  0.00  0.00    +0.041 A 
ATOM      2  C   LIG    1       24.430 -23.471   5.816  0.00  0.00    +0.062 A 
ATOM      3  C   LIG    1       24.757 -22.111   5.746  0.00  0.00    +0.163 A 
ATOM      4  C   LIG    1       25.868 -21.633   6.456  0.00  0.00    +0.168 A 
ATOM      5  C   LIG    1       26.665 -22.539   7.178  0.00  0.00    +0.050 A 
ATOM      6  C   LIG    1       26.326 -23.898   7.253  0.00  0.00    +0.017 A 
ENDROOT
BRANCH   1   8
ATOM      7  O   LIG    1       23.596 -26.058   6.447  0.00  0.00    -0.270 OA
ATOM      8  C   LIG    1       24.778 -25.789   6.573  0.00  0.00    +0.248 C 
ATOM      9  N   LIG    1       25.781 -26.722   6.823  0.00  0.00    -0.279 N 
ATOM     10  H   LIG    1       26.543 -26.396   7.411  0.00  0.00    +0.155 HD
BRANCH   9  11
ATOM     11  C   LIG    1       25.412 -28.096   6.948  0.00  0.00    +0.074 A 
ATOM     12  C   LIG    1       25.670 -28.799   8.134  0.00  0.00    +0.082 A 
ATOM     13 CL   LIG    1       26.450 -28.065   9.485  0.00  0.00    -0.080 Cl
ATOM     14  C   LIG    1       25.232 -30.115   8.233  0.00  0.00    +0.132 A 
ATOM     15  N   LIG    1       24.586 -30.777   7.244  0.00  0.00    -0.260 NA
ATOM     16  C   LIG    1       24.386 -30.089   6.094  0.00  0.00    +0.132 A 
ATOM     17  C   LIG    1       24.783 -28.774   5.895  0.00  0.00    +0.082 A 
ATOM     18 CL   LIG    1       24.632 -28.100   4.310  0.00  0.00    -0.080 Cl
ENDBRANCH   9  11
ENDBRANCH   1   8
BRANCH   3  19
ATOM     19  O   LIG    1       24.066 -21.215   4.981  0.00  0.00    -0.488 OA
BRANCH  19  20
ATOM     20  C   LIG    1       22.872 -20.660   5.515  0.00  0.00    +0.232 C 
BRANCH  20  21
ATOM     21  C   LIG    1       22.296 -19.716   4.505  0.00  0.00    +0.027 C 
ATOM     22  C   LIG    1       22.289 -18.232   4.769  0.00  0.00    +0.007 C 
ATOM     23  C   LIG    1       23.237 -18.810   3.757  0.00  0.00    +0.007 C 
ENDBRANCH  20  21
ENDBRANCH  19  20
ENDBRANCH   3  19
BRANCH   4  24
ATOM     24  O   LIG    1       26.310 -20.333   6.463  0.00  0.00    -0.430 OA
BRANCH  24  25
ATOM     25  C   LIG    1       27.699 -20.129   6.219  0.00  0.00    +0.541 C 
ATOM     26  F   LIG    1       28.226 -19.572   7.344  0.00  0.00    -0.166 F 
ATOM     27  F   LIG    1       27.848 -19.205   5.234  0.00  0.00    -0.166 F 
ENDBRANCH  24  25
ENDBRANCH   4  24
TORSDOF 7
ENDMDL
MODEL 8
REMARK VINA RESULT:      -7.3      4.727      7.483
REMARK  Name = *****
REMARK                            x       y       z     vdW  Elec       q    Type
REMARK                         _______ _______ _______ _____ _____    ______ ____
ROOT
ATOM      1  C   LIG    1       24.871 -25.025   6.682  0.00  0.00    +0.041 A 
ATOM      2  C   LIG    1       23.757 -24.184   6.587  0.00  0.00    +0.062 A 
ATOM      3  C   LIG    1       23.863 -22.813   6.851  0.00  0.00    +0.163 A 
ATOM      4  C   LIG    1       25.105 -22.277   7.219  0.00  0.00    +0.168 A 
ATOM      5  C   LIG    1       26.232 -23.116   7.262  0.00  0.00    +0.050 A 
ATOM      6  C   LIG    1       26.118 -24.491   7.007  0.00  0.00    +0.017 A 
ENDROOT
BRANCH   1   8
ATOM      7  O   LIG    1       23.657 -26.793   5.751  0.00  0.00    -0.270 OA
ATOM      8  C   LIG    1       24.660 -26.464   6.362  0.00  0.00    +0.248 C 
ATOM      9  N   LIG    1       25.592 -27.354   6.890  0.00  0.00    -0.279 N 
ATOM     10  H   LIG    1       26.026 -27.063   7.762  0.00  0.00    +0.155 HD
BRANCH   9  11
ATOM     11  C   LIG    1       25.369 -28.753   6.716  0.00  0.00    +0.074 A 
ATOM     12  C   LIG    1       25.346 -29.318   5.433  0.00  0.00    +0.082 A 
ATOM     13 CL   LIG    1       25.565 -28.372   4.009  0.00  0.00    -0.080 Cl
ATOM     14  C   LIG    1       25.194 -30.696   5.317  0.00  0.00    +0.132 A 
ATOM     15  N   LIG    1       25.042 -31.534   6.370  0.00  0.00    -0.260 NA
ATOM     16  C   LIG    1       25.026 -30.958   7.597  0.00  0.00    +0.132 A 
ATOM     17  C   LIG    1       25.171 -29.595   7.819  0.00  0.00    +0.082 A 
ATOM     18 CL   LIG    1       24.933 -28.994   9.422  0.00  0.00    -0.080 Cl
ENDBRANCH   9  11
ENDBRANCH   1   8
BRANCH   3  19
ATOM     19  O   LIG    1       22.814 -21.946   6.730  0.00  0.00    -0.488 OA
BRANCH  19  20
ATOM     20  C   LIG    1       22.538 -21.404   5.446  0.00  0.00    +0.232 C 
BRANCH  20  21
ATOM     21  C   LIG    1       22.973 -19.971   5.432  0.00  0.00    +0.027 C 
ATOM     22  C   LIG    1       23.548 -19.363   4.179  0.00  0.00    +0.007 C 
ATOM     23  C   LIG    1       22.164 -18.987   4.630  0.00  0.00    +0.007 C 
ENDBRANCH  20  21
ENDBRANCH  19  20
ENDBRANCH   3  19
BRANCH   4  24
ATOM     24  O   LIG    1       25.354 -20.953   7.489  0.00  0.00    -0.430 OA
BRANCH  24  25
ATOM     25  C   LIG    1       26.435 -20.674   8.374  0.00  0.00    +0.541 C 
ATOM     26  F   LIG    1       25.916 -20.024   9.451  0.00  0.00    -0.166 F 
ATOM     27  F   LIG    1       27.285 -19.798   7.777  0.00  0.00    -0.166 F 
ENDBRANCH  24  25
ENDBRANCH   4  24
TORSDOF 7
ENDMDL
MODEL 9
REMARK VINA RESULT:      -7.1      2.707      4.392
REMARK  Name = *****
REMARK                            x       y       z     vdW  Elec       q    Type
REMARK                         _______ _______ _______ _____ _____    ______ ____
ROOT
ATOM      1  C   LIG    1       26.907 -20.031   5.738  0.00  0.00    +0.041 A 
ATOM      2  C   LIG    1       25.997 -20.772   6.501  0.00  0.00    +0.062 A 
ATOM      3  C   LIG    1       24.679 -20.960   6.070  0.00  0.00    +0.163 A 
ATOM      4  C   LIG    1       24.263 -20.393   4.856  0.00  0.00    +0.168 A 
ATOM      5  C   LIG    1       25.195 -19.695   4.069  0.00  0.00    +0.050 A 
ATOM      6  C   LIG    1       26.512 -19.501   4.511  0.00  0.00    +0.017 A 
ENDROOT
BRANCH   1   8
ATOM      7  O   LIG    1       29.234 -20.146   5.537  0.00  0.00    -0.270 OA
ATOM      8  C   LIG    1       28.292 -19.906   6.273  0.00  0.00    +0.248 C 
ATOM      9  N   LIG    1       28.401 -19.620   7.632  0.00  0.00    -0.279 N 
ATOM     10  H   LIG    1       27.638 -19.960   8.211  0.00  0.00    +0.155 HD
BRANCH   9  11
ATOM     11  C   LIG    1       29.702 -19.609   8.220  0.00  0.00    +0.074 A 
ATOM     12  C   LIG    1       30.353 -20.810   8.534  0.00  0.00    +0.082 A 
ATOM     13 CL   LIG    1       29.628 -22.349   8.252  0.00  0.00    -0.080 Cl
ATOM     14  C   LIG    1       31.646 -20.751   9.042  0.00  0.00    +0.132 A 
ATOM     15  N   LIG    1       32.317 -19.598   9.277  0.00  0.00    -0.260 NA
ATOM     16  C   LIG    1       31.651 -18.451   9.003  0.00  0.00    +0.132 A 
ATOM     17  C   LIG    1       30.360 -18.402   8.494  0.00  0.00    +0.082 A 
ATOM     18 CL   LIG    1       29.576 -16.865   8.383  0.00  0.00    -0.080 Cl
ENDBRANCH   9  11
ENDBRANCH   1   8
BRANCH   3  19
ATOM     19  O   LIG    1       23.768 -21.710   6.759  0.00  0.00    -0.488 OA
BRANCH  19  20
ATOM     20  C   LIG    1       24.189 -22.963   7.279  0.00  0.00    +0.232 C 
BRANCH  20  21
ATOM     21  C   LIG    1       24.460 -23.887   6.131  0.00  0.00    +0.027 C 
ATOM     22  C   LIG    1       25.517 -24.953   6.247  0.00  0.00    +0.007 C 
ATOM     23  C   LIG    1       24.064 -25.332   6.270  0.00  0.00    +0.007 C 
ENDBRANCH  20  21
ENDBRANCH  19  20
ENDBRANCH   3  19
BRANCH   4  24
ATOM     24  O   LIG    1       23.009 -20.512   4.309  0.00  0.00    -0.430 OA
BRANCH  24  25
ATOM     25  C   LIG    1       22.070 -19.493   4.639  0.00  0.00    +0.541 C 
ATOM     26  F   LIG    1       22.285 -18.457   3.783  0.00  0.00    -0.166 F 
ATOM     27  F   LIG    1       22.343 -19.019   5.882  0.00  0.00    -0.166 F 
ENDBRANCH  24  25
ENDBRANCH   4  24
TORSDOF 7
ENDMDL
