MODEL 1
REMARK VINA RESULT:      -3.3      0.000      0.000
REMARK  Name = *****
REMARK                            x       y       z     vdW  Elec       q    Type
REMARK                         _______ _______ _______ _____ _____    ______ ____
ROOT
ATOM      1  C   LIG    1       31.544 -18.822   8.063  0.00  0.00    +0.159 C 
ATOM      2  O   LIG    1       32.099 -19.543   9.170  0.00  0.00    -0.370 OA
ATOM      3  C   LIG    1       31.128 -18.535   9.483  0.00  0.00    +0.193 C 
ENDROOT
BRANCH   1   5
ATOM      4 CL   LIG    1       29.714 -18.524   6.139  0.00  0.00    -0.123 Cl
ATOM      5  C   LIG    1       30.669 -19.618   7.160  0.00  0.00    +0.142 C 
ENDBRANCH   1   5
TORSDOF 1
ENDMDL
MODEL 2
REMARK VINA RESULT:      -3.2      2.472      3.041
REMARK  Name = *****
REMARK                            x       y       z     vdW  Elec       q    Type
REMARK                         _______ _______ _______ _____ _____    ______ ____
ROOT
ATOM      1  C   LIG    1       31.205 -18.662   9.377  0.00  0.00    +0.159 C 
ATOM      2  O   LIG    1       32.102 -19.746   9.106  0.00  0.00    -0.370 OA
ATOM      3  C   LIG    1       31.375 -19.220   7.987  0.00  0.00    +0.193 C 
ENDROOT
BRANCH   1   5
ATOM      4 CL   LIG    1       30.835 -16.532  10.948  0.00  0.00    -0.123 Cl
ATOM      5  C   LIG    1       31.855 -17.381   9.768  0.00  0.00    +0.142 C 
ENDBRANCH   1   5
TORSDOF 1
ENDMDL
MODEL 3
REMARK VINA RESULT:      -3.1      2.346      2.346
REMARK  Name = *****
REMARK                            x       y       z     vdW  Elec       q    Type
REMARK                         _______ _______ _______ _____ _____    ______ ____
ROOT
ATOM      1  C   LIG    1       31.217 -19.606   8.222  0.00  0.00    +0.159 C 
ATOM      2  O   LIG    1       32.153 -19.507   9.302  0.00  0.00    -0.370 OA
ATOM      3  C   LIG    1       31.107 -18.526   9.268  0.00  0.00    +0.193 C 
ENDROOT
BRANCH   1   5
ATOM      4 CL   LIG    1       31.105 -22.094   9.190  0.00  0.00    -0.123 Cl
ATOM      5  C   LIG    1       30.325 -20.797   8.261  0.00  0.00    +0.142 C 
ENDBRANCH   1   5
TORSDOF 1
ENDMDL
MODEL 4
REMARK VINA RESULT:      -3.0      1.466      1.726
REMARK  Name = *****
REMARK                            x       y       z     vdW  Elec       q    Type
REMARK                         _______ _______ _______ _____ _____    ______ ____
ROOT
ATOM      1  C   LIG    1       30.558 -19.175   6.781  0.00  0.00    +0.159 C 
ATOM      2  O   LIG    1       31.847 -19.662   7.173  0.00  0.00    -0.370 OA
ATOM      3  C   LIG    1       31.245 -18.678   8.027  0.00  0.00    +0.193 C 
ENDROOT
BRANCH   1   5
ATOM      4 CL   LIG    1       28.203 -19.770   5.668  0.00  0.00    -0.123 Cl
ATOM      5  C   LIG    1       29.451 -20.167   6.866  0.00  0.00    +0.142 C 
ENDBRANCH   1   5
TORSDOF 1
ENDMDL
MODEL 5
REMARK VINA RESULT:      -3.0      4.595      5.003
REMARK  Name = *****
REMARK                            x       y       z     vdW  Elec       q    Type
REMARK                         _______ _______ _______ _____ _____    ______ ____
ROOT
ATOM      1  C   LIG    1       26.263 -20.481   7.964  0.00  0.00    +0.159 C 
ATOM      2  O   LIG    1       25.943 -20.636   9.352  0.00  0.00    -0.370 OA
ATOM      3  C   LIG    1       25.748 -21.785   8.515  0.00  0.00    +0.193 C 
ENDROOT
BRANCH   1   5
ATOM      4 CL   LIG    1       27.920 -19.999   5.923  0.00  0.00    -0.123 Cl
ATOM      5  C   LIG    1       27.709 -20.301   7.661  0.00  0.00    +0.142 C 
ENDBRANCH   1   5
TORSDOF 1
ENDMDL
MODEL 6
REMARK VINA RESULT:      -3.0      5.874      6.187
REMARK  Name = *****
REMARK                            x       y       z     vdW  Elec       q    Type
REMARK                         _______ _______ _______ _____ _____    ______ ____
ROOT
ATOM      1  C   LIG    1       26.257 -21.870   8.370  0.00  0.00    +0.159 C 
ATOM      2  O   LIG    1       25.844 -20.870   9.310  0.00  0.00    -0.370 OA
ATOM      3  C   LIG    1       26.594 -20.413   8.176  0.00  0.00    +0.193 C 
ENDROOT
BRANCH   1   5
ATOM      4 CL   LIG    1       25.671 -24.116   7.047  0.00  0.00    -0.123 Cl
ATOM      5  C   LIG    1       25.158 -22.506   7.595  0.00  0.00    +0.142 C 
ENDBRANCH   1   5
TORSDOF 1
ENDMDL
MODEL 7
REMARK VINA RESULT:      -3.0      2.824      3.392
REMARK  Name = *****
REMARK                            x       y       z     vdW  Elec       q    Type
REMARK                         _______ _______ _______ _____ _____    ______ ____
ROOT
ATOM      1  C   LIG    1       30.934 -17.592  11.167  0.00  0.00    +0.159 C 
ATOM      2  O   LIG    1       30.326 -16.300  11.286  0.00  0.00    -0.370 OA
ATOM      3  C   LIG    1       31.570 -16.490  11.975  0.00  0.00    +0.193 C 
ENDROOT
BRANCH   1   5
ATOM      4 CL   LIG    1       30.077 -18.137   8.696  0.00  0.00    -0.123 Cl
ATOM      5  C   LIG    1       31.444 -17.932   9.811  0.00  0.00    +0.142 C 
ENDBRANCH   1   5
TORSDOF 1
ENDMDL
MODEL 8
REMARK VINA RESULT:      -2.9      8.336      8.882
REMARK  Name = *****
REMARK                            x       y       z     vdW  Elec       q    Type
REMARK                         _______ _______ _______ _____ _____    ______ ____
ROOT
ATOM      1  C   LIG    1       23.641 -23.172   6.390  0.00  0.00    +0.159 C 
ATOM      2  O   LIG    1       22.626 -24.104   6.782  0.00  0.00    -0.370 OA
ATOM      3  C   LIG    1       23.927 -24.646   6.515  0.00  0.00    +0.193 C 
ENDROOT
BRANCH   1   5
ATOM      4 CL   LIG    1       23.368 -20.621   7.139  0.00  0.00    -0.123 Cl
ATOM      5  C   LIG    1       24.074 -22.220   7.451  0.00  0.00    +0.142 C 
ENDBRANCH   1   5
TORSDOF 1
ENDMDL
MODEL 9
REMARK VINA RESULT:      -2.9      7.946      8.161
REMARK  Name = *****
REMARK                            x       y       z     vdW  Elec       q    Type
REMARK                         _______ _______ _______ _____ _____    ______ ____
ROOT
ATOM      1  C   LIG    1       23.161 -21.401   6.464  0.00  0.00    +0.159 C 
ATOM      2  O   LIG    1       23.393 -20.965   7.809  0.00  0.00    -0.370 OA
ATOM      3  C   LIG    1       24.133 -22.113   7.369  0.00  0.00    +0.193 C 
ENDROOT
BRANCH   1   5
ATOM      4 CL   LIG    1       22.432 -19.215   5.110  0.00  0.00    -0.123 Cl
ATOM      5  C   LIG    1       23.647 -20.476   5.403  0.00  0.00    +0.142 C 
ENDBRANCH   1   5
TORSDOF 1
ENDMDL
