MODEL 1
REMARK VINA RESULT:      -6.6      0.000      0.000
REMARK  Name = *****
REMARK                            x       y       z     vdW  Elec       q    Type
REMARK                         _______ _______ _______ _____ _____    ______ ____
ROOT
ATOM      1  C   LIG    1       27.627 -20.704   6.726  0.00  0.00    +0.000 C 
ENDROOT
BRANCH   1   2
ATOM      2  C   LIG    1       26.885 -20.398   8.034  0.00  0.00    -0.000 C 
BRANCH   2   3
ATOM      3  C   LIG    1       26.044 -21.553   8.624  0.00  0.00    -0.000 C 
BRANCH   3   4
ATOM      4  C   LIG    1       25.825 -22.732   7.651  0.00  0.00    -0.000 C 
BRANCH   4   5
ATOM      5  C   LIG    1       24.501 -22.878   6.921  0.00  0.00    -0.000 C 
BRANCH   5   6
ATOM      6  C   LIG    1       23.536 -21.690   7.088  0.00  0.00    -0.000 C 
BRANCH   6   7
ATOM      7  C   LIG    1       23.686 -20.518   6.101  0.00  0.00    -0.000 C 
BRANCH   7   9
ATOM      8  C   LIG    1       22.427 -18.875   4.620  0.00  0.00    +0.004 C 
ATOM      9  C   LIG    1       22.435 -20.249   5.259  0.00  0.00    -0.003 C 
ENDBRANCH   7   9
ENDBRANCH   6   7
ENDBRANCH   5   6
ENDBRANCH   4   5
ENDBRANCH   3   4
ENDBRANCH   2   3
ENDBRANCH   1   2
BRANCH   1  10
ATOM     10  C   LIG    1       29.139 -20.381   6.711  0.00  0.00    +0.002 C 
BRANCH  10  11
ATOM     11  C   LIG    1       29.759 -19.700   7.954  0.00  0.00    +0.028 C 
BRANCH  11  12
ATOM     12  C   LIG    1       30.878 -20.446   8.696  0.00  0.00    +0.160 C 
BRANCH  12  13
ATOM     13  O   LIG    1       31.981 -19.605   9.008  0.00  0.00    -0.378 OA
BRANCH  13  14
ATOM     14  C   LIG    1       31.881 -18.310   8.401  0.00  0.00    +0.187 C 
BRANCH  14  15
ATOM     15  C   LIG    1       32.179 -17.219   9.408  0.00  0.00    +0.184 C 
BRANCH  15  16
ATOM     16  O   LIG    1       32.634 -16.017   8.791  0.00  0.00    -0.393 OA
ATOM     17  H   LIG    1       33.007 -15.454   9.423  0.00  0.00    +0.209 HD
ENDBRANCH  15  16
ENDBRANCH  14  15
ENDBRANCH  13  14
ENDBRANCH  12  13
ENDBRANCH  11  12
ENDBRANCH  10  11
ENDBRANCH   1  10
TORSDOF 14
ENDMDL
MODEL 2
REMARK VINA RESULT:      -6.5      1.655      2.513
REMARK  Name = *****
REMARK                            x       y       z     vdW  Elec       q    Type
REMARK                         _______ _______ _______ _____ _____    ______ ____
ROOT
ATOM      1  C   LIG    1       26.205 -20.522   7.858  0.00  0.00    +0.000 C 
ENDROOT
BRANCH   1   2
ATOM      2  C   LIG    1       25.760 -21.894   8.382  0.00  0.00    -0.000 C 
BRANCH   2   3
ATOM      3  C   LIG    1       25.778 -23.052   7.358  0.00  0.00    -0.000 C 
BRANCH   3   4
ATOM      4  C   LIG    1       24.374 -23.505   6.897  0.00  0.00    -0.000 C 
BRANCH   4   5
ATOM      5  C   LIG    1       23.208 -22.534   6.951  0.00  0.00    -0.000 C 
BRANCH   5   6
ATOM      6  C   LIG    1       23.089 -21.598   5.734  0.00  0.00    -0.000 C 
BRANCH   6   7
ATOM      7  C   LIG    1       22.912 -20.095   6.017  0.00  0.00    -0.000 C 
BRANCH   7   9
ATOM      8  C   LIG    1       23.723 -19.178   3.785  0.00  0.00    +0.004 C 
ATOM      9  C   LIG    1       22.578 -19.263   4.774  0.00  0.00    -0.003 C 
ENDBRANCH   7   9
ENDBRANCH   6   7
ENDBRANCH   5   6
ENDBRANCH   4   5
ENDBRANCH   3   4
ENDBRANCH   2   3
ENDBRANCH   1   2
BRANCH   1  10
ATOM     10  C   LIG    1       26.637 -20.470   6.374  0.00  0.00    +0.002 C 
BRANCH  10  11
ATOM     11  C   LIG    1       28.090 -20.055   6.044  0.00  0.00    +0.028 C 
BRANCH  11  12
ATOM     12  C   LIG    1       29.194 -20.466   7.028  0.00  0.00    +0.160 C 
BRANCH  12  13
ATOM     13  O   LIG    1       30.026 -19.375   7.403  0.00  0.00    -0.378 OA
BRANCH  13  14
ATOM     14  C   LIG    1       31.098 -19.767   8.270  0.00  0.00    +0.187 C 
BRANCH  14  15
ATOM     15  C   LIG    1       30.904 -21.188   8.757  0.00  0.00    +0.184 C 
BRANCH  15  16
ATOM     16  O   LIG    1       32.061 -21.703   9.412  0.00  0.00    -0.393 OA
ATOM     17  H   LIG    1       31.997 -22.621   9.500  0.00  0.00    +0.209 HD
ENDBRANCH  15  16
ENDBRANCH  14  15
ENDBRANCH  13  14
ENDBRANCH  12  13
ENDBRANCH  11  12
ENDBRANCH  10  11
ENDBRANCH   1  10
TORSDOF 14
ENDMDL
MODEL 3
REMARK VINA RESULT:      -6.5      1.236      1.644
REMARK  Name = *****
REMARK                            x       y       z     vdW  Elec       q    Type
REMARK                         _______ _______ _______ _____ _____    ______ ____
ROOT
ATOM      1  C   LIG    1       27.478 -20.656   6.830  0.00  0.00    +0.000 C 
ENDROOT
BRANCH   1   2
ATOM      2  C   LIG    1       26.597 -20.447   8.069  0.00  0.00    -0.000 C 
BRANCH   2   3
ATOM      3  C   LIG    1       25.692 -21.635   8.468  0.00  0.00    -0.000 C 
BRANCH   3   4
ATOM      4  C   LIG    1       24.531 -21.899   7.484  0.00  0.00    -0.000 C 
BRANCH   4   5
ATOM      5  C   LIG    1       23.524 -20.802   7.187  0.00  0.00    -0.000 C 
BRANCH   5   6
ATOM      6  C   LIG    1       22.966 -20.808   5.751  0.00  0.00    -0.000 C 
BRANCH   6   7
ATOM      7  C   LIG    1       22.584 -19.448   5.140  0.00  0.00    -0.000 C 
BRANCH   7   9
ATOM      8  C   LIG    1       24.778 -19.691   3.872  0.00  0.00    +0.004 C 
ATOM      9  C   LIG    1       23.393 -19.076   3.893  0.00  0.00    -0.003 C 
ENDBRANCH   7   9
ENDBRANCH   6   7
ENDBRANCH   5   6
ENDBRANCH   4   5
ENDBRANCH   3   4
ENDBRANCH   2   3
ENDBRANCH   1   2
BRANCH   1  10
ATOM     10  C   LIG    1       28.899 -21.205   7.092  0.00  0.00    +0.002 C 
BRANCH  10  11
ATOM     11  C   LIG    1       29.917 -20.297   7.823  0.00  0.00    +0.028 C 
BRANCH  11  12
ATOM     12  C   LIG    1       31.001 -20.975   8.672  0.00  0.00    +0.160 C 
BRANCH  12  13
ATOM     13  O   LIG    1       31.939 -20.048   9.203  0.00  0.00    -0.378 OA
BRANCH  13  14
ATOM     14  C   LIG    1       31.623 -18.689   8.874  0.00  0.00    +0.187 C 
BRANCH  14  15
ATOM     15  C   LIG    1       31.563 -17.833  10.122  0.00  0.00    +0.184 C 
BRANCH  15  16
ATOM     16  O   LIG    1       30.654 -18.347  11.093  0.00  0.00    -0.393 OA
ATOM     17  H   LIG    1       30.721 -19.268  11.137  0.00  0.00    +0.209 HD
ENDBRANCH  15  16
ENDBRANCH  14  15
ENDBRANCH  13  14
ENDBRANCH  12  13
ENDBRANCH  11  12
ENDBRANCH  10  11
ENDBRANCH   1  10
TORSDOF 14
ENDMDL
MODEL 4
REMARK VINA RESULT:      -6.4      1.362      2.735
REMARK  Name = *****
REMARK                            x       y       z     vdW  Elec       q    Type
REMARK                         _______ _______ _______ _____ _____    ______ ____
ROOT
ATOM      1  C   LIG    1       25.988 -22.520   8.089  0.00  0.00    +0.000 C 
ENDROOT
BRANCH   1   2
ATOM      2  C   LIG    1       25.557 -23.156   6.761  0.00  0.00    -0.000 C 
BRANCH   2   3
ATOM      3  C   LIG    1       24.116 -23.714   6.710  0.00  0.00    -0.000 C 
BRANCH   3   4
ATOM      4  C   LIG    1       23.022 -22.653   6.965  0.00  0.00    -0.000 C 
BRANCH   4   5
ATOM      5  C   LIG    1       22.588 -21.725   5.844  0.00  0.00    -0.000 C 
BRANCH   5   6
ATOM      6  C   LIG    1       23.083 -20.272   5.979  0.00  0.00    -0.000 C 
BRANCH   6   7
ATOM      7  C   LIG    1       22.831 -19.330   4.788  0.00  0.00    -0.000 C 
BRANCH   7   9
ATOM      8  C   LIG    1       25.237 -19.960   4.245  0.00  0.00    +0.004 C 
ATOM      9  C   LIG    1       23.950 -19.338   3.742  0.00  0.00    -0.003 C 
ENDBRANCH   7   9
ENDBRANCH   6   7
ENDBRANCH   5   6
ENDBRANCH   4   5
ENDBRANCH   3   4
ENDBRANCH   2   3
ENDBRANCH   1   2
BRANCH   1  10
ATOM     10  C   LIG    1       26.115 -20.979   8.094  0.00  0.00    +0.002 C 
BRANCH  10  11
ATOM     11  C   LIG    1       27.323 -20.337   7.371  0.00  0.00    +0.028 C 
BRANCH  11  12
ATOM     12  C   LIG    1       28.718 -20.909   7.660  0.00  0.00    +0.160 C 
BRANCH  12  13
ATOM     13  O   LIG    1       29.526 -20.021   8.422  0.00  0.00    -0.378 OA
BRANCH  13  14
ATOM     14  C   LIG    1       30.295 -19.131   7.603  0.00  0.00    +0.187 C 
BRANCH  14  15
ATOM     15  C   LIG    1       31.568 -18.713   8.311  0.00  0.00    +0.184 C 
BRANCH  15  16
ATOM     16  O   LIG    1       32.033 -19.703   9.225  0.00  0.00    -0.393 OA
ATOM     17  H   LIG    1       31.328 -20.222   9.522  0.00  0.00    +0.209 HD
ENDBRANCH  15  16
ENDBRANCH  14  15
ENDBRANCH  13  14
ENDBRANCH  12  13
ENDBRANCH  11  12
ENDBRANCH  10  11
ENDBRANCH   1  10
TORSDOF 14
ENDMDL
MODEL 5
REMARK VINA RESULT:      -6.2      1.822      3.425
REMARK  Name = *****
REMARK                            x       y       z     vdW  Elec       q    Type
REMARK                         _______ _______ _______ _____ _____    ______ ____
ROOT
ATOM      1  C   LIG    1       26.584 -20.909   7.045  0.00  0.00    +0.000 C 
ENDROOT
BRANCH   1   2
ATOM      2  C   LIG    1       25.990 -20.465   5.702  0.00  0.00    -0.000 C 
BRANCH   2   3
ATOM      3  C   LIG    1       24.512 -20.841   5.454  0.00  0.00    -0.000 C 
BRANCH   3   4
ATOM      4  C   LIG    1       23.609 -20.696   6.700  0.00  0.00    -0.000 C 
BRANCH   4   5
ATOM      5  C   LIG    1       23.153 -21.933   7.454  0.00  0.00    -0.000 C 
BRANCH   5   6
ATOM      6  C   LIG    1       22.680 -23.096   6.563  0.00  0.00    -0.000 C 
BRANCH   6   7
ATOM      7  C   LIG    1       23.443 -24.428   6.682  0.00  0.00    -0.000 C 
BRANCH   7   9
ATOM      8  C   LIG    1       25.984 -24.574   6.724  0.00  0.00    +0.004 C 
ATOM      9  C   LIG    1       24.738 -24.479   5.866  0.00  0.00    -0.003 C 
ENDBRANCH   7   9
ENDBRANCH   6   7
ENDBRANCH   5   6
ENDBRANCH   4   5
ENDBRANCH   3   4
ENDBRANCH   2   3
ENDBRANCH   1   2
BRANCH   1  10
ATOM     10  C   LIG    1       27.916 -20.239   7.454  0.00  0.00    +0.002 C 
BRANCH  10  11
ATOM     11  C   LIG    1       28.859 -19.732   6.337  0.00  0.00    +0.028 C 
BRANCH  11  12
ATOM     12  C   LIG    1       30.300 -19.372   6.724  0.00  0.00    +0.160 C 
BRANCH  12  13
ATOM     13  O   LIG    1       30.382 -18.732   7.991  0.00  0.00    -0.378 OA
BRANCH  13  14
ATOM     14  C   LIG    1       31.327 -19.358   8.869  0.00  0.00    +0.187 C 
BRANCH  14  15
ATOM     15  C   LIG    1       31.214 -20.867   8.792  0.00  0.00    +0.184 C 
BRANCH  15  16
ATOM     16  O   LIG    1       32.228 -21.529   9.545  0.00  0.00    -0.393 OA
ATOM     17  H   LIG    1       32.425 -22.348   9.166  0.00  0.00    +0.209 HD
ENDBRANCH  15  16
ENDBRANCH  14  15
ENDBRANCH  13  14
ENDBRANCH  12  13
ENDBRANCH  11  12
ENDBRANCH  10  11
ENDBRANCH   1  10
TORSDOF 14
ENDMDL
MODEL 6
REMARK VINA RESULT:      -6.1      1.617      2.623
REMARK  Name = *****
REMARK                            x       y       z     vdW  Elec       q    Type
REMARK                         _______ _______ _______ _____ _____    ______ ____
ROOT
ATOM      1  C   LIG    1       27.648 -20.362   6.694  0.00  0.00    +0.000 C 
ENDROOT
BRANCH   1   2
ATOM      2  C   LIG    1       27.156 -20.428   8.145  0.00  0.00    -0.000 C 
BRANCH   2   3
ATOM      3  C   LIG    1       25.708 -20.927   8.351  0.00  0.00    -0.000 C 
BRANCH   3   4
ATOM      4  C   LIG    1       24.812 -20.787   7.100  0.00  0.00    -0.000 C 
BRANCH   4   5
ATOM      5  C   LIG    1       23.332 -21.117   7.187  0.00  0.00    -0.000 C 
BRANCH   5   6
ATOM      6  C   LIG    1       22.890 -22.331   6.348  0.00  0.00    -0.000 C 
BRANCH   6   7
ATOM      7  C   LIG    1       23.425 -23.710   6.771  0.00  0.00    -0.000 C 
BRANCH   7   9
ATOM      8  C   LIG    1       25.832 -24.535   6.864  0.00  0.00    +0.004 C 
ATOM      9  C   LIG    1       24.655 -24.170   5.981  0.00  0.00    -0.003 C 
ENDBRANCH   7   9
ENDBRANCH   6   7
ENDBRANCH   5   6
ENDBRANCH   4   5
ENDBRANCH   3   4
ENDBRANCH   2   3
ENDBRANCH   1   2
BRANCH   1  10
ATOM     10  C   LIG    1       29.084 -19.825   6.487  0.00  0.00    +0.002 C 
BRANCH  10  11
ATOM     11  C   LIG    1       29.882 -19.361   7.728  0.00  0.00    +0.028 C 
BRANCH  11  12
ATOM     12  C   LIG    1       31.163 -20.128   8.085  0.00  0.00    +0.160 C 
BRANCH  12  13
ATOM     13  O   LIG    1       31.887 -19.520   9.146  0.00  0.00    -0.378 OA
BRANCH  13  14
ATOM     14  C   LIG    1       31.789 -18.090   9.137  0.00  0.00    +0.187 C 
BRANCH  14  15
ATOM     15  C   LIG    1       31.493 -17.561  10.526  0.00  0.00    +0.184 C 
BRANCH  15  16
ATOM     16  O   LIG    1       30.204 -17.951  10.994  0.00  0.00    -0.393 OA
ATOM     17  H   LIG    1       30.229 -18.108  11.905  0.00  0.00    +0.209 HD
ENDBRANCH  15  16
ENDBRANCH  14  15
ENDBRANCH  13  14
ENDBRANCH  12  13
ENDBRANCH  11  12
ENDBRANCH  10  11
ENDBRANCH   1  10
TORSDOF 14
ENDMDL
MODEL 7
REMARK VINA RESULT:      -6.1      2.063      4.242
REMARK  Name = *****
REMARK                            x       y       z     vdW  Elec       q    Type
REMARK                         _______ _______ _______ _____ _____    ______ ____
ROOT
ATOM      1  C   LIG    1       25.442 -21.387   8.168  0.00  0.00    +0.000 C 
ENDROOT
BRANCH   1   2
ATOM      2  C   LIG    1       24.126 -20.834   7.606  0.00  0.00    -0.000 C 
BRANCH   2   3
ATOM      3  C   LIG    1       23.468 -21.660   6.477  0.00  0.00    -0.000 C 
BRANCH   3   4
ATOM      4  C   LIG    1       22.795 -22.963   6.962  0.00  0.00    -0.000 C 
BRANCH   4   5
ATOM      5  C   LIG    1       23.377 -24.310   6.568  0.00  0.00    -0.000 C 
BRANCH   5   6
ATOM      6  C   LIG    1       24.770 -24.245   5.912  0.00  0.00    -0.000 C 
BRANCH   6   7
ATOM      7  C   LIG    1       25.945 -24.854   6.697  0.00  0.00    -0.000 C 
BRANCH   7   9
ATOM      8  C   LIG    1       26.218 -26.938   5.262  0.00  0.00    +0.004 C 
ATOM      9  C   LIG    1       25.996 -26.384   6.655  0.00  0.00    -0.003 C 
ENDBRANCH   7   9
ENDBRANCH   6   7
ENDBRANCH   5   6
ENDBRANCH   4   5
ENDBRANCH   3   4
ENDBRANCH   2   3
ENDBRANCH   1   2
BRANCH   1  10
ATOM     10  C   LIG    1       26.692 -20.499   7.969  0.00  0.00    +0.002 C 
BRANCH  10  11
ATOM     11  C   LIG    1       27.804 -20.995   7.015  0.00  0.00    +0.028 C 
BRANCH  11  12
ATOM     12  C   LIG    1       28.990 -20.057   6.748  0.00  0.00    +0.160 C 
BRANCH  12  13
ATOM     13  O   LIG    1       29.586 -19.574   7.945  0.00  0.00    -0.378 OA
BRANCH  13  14
ATOM     14  C   LIG    1       30.953 -19.982   8.088  0.00  0.00    +0.187 C 
BRANCH  14  15
ATOM     15  C   LIG    1       31.040 -21.378   8.670  0.00  0.00    +0.184 C 
BRANCH  15  16
ATOM     16  O   LIG    1       32.133 -21.525   9.573  0.00  0.00    -0.393 OA
ATOM     17  H   LIG    1       32.904 -21.740   9.109  0.00  0.00    +0.209 HD
ENDBRANCH  15  16
ENDBRANCH  14  15
ENDBRANCH  13  14
ENDBRANCH  12  13
ENDBRANCH  11  12
ENDBRANCH  10  11
ENDBRANCH   1  10
TORSDOF 14
ENDMDL
MODEL 8
REMARK VINA RESULT:      -6.1      1.338      1.908
REMARK  Name = *****
REMARK                            x       y       z     vdW  Elec       q    Type
REMARK                         _______ _______ _______ _____ _____    ______ ____
ROOT
ATOM      1  C   LIG    1       28.798 -20.546   6.625  0.00  0.00    +0.000 C 
ENDROOT
BRANCH   1   2
ATOM      2  C   LIG    1       27.741 -19.950   5.686  0.00  0.00    -0.000 C 
BRANCH   2   3
ATOM      3  C   LIG    1       26.314 -20.531   5.813  0.00  0.00    -0.000 C 
BRANCH   3   4
ATOM      4  C   LIG    1       25.823 -20.679   7.270  0.00  0.00    -0.000 C 
BRANCH   4   5
ATOM      5  C   LIG    1       24.674 -21.620   7.592  0.00  0.00    -0.000 C 
BRANCH   5   6
ATOM      6  C   LIG    1       23.276 -21.073   7.250  0.00  0.00    -0.000 C 
BRANCH   6   7
ATOM      7  C   LIG    1       22.880 -21.035   5.763  0.00  0.00    -0.000 C 
BRANCH   7   9
ATOM      8  C   LIG    1       23.394 -19.186   4.090  0.00  0.00    +0.004 C 
ATOM      9  C   LIG    1       22.526 -19.637   5.248  0.00  0.00    -0.003 C 
ENDBRANCH   7   9
ENDBRANCH   6   7
ENDBRANCH   5   6
ENDBRANCH   4   5
ENDBRANCH   3   4
ENDBRANCH   2   3
ENDBRANCH   1   2
BRANCH   1  10
ATOM     10  C   LIG    1       29.466 -19.557   7.609  0.00  0.00    +0.002 C 
BRANCH  10  11
ATOM     11  C   LIG    1       30.939 -19.152   7.360  0.00  0.00    +0.028 C 
BRANCH  11  12
ATOM     12  C   LIG    1       31.734 -18.579   8.542  0.00  0.00    +0.160 C 
BRANCH  12  13
ATOM     13  O   LIG    1       32.043 -17.202   8.375  0.00  0.00    -0.378 OA
BRANCH  13  14
ATOM     14  C   LIG    1       32.293 -16.535   9.619  0.00  0.00    +0.187 C 
BRANCH  14  15
ATOM     15  C   LIG    1       31.460 -17.140  10.731  0.00  0.00    +0.184 C 
BRANCH  15  16
ATOM     16  O   LIG    1       30.400 -16.283  11.147  0.00  0.00    -0.393 OA
ATOM     17  H   LIG    1       29.925 -15.981  10.414  0.00  0.00    +0.209 HD
ENDBRANCH  15  16
ENDBRANCH  14  15
ENDBRANCH  13  14
ENDBRANCH  12  13
ENDBRANCH  11  12
ENDBRANCH  10  11
ENDBRANCH   1  10
TORSDOF 14
ENDMDL
MODEL 9
REMARK VINA RESULT:      -6.1      4.855      8.146
REMARK  Name = *****
REMARK                            x       y       z     vdW  Elec       q    Type
REMARK                         _______ _______ _______ _____ _____    ______ ____
ROOT
ATOM      1  C   LIG    1       23.578 -22.127   7.483  0.00  0.00    +0.000 C 
ENDROOT
BRANCH   1   2
ATOM      2  C   LIG    1       23.189 -20.773   6.875  0.00  0.00    -0.000 C 
BRANCH   2   3
ATOM      3  C   LIG    1       22.570 -20.815   5.460  0.00  0.00    -0.000 C 
BRANCH   3   4
ATOM      4  C   LIG    1       22.824 -19.540   4.625  0.00  0.00    -0.000 C 
BRANCH   4   5
ATOM      5  C   LIG    1       24.137 -19.369   3.880  0.00  0.00    -0.000 C 
BRANCH   5   6
ATOM      6  C   LIG    1       25.219 -20.406   4.233  0.00  0.00    -0.000 C 
BRANCH   6   7
ATOM      7  C   LIG    1       26.480 -19.891   4.949  0.00  0.00    -0.000 C 
BRANCH   7   9
ATOM      8  C   LIG    1       28.196 -20.632   6.677  0.00  0.00    +0.004 C 
ATOM      9  C   LIG    1       26.727 -20.537   6.316  0.00  0.00    -0.003 C 
ENDBRANCH   7   9
ENDBRANCH   6   7
ENDBRANCH   5   6
ENDBRANCH   4   5
ENDBRANCH   3   4
ENDBRANCH   2   3
ENDBRANCH   1   2
BRANCH   1  10
ATOM     10  C   LIG    1       23.527 -23.340   6.526  0.00  0.00    +0.002 C 
BRANCH  10  11
ATOM     11  C   LIG    1       24.845 -23.822   5.875  0.00  0.00    +0.028 C 
BRANCH  11  12
ATOM     12  C   LIG    1       25.400 -25.187   6.305  0.00  0.00    +0.160 C 
BRANCH  12  13
ATOM     13  O   LIG    1       24.382 -26.168   6.455  0.00  0.00    -0.378 OA
BRANCH  13  14
ATOM     14  C   LIG    1       24.400 -27.151   5.412  0.00  0.00    +0.187 C 
BRANCH  14  15
ATOM     15  C   LIG    1       24.312 -28.549   5.989  0.00  0.00    +0.184 C 
BRANCH  15  16
ATOM     16  O   LIG    1       23.246 -29.307   5.420  0.00  0.00    -0.393 OA
ATOM     17  H   LIG    1       23.357 -30.205   5.608  0.00  0.00    +0.209 HD
ENDBRANCH  15  16
ENDBRANCH  14  15
ENDBRANCH  13  14
ENDBRANCH  12  13
ENDBRANCH  11  12
ENDBRANCH  10  11
ENDBRANCH   1  10
TORSDOF 14
ENDMDL
