MODEL 1
REMARK VINA RESULT:      -4.6      0.000      0.000
REMARK  Name = *****
REMARK                            x       y       z     vdW  Elec       q    Type
REMARK                         _______ _______ _______ _____ _____    ______ ____
ROOT
ATOM      1  C   UNK A  0       25.939 -17.068   3.482  0.00  0.00    +0.071 A 
ATOM      2  N   UNK A  1       24.839 -16.264   3.523  0.00  0.00    -0.248 NA
ATOM      3  C   UNK A  1       25.042 -14.923   3.718  0.00  0.00    +0.108 A 
ATOM      4  C   UNK A  1       26.311 -14.370   3.872  0.00  0.00    +0.140 A 
ATOM      5  C   UNK A  1       27.419 -15.202   3.823  0.00  0.00    +0.049 A 
ATOM      6  C   UNK A  1       27.233 -16.568   3.627  0.00  0.00    +0.029 A 
ENDROOT
BRANCH   4   7
ATOM      7  O   UNK A  1       26.456 -13.028   4.078  0.00  0.00    -0.505 OA
ATOM      8  H   UNK A  1       27.057 -12.884   4.828  0.00  0.00    +0.292 HD
ENDBRANCH   4   7
BRANCH   1   9
ATOM      9  C   UNK A  0       25.722 -18.566   3.329  0.00  0.00    +0.176 C 
BRANCH   9  10
ATOM     10  O   UNK A  0       26.504 -19.242   4.321  0.00  0.00    -0.384 OA
ATOM     11  H   UNK A  0       27.257 -18.650   4.503  0.00  0.00    +0.210 HD
ENDBRANCH   9  10
BRANCH   9  12
ATOM     12  C   UNK A  0       24.223 -18.945   3.466  0.00  0.00    +0.119 C 
BRANCH  12  13
ATOM     13  N   UNK A  0       24.040 -20.192   4.232  0.00  0.00    -0.308 NA
ATOM     14  H   UNK A  0       23.973 -20.984   3.593  0.00  0.00    +0.122 HD
BRANCH  13  16
ATOM     15  C   UNK A  0       22.238 -18.844   5.115  0.00  0.00    +0.027 C 
ATOM     16  C   UNK A  0       22.928 -20.221   5.197  0.00  0.00    +0.011 C 
ATOM     17  C   UNK A  0       21.895 -21.299   4.836  0.00  0.00    +0.027 C 
ATOM     18  C   UNK A  0       23.424 -20.426   6.638  0.00  0.00    +0.027 C 
ENDBRANCH  13  16
ENDBRANCH  12  13
ENDBRANCH   9  12
ENDBRANCH   1   9
BRANCH   3  19
ATOM     19  C   UNK A  1       23.816 -14.037   3.779  0.00  0.00    +0.215 C 
BRANCH  19  20
ATOM     20  O   UNK A  1       23.751 -13.151   2.661  0.00  0.00    -0.389 OA
ATOM     21  H   UNK A  1       24.452 -12.488   2.831  0.00  0.00    +0.210 HD
ENDBRANCH  19  20
ENDBRANCH   3  19
TORSDOF 8
ENDMDL
MODEL 2
REMARK VINA RESULT:      -4.6      0.981      1.876
REMARK  Name = *****
REMARK                            x       y       z     vdW  Elec       q    Type
REMARK                         _______ _______ _______ _____ _____    ______ ____
ROOT
ATOM      1  C   UNK A  0       25.477 -16.863   3.532  0.00  0.00    +0.071 A 
ATOM      2  N   UNK A  1       26.634 -16.149   3.437  0.00  0.00    -0.248 NA
ATOM      3  C   UNK A  1       26.567 -14.799   3.660  0.00  0.00    +0.108 A 
ATOM      4  C   UNK A  1       25.375 -14.149   3.973  0.00  0.00    +0.140 A 
ATOM      5  C   UNK A  1       24.208 -14.891   4.071  0.00  0.00    +0.049 A 
ATOM      6  C   UNK A  1       24.257 -16.264   3.846  0.00  0.00    +0.029 A 
ENDROOT
BRANCH   4   7
ATOM      7  O   UNK A  1       25.361 -12.798   4.173  0.00  0.00    -0.505 OA
ATOM      8  H   UNK A  1       25.058 -12.613   5.077  0.00  0.00    +0.292 HD
ENDBRANCH   4   7
BRANCH   1   9
ATOM      9  C   UNK A  0       25.529 -18.351   3.225  0.00  0.00    +0.176 C 
BRANCH   9  10
ATOM     10  O   UNK A  0       26.486 -18.962   4.099  0.00  0.00    -0.384 OA
ATOM     11  H   UNK A  0       26.502 -18.401   4.896  0.00  0.00    +0.210 HD
ENDBRANCH   9  10
BRANCH   9  12
ATOM     12  C   UNK A  0       24.138 -19.020   3.392  0.00  0.00    +0.119 C 
BRANCH  12  13
ATOM     13  N   UNK A  0       24.185 -20.166   4.319  0.00  0.00    -0.308 NA
ATOM     14  H   UNK A  0       24.288 -21.033   3.794  0.00  0.00    +0.122 HD
BRANCH  13  16
ATOM     15  C   UNK A  0       22.284 -18.965   5.206  0.00  0.00    +0.027 C 
ATOM     16  C   UNK A  0       23.081 -20.283   5.287  0.00  0.00    +0.011 C 
ATOM     17  C   UNK A  0       22.136 -21.439   4.926  0.00  0.00    +0.027 C 
ATOM     18  C   UNK A  0       23.594 -20.449   6.726  0.00  0.00    +0.027 C 
ENDBRANCH  13  16
ENDBRANCH  12  13
ENDBRANCH   9  12
ENDBRANCH   1   9
BRANCH   3  19
ATOM     19  C   UNK A  1       27.852 -14.010   3.537  0.00  0.00    +0.215 C 
BRANCH  19  20
ATOM     20  O   UNK A  1       27.672 -12.830   2.754  0.00  0.00    -0.389 OA
ATOM     21  H   UNK A  1       26.994 -13.075   2.092  0.00  0.00    +0.210 HD
ENDBRANCH  19  20
ENDBRANCH   3  19
TORSDOF 8
ENDMDL
MODEL 3
REMARK VINA RESULT:      -4.5      2.491      6.373
REMARK  Name = *****
REMARK                            x       y       z     vdW  Elec       q    Type
REMARK                         _______ _______ _______ _____ _____    ______ ____
ROOT
ATOM      1  C   UNK A  0       25.096 -19.296   4.242  0.00  0.00    +0.071 A 
ATOM      2  N   UNK A  1       25.809 -20.025   5.146  0.00  0.00    -0.248 NA
ATOM      3  C   UNK A  1       25.106 -20.777   6.050  0.00  0.00    +0.108 A 
ATOM      4  C   UNK A  1       23.713 -20.816   6.072  0.00  0.00    +0.140 A 
ATOM      5  C   UNK A  1       23.004 -20.072   5.141  0.00  0.00    +0.049 A 
ATOM      6  C   UNK A  1       23.702 -19.300   4.215  0.00  0.00    +0.029 A 
ENDROOT
BRANCH   4   7
ATOM      7  O   UNK A  1       23.062 -21.571   7.003  0.00  0.00    -0.505 OA
ATOM      8  H   UNK A  1       23.242 -21.212   7.888  0.00  0.00    +0.292 HD
ENDBRANCH   4   7
BRANCH   1   9
ATOM      9  C   UNK A  0       25.865 -18.409   3.274  0.00  0.00    +0.176 C 
BRANCH   9  10
ATOM     10  O   UNK A  0       25.726 -18.948   1.955  0.00  0.00    -0.384 OA
ATOM     11  H   UNK A  0       24.769 -19.095   1.837  0.00  0.00    +0.210 HD
ENDBRANCH   9  10
BRANCH   9  12
ATOM     12  C   UNK A  0       25.362 -16.941   3.318  0.00  0.00    +0.119 C 
BRANCH  12  13
ATOM     13  N   UNK A  0       26.478 -15.978   3.347  0.00  0.00    -0.308 NA
ATOM     14  H   UNK A  0       27.191 -16.294   4.004  0.00  0.00    +0.122 HD
BRANCH  13  16
ATOM     15  C   UNK A  0       26.303 -13.822   2.268  0.00  0.00    +0.027 C 
ATOM     16  C   UNK A  0       26.134 -14.570   3.606  0.00  0.00    +0.011 C 
ATOM     17  C   UNK A  0       24.673 -14.421   4.059  0.00  0.00    +0.027 C 
ATOM     18  C   UNK A  0       27.075 -13.929   4.639  0.00  0.00    +0.027 C 
ENDBRANCH  13  16
ENDBRANCH  12  13
ENDBRANCH   9  12
ENDBRANCH   1   9
BRANCH   3  19
ATOM     19  C   UNK A  1       25.903 -21.571   7.062  0.00  0.00    +0.215 C 
BRANCH  19  20
ATOM     20  O   UNK A  1       27.301 -21.301   6.959  0.00  0.00    -0.389 OA
ATOM     21  H   UNK A  1       27.379 -20.340   7.129  0.00  0.00    +0.210 HD
ENDBRANCH  19  20
ENDBRANCH   3  19
TORSDOF 8
ENDMDL
MODEL 4
REMARK VINA RESULT:      -4.1      1.423      1.915
REMARK  Name = *****
REMARK                            x       y       z     vdW  Elec       q    Type
REMARK                         _______ _______ _______ _____ _____    ______ ____
ROOT
ATOM      1  C   UNK A  0       26.511 -15.755   3.742  0.00  0.00    +0.071 A 
ATOM      2  N   UNK A  1       25.274 -15.219   3.542  0.00  0.00    -0.248 NA
ATOM      3  C   UNK A  1       25.041 -13.961   4.033  0.00  0.00    +0.108 A 
ATOM      4  C   UNK A  1       26.010 -13.231   4.718  0.00  0.00    +0.140 A 
ATOM      5  C   UNK A  1       27.266 -13.790   4.908  0.00  0.00    +0.049 A 
ATOM      6  C   UNK A  1       27.520 -15.068   4.417  0.00  0.00    +0.029 A 
ENDROOT
BRANCH   4   7
ATOM      7  O   UNK A  1       25.721 -11.987   5.199  0.00  0.00    -0.505 OA
ATOM      8  H   UNK A  1       25.281 -12.074   6.061  0.00  0.00    +0.292 HD
ENDBRANCH   4   7
BRANCH   1   9
ATOM      9  C   UNK A  0       26.761 -17.174   3.255  0.00  0.00    +0.176 C 
BRANCH   9  10
ATOM     10  O   UNK A  0       27.750 -17.777   4.099  0.00  0.00    -0.384 OA
ATOM     11  H   UNK A  0       28.331 -17.045   4.377  0.00  0.00    +0.210 HD
ENDBRANCH   9  10
BRANCH   9  12
ATOM     12  C   UNK A  0       25.458 -18.019   3.257  0.00  0.00    +0.119 C 
BRANCH  12  13
ATOM     13  N   UNK A  0       25.709 -19.416   3.656  0.00  0.00    -0.308 NA
ATOM     14  H   UNK A  0       26.030 -19.953   2.852  0.00  0.00    +0.122 HD
BRANCH  13  16
ATOM     15  C   UNK A  0       25.120 -20.487   5.742  0.00  0.00    +0.027 C 
ATOM     16  C   UNK A  0       24.608 -20.121   4.333  0.00  0.00    +0.011 C 
ATOM     17  C   UNK A  0       23.373 -19.220   4.490  0.00  0.00    +0.027 C 
ATOM     18  C   UNK A  0       24.225 -21.421   3.607  0.00  0.00    +0.027 C 
ENDBRANCH  13  16
ENDBRANCH  12  13
ENDBRANCH   9  12
ENDBRANCH   1   9
BRANCH   3  19
ATOM     19  C   UNK A  1       23.661 -13.378   3.822  0.00  0.00    +0.215 C 
BRANCH  19  20
ATOM     20  O   UNK A  1       23.701 -12.222   2.985  0.00  0.00    -0.389 OA
ATOM     21  H   UNK A  1       24.651 -11.992   2.927  0.00  0.00    +0.210 HD
ENDBRANCH  19  20
ENDBRANCH   3  19
TORSDOF 8
ENDMDL
MODEL 5
REMARK VINA RESULT:      -4.0      2.471      6.095
REMARK  Name = *****
REMARK                            x       y       z     vdW  Elec       q    Type
REMARK                         _______ _______ _______ _____ _____    ______ ____
ROOT
ATOM      1  C   UNK A  0       25.358 -19.216   4.320  0.00  0.00    +0.071 A 
ATOM      2  N   UNK A  1       24.004 -19.312   4.194  0.00  0.00    -0.248 NA
ATOM      3  C   UNK A  1       23.337 -20.099   5.096  0.00  0.00    +0.108 A 
ATOM      4  C   UNK A  1       23.989 -20.790   6.115  0.00  0.00    +0.140 A 
ATOM      5  C   UNK A  1       25.367 -20.677   6.232  0.00  0.00    +0.049 A 
ATOM      6  C   UNK A  1       26.061 -19.882   5.323  0.00  0.00    +0.029 A 
ENDROOT
BRANCH   4   7
ATOM      7  O   UNK A  1       23.279 -21.572   6.979  0.00  0.00    -0.505 OA
ATOM      8  H   UNK A  1       22.397 -21.184   7.108  0.00  0.00    +0.292 HD
ENDBRANCH   4   7
BRANCH   1   9
ATOM      9  C   UNK A  0       26.114 -18.395   3.287  0.00  0.00    +0.176 C 
BRANCH   9  10
ATOM     10  O   UNK A  0       25.988 -19.040   2.014  0.00  0.00    -0.384 OA
ATOM     11  H   UNK A  0       26.294 -18.383   1.361  0.00  0.00    +0.210 HD
ENDBRANCH   9  10
BRANCH   9  12
ATOM     12  C   UNK A  0       25.584 -16.938   3.212  0.00  0.00    +0.119 C 
BRANCH  12  13
ATOM     13  N   UNK A  0       26.671 -15.950   3.341  0.00  0.00    -0.308 NA
ATOM     14  H   UNK A  0       27.333 -16.255   4.055  0.00  0.00    +0.122 HD
BRANCH  13  16
ATOM     15  C   UNK A  0       27.166 -14.029   4.722  0.00  0.00    +0.027 C 
ATOM     16  C   UNK A  0       26.274 -14.552   3.578  0.00  0.00    +0.011 C 
ATOM     17  C   UNK A  0       26.521 -13.678   2.338  0.00  0.00    +0.027 C 
ATOM     18  C   UNK A  0       24.806 -14.439   4.020  0.00  0.00    +0.027 C 
ENDBRANCH  13  16
ENDBRANCH  12  13
ENDBRANCH   9  12
ENDBRANCH   1   9
BRANCH   3  19
ATOM     19  C   UNK A  1       21.836 -20.214   4.941  0.00  0.00    +0.215 C 
BRANCH  19  20
ATOM     20  O   UNK A  1       21.427 -21.572   4.774  0.00  0.00    -0.389 OA
ATOM     21  H   UNK A  1       21.524 -21.969   5.664  0.00  0.00    +0.210 HD
ENDBRANCH  19  20
ENDBRANCH   3  19
TORSDOF 8
ENDMDL
MODEL 6
REMARK VINA RESULT:      -4.0      2.444      6.513
REMARK  Name = *****
REMARK                            x       y       z     vdW  Elec       q    Type
REMARK                         _______ _______ _______ _____ _____    ______ ____
ROOT
ATOM      1  C   UNK A  0       22.863 -17.544   4.371  0.00  0.00    +0.071 A 
ATOM      2  N   UNK A  1       24.094 -17.916   3.919  0.00  0.00    -0.248 NA
ATOM      3  C   UNK A  1       24.380 -19.256   3.891  0.00  0.00    +0.108 A 
ATOM      4  C   UNK A  1       23.470 -20.227   4.303  0.00  0.00    +0.140 A 
ATOM      5  C   UNK A  1       22.220 -19.830   4.755  0.00  0.00    +0.049 A 
ATOM      6  C   UNK A  1       21.911 -18.472   4.792  0.00  0.00    +0.029 A 
ENDROOT
BRANCH   4   7
ATOM      7  O   UNK A  1       23.811 -21.548   4.267  0.00  0.00    -0.505 OA
ATOM      8  H   UNK A  1       23.245 -22.005   3.623  0.00  0.00    +0.292 HD
ENDBRANCH   4   7
BRANCH   1   9
ATOM      9  C   UNK A  0       22.558 -16.056   4.465  0.00  0.00    +0.176 C 
BRANCH   9  10
ATOM     10  O   UNK A  0       21.987 -15.790   5.752  0.00  0.00    -0.384 OA
ATOM     11  H   UNK A  0       21.600 -14.898   5.682  0.00  0.00    +0.210 HD
ENDBRANCH   9  10
BRANCH   9  12
ATOM     12  C   UNK A  0       23.830 -15.195   4.247  0.00  0.00    +0.119 C 
BRANCH  12  13
ATOM     13  N   UNK A  0       23.543 -13.976   3.469  0.00  0.00    -0.308 NA
ATOM     14  H   UNK A  0       23.422 -14.214   2.485  0.00  0.00    +0.122 HD
BRANCH  13  16
ATOM     15  C   UNK A  0       25.604 -13.344   4.560  0.00  0.00    +0.027 C 
ATOM     16  C   UNK A  0       24.490 -12.858   3.611  0.00  0.00    +0.011 C 
ATOM     17  C   UNK A  0       25.132 -12.488   2.265  0.00  0.00    +0.027 C 
ATOM     18  C   UNK A  0       23.828 -11.620   4.238  0.00  0.00    +0.027 C 
ENDBRANCH  13  16
ENDBRANCH  12  13
ENDBRANCH   9  12
ENDBRANCH   1   9
BRANCH   3  19
ATOM     19  C   UNK A  1       25.754 -19.662   3.404  0.00  0.00    +0.215 C 
BRANCH  19  20
ATOM     20  O   UNK A  1       26.500 -20.324   4.426  0.00  0.00    -0.389 OA
ATOM     21  H   UNK A  1       27.336 -19.817   4.488  0.00  0.00    +0.210 HD
ENDBRANCH  19  20
ENDBRANCH   3  19
TORSDOF 8
ENDMDL
MODEL 7
REMARK VINA RESULT:      -3.9      2.435      6.489
REMARK  Name = *****
REMARK                            x       y       z     vdW  Elec       q    Type
REMARK                         _______ _______ _______ _____ _____    ______ ____
ROOT
ATOM      1  C   UNK A  0       22.889 -17.564   4.371  0.00  0.00    +0.071 A 
ATOM      2  N   UNK A  1       24.116 -17.943   3.914  0.00  0.00    -0.248 NA
ATOM      3  C   UNK A  1       24.399 -19.283   3.891  0.00  0.00    +0.108 A 
ATOM      4  C   UNK A  1       23.488 -20.249   4.313  0.00  0.00    +0.140 A 
ATOM      5  C   UNK A  1       22.242 -19.847   4.770  0.00  0.00    +0.049 A 
ATOM      6  C   UNK A  1       21.938 -18.489   4.802  0.00  0.00    +0.029 A 
ENDROOT
BRANCH   4   7
ATOM      7  O   UNK A  1       23.826 -21.572   4.282  0.00  0.00    -0.505 OA
ATOM      8  H   UNK A  1       24.781 -21.653   4.126  0.00  0.00    +0.292 HD
ENDBRANCH   4   7
BRANCH   1   9
ATOM      9  C   UNK A  0       22.588 -16.076   4.460  0.00  0.00    +0.176 C 
BRANCH   9  10
ATOM     10  O   UNK A  0       21.972 -15.811   5.725  0.00  0.00    -0.384 OA
ATOM     11  H   UNK A  0       21.423 -15.018   5.584  0.00  0.00    +0.210 HD
ENDBRANCH   9  10
BRANCH   9  12
ATOM     12  C   UNK A  0       23.872 -15.220   4.291  0.00  0.00    +0.119 C 
BRANCH  12  13
ATOM     13  N   UNK A  0       23.630 -14.021   3.468  0.00  0.00    -0.308 NA
ATOM     14  H   UNK A  0       23.592 -14.279   2.483  0.00  0.00    +0.122 HD
BRANCH  13  16
ATOM     15  C   UNK A  0       24.925 -12.379   2.257  0.00  0.00    +0.027 C 
ATOM     16  C   UNK A  0       24.546 -12.885   3.663  0.00  0.00    +0.011 C 
ATOM     17  C   UNK A  0       23.865 -11.734   4.420  0.00  0.00    +0.027 C 
ATOM     18  C   UNK A  0       25.835 -13.305   4.389  0.00  0.00    +0.027 C 
ENDBRANCH  13  16
ENDBRANCH  12  13
ENDBRANCH   9  12
ENDBRANCH   1   9
BRANCH   3  19
ATOM     19  C   UNK A  1       25.769 -19.696   3.397  0.00  0.00    +0.215 C 
BRANCH  19  20
ATOM     20  O   UNK A  1       26.492 -20.417   4.395  0.00  0.00    -0.389 OA
ATOM     21  H   UNK A  1       25.968 -20.296   5.214  0.00  0.00    +0.210 HD
ENDBRANCH  19  20
ENDBRANCH   3  19
TORSDOF 8
ENDMDL
MODEL 8
REMARK VINA RESULT:      -3.6      2.080      6.191
REMARK  Name = *****
REMARK                            x       y       z     vdW  Elec       q    Type
REMARK                         _______ _______ _______ _____ _____    ______ ____
ROOT
ATOM      1  C   UNK A  0       22.805 -17.480   4.330  0.00  0.00    +0.071 A 
ATOM      2  N   UNK A  1       24.056 -17.817   3.906  0.00  0.00    -0.248 NA
ATOM      3  C   UNK A  1       24.385 -19.147   3.892  0.00  0.00    +0.108 A 
ATOM      4  C   UNK A  1       23.497 -20.143   4.292  0.00  0.00    +0.140 A 
ATOM      5  C   UNK A  1       22.226 -19.784   4.715  0.00  0.00    +0.049 A 
ATOM      6  C   UNK A  1       21.875 -18.436   4.737  0.00  0.00    +0.029 A 
ENDROOT
BRANCH   4   7
ATOM      7  O   UNK A  1       23.880 -21.453   4.272  0.00  0.00    -0.505 OA
ATOM      8  H   UNK A  1       24.113 -21.730   5.173  0.00  0.00    +0.292 HD
ENDBRANCH   4   7
BRANCH   1   9
ATOM      9  C   UNK A  0       22.451 -16.003   4.408  0.00  0.00    +0.176 C 
BRANCH   9  10
ATOM     10  O   UNK A  0       22.370 -15.627   5.788  0.00  0.00    -0.384 OA
ATOM     11  H   UNK A  0       22.897 -14.811   5.864  0.00  0.00    +0.210 HD
ENDBRANCH   9  10
BRANCH   9  12
ATOM     12  C   UNK A  0       23.494 -15.124   3.667  0.00  0.00    +0.119 C 
BRANCH  12  13
ATOM     13  N   UNK A  0       24.510 -14.580   4.587  0.00  0.00    -0.308 NA
ATOM     14  H   UNK A  0       24.106 -13.825   5.140  0.00  0.00    +0.122 HD
BRANCH  13  16
ATOM     15  C   UNK A  0       26.599 -13.488   5.121  0.00  0.00    +0.027 C 
ATOM     16  C   UNK A  0       25.785 -14.151   3.990  0.00  0.00    +0.011 C 
ATOM     17  C   UNK A  0       26.589 -15.346   3.457  0.00  0.00    +0.027 C 
ATOM     18  C   UNK A  0       25.577 -13.113   2.875  0.00  0.00    +0.027 C 
ENDBRANCH  13  16
ENDBRANCH  12  13
ENDBRANCH   9  12
ENDBRANCH   1   9
BRANCH   3  19
ATOM     19  C   UNK A  1       25.781 -19.512   3.436  0.00  0.00    +0.215 C 
BRANCH  19  20
ATOM     20  O   UNK A  1       26.502 -20.206   4.454  0.00  0.00    -0.389 OA
ATOM     21  H   UNK A  1       27.442 -20.112   4.197  0.00  0.00    +0.210 HD
ENDBRANCH  19  20
ENDBRANCH   3  19
TORSDOF 8
ENDMDL
MODEL 9
REMARK VINA RESULT:      -3.5      2.407      6.461
REMARK  Name = *****
REMARK                            x       y       z     vdW  Elec       q    Type
REMARK                         _______ _______ _______ _____ _____    ______ ____
ROOT
ATOM      1  C   UNK A  0       23.493 -17.741   4.204  0.00  0.00    +0.071 A 
ATOM      2  N   UNK A  1       22.744 -18.730   4.767  0.00  0.00    -0.248 NA
ATOM      3  C   UNK A  1       23.273 -19.994   4.785  0.00  0.00    +0.108 A 
ATOM      4  C   UNK A  1       24.527 -20.291   4.255  0.00  0.00    +0.140 A 
ATOM      5  C   UNK A  1       25.278 -19.271   3.690  0.00  0.00    +0.049 A 
ATOM      6  C   UNK A  1       24.756 -17.980   3.662  0.00  0.00    +0.029 A 
ENDROOT
BRANCH   4   7
ATOM      7  O   UNK A  1       25.001 -21.570   4.287  0.00  0.00    -0.505 OA
ATOM      8  H   UNK A  1       25.539 -21.730   3.493  0.00  0.00    +0.292 HD
ENDBRANCH   4   7
BRANCH   1   9
ATOM      9  C   UNK A  0       22.890 -16.347   4.122  0.00  0.00    +0.176 C 
BRANCH   9  10
ATOM     10  O   UNK A  0       21.986 -16.178   5.221  0.00  0.00    -0.384 OA
ATOM     11  H   UNK A  0       22.513 -15.759   5.926  0.00  0.00    +0.210 HD
ENDBRANCH   9  10
BRANCH   9  12
ATOM     12  C   UNK A  0       23.984 -15.246   4.146  0.00  0.00    +0.119 C 
BRANCH  12  13
ATOM     13  N   UNK A  0       23.520 -13.996   3.515  0.00  0.00    -0.308 NA
ATOM     14  H   UNK A  0       23.311 -14.162   2.531  0.00  0.00    +0.122 HD
BRANCH  13  16
ATOM     15  C   UNK A  0       25.753 -13.335   4.165  0.00  0.00    +0.027 C 
ATOM     16  C   UNK A  0       24.390 -12.817   3.661  0.00  0.00    +0.011 C 
ATOM     17  C   UNK A  0       24.612 -12.111   2.315  0.00  0.00    +0.027 C 
ATOM     18  C   UNK A  0       23.840 -11.822   4.695  0.00  0.00    +0.027 C 
ENDBRANCH  13  16
ENDBRANCH  12  13
ENDBRANCH   9  12
ENDBRANCH   1   9
BRANCH   3  19
ATOM     19  C   UNK A  1       22.429 -21.092   5.397  0.00  0.00    +0.215 C 
BRANCH  19  20
ATOM     20  O   UNK A  1       22.980 -21.552   6.631  0.00  0.00    -0.389 OA
ATOM     21  H   UNK A  1       22.608 -22.451   6.746  0.00  0.00    +0.210 HD
ENDBRANCH  19  20
ENDBRANCH   3  19
TORSDOF 8
ENDMDL
