MODEL 1
REMARK VINA RESULT:      -5.6      0.000      0.000
REMARK  Name = *****
REMARK                            x       y       z     vdW  Elec       q    Type
REMARK                         _______ _______ _______ _____ _____    ______ ____
ROOT
ATOM      1  O   LIG    1       26.376 -16.625   3.170  0.00  0.00    -0.458 OA
ENDROOT
BRANCH   1   3
ATOM      2  C   LIG    1       25.532 -14.724   4.504  0.00  0.00    +0.032 C 
ATOM      3  C   LIG    1       26.719 -15.323   3.690  0.00  0.00    +0.180 C 
ATOM      4  C   LIG    1       27.161 -14.394   2.552  0.00  0.00    +0.048 C 
ATOM      5  C   LIG    1       27.517 -12.976   3.022  0.00  0.00    -0.011 C 
ATOM      6  C   LIG    1       28.885 -12.928   3.714  0.00  0.00    +0.007 C 
ATOM      7  C   LIG    1       26.418 -12.391   3.919  0.00  0.00    +0.004 C 
ATOM      8  C   LIG    1       25.983 -13.344   5.036  0.00  0.00    +0.007 C 
BRANCH   2  10
ATOM      9  C   LIG    1       22.992 -15.245   4.640  0.00  0.00    +0.007 C 
ATOM     10  C   LIG    1       24.128 -14.653   3.800  0.00  0.00    -0.011 C 
ATOM     11  C   LIG    1       23.737 -13.201   3.469  0.00  0.00    +0.007 C 
ENDBRANCH   2  10
ENDBRANCH   1   3
BRANCH   1  12
ATOM     12  C   LIG    1       26.835 -17.710   3.857  0.00  0.00    +0.341 C 
ATOM     13  O   LIG    1       27.967 -17.876   4.270  0.00  0.00    -0.245 OA
BRANCH  12  14
ATOM     14  C   LIG    1       25.736 -18.712   4.009  0.00  0.00    +0.080 A 
ATOM     15  C   LIG    1       25.962 -19.914   4.711  0.00  0.00    +0.039 A 
ATOM     16  C   LIG    1       24.908 -20.840   4.807  0.00  0.00    +0.023 A 
ATOM     17  C   LIG    1       23.643 -20.554   4.286  0.00  0.00    +0.002 A 
ATOM     18  C   LIG    1       23.416 -19.348   3.635  0.00  0.00    +0.001 A 
ATOM     19  C   LIG    1       24.458 -18.430   3.501  0.00  0.00    +0.017 A 
BRANCH  15  20
ATOM     20  N   LIG    1       27.247 -20.335   5.108  0.00  0.00    -0.357 N 
ATOM     21  H   LIG    1       27.849 -20.551   4.308  0.00  0.00    +0.142 HD
ATOM     22  H   LIG    1       27.702 -19.712   5.766  0.00  0.00    +0.142 HD
ENDBRANCH  15  20
ENDBRANCH  12  14
ENDBRANCH   1  12
TORSDOF 5
ENDMDL
MODEL 2
REMARK VINA RESULT:      -4.6      1.259      2.806
REMARK  Name = *****
REMARK                            x       y       z     vdW  Elec       q    Type
REMARK                         _______ _______ _______ _____ _____    ______ ____
ROOT
ATOM      1  O   LIG    1       25.351 -16.351   4.096  0.00  0.00    -0.458 OA
ENDROOT
BRANCH   1   3
ATOM      2  C   LIG    1       26.735 -14.595   3.042  0.00  0.00    +0.032 C 
ATOM      3  C   LIG    1       25.302 -15.168   3.269  0.00  0.00    +0.180 C 
ATOM      4  C   LIG    1       24.358 -14.126   3.884  0.00  0.00    +0.048 C 
ATOM      5  C   LIG    1       24.274 -12.824   3.074  0.00  0.00    -0.011 C 
ATOM      6  C   LIG    1       23.418 -12.987   1.812  0.00  0.00    +0.007 C 
ATOM      7  C   LIG    1       25.670 -12.284   2.736  0.00  0.00    +0.004 C 
ATOM      8  C   LIG    1       26.598 -13.346   2.140  0.00  0.00    +0.007 C 
BRANCH   2  10
ATOM      9  C   LIG    1       28.776 -13.345   4.049  0.00  0.00    +0.007 C 
ATOM     10  C   LIG    1       27.615 -14.309   4.312  0.00  0.00    -0.011 C 
ATOM     11  C   LIG    1       26.777 -13.706   5.455  0.00  0.00    +0.007 C 
ENDBRANCH   2  10
ENDBRANCH   1   3
BRANCH   1  12
ATOM     12  C   LIG    1       25.449 -17.551   3.458  0.00  0.00    +0.341 C 
ATOM     13  O   LIG    1       26.228 -17.833   2.568  0.00  0.00    -0.245 OA
BRANCH  12  14
ATOM     14  C   LIG    1       24.416 -18.491   3.992  0.00  0.00    +0.080 A 
ATOM     15  C   LIG    1       24.792 -19.764   4.470  0.00  0.00    +0.039 A 
ATOM     16  C   LIG    1       23.785 -20.626   4.939  0.00  0.00    +0.023 A 
ATOM     17  C   LIG    1       22.451 -20.214   5.002  0.00  0.00    +0.002 A 
ATOM     18  C   LIG    1       22.095 -18.942   4.570  0.00  0.00    +0.001 A 
ATOM     19  C   LIG    1       23.075 -18.084   4.072  0.00  0.00    +0.017 A 
BRANCH  15  20
ATOM     20  N   LIG    1       26.082 -20.300   4.279  0.00  0.00    -0.357 N 
ATOM     21  H   LIG    1       26.566 -19.872   3.484  0.00  0.00    +0.142 HD
ATOM     22  H   LIG    1       26.658 -20.302   5.115  0.00  0.00    +0.142 HD
ENDBRANCH  15  20
ENDBRANCH  12  14
ENDBRANCH   1  12
TORSDOF 5
ENDMDL
MODEL 3
REMARK VINA RESULT:      -4.3      2.032      5.885
REMARK  Name = *****
REMARK                            x       y       z     vdW  Elec       q    Type
REMARK                         _______ _______ _______ _____ _____    ______ ____
ROOT
ATOM      1  O   LIG    1       25.326 -17.870   3.331  0.00  0.00    -0.458 OA
ENDROOT
BRANCH   1   3
ATOM      2  C   LIG    1       24.492 -20.086   4.040  0.00  0.00    +0.032 C 
ATOM      3  C   LIG    1       25.712 -19.120   3.941  0.00  0.00    +0.180 C 
ATOM      4  C   LIG    1       26.357 -18.869   5.311  0.00  0.00    +0.048 C 
ATOM      5  C   LIG    1       26.771 -20.156   6.038  0.00  0.00    -0.011 C 
ATOM      6  C   LIG    1       28.050 -20.763   5.447  0.00  0.00    +0.007 C 
ATOM      7  C   LIG    1       25.627 -21.179   6.061  0.00  0.00    +0.004 C 
ATOM      8  C   LIG    1       24.990 -21.400   4.687  0.00  0.00    +0.007 C 
BRANCH   2  10
ATOM      9  C   LIG    1       22.408 -18.546   3.877  0.00  0.00    +0.007 C 
ATOM     10  C   LIG    1       23.189 -19.546   4.734  0.00  0.00    -0.011 C 
ATOM     11  C   LIG    1       22.222 -20.692   5.086  0.00  0.00    +0.007 C 
ENDBRANCH   2  10
ENDBRANCH   1   3
BRANCH   1  12
ATOM     12  C   LIG    1       26.216 -16.841   3.405  0.00  0.00    +0.341 C 
ATOM     13  O   LIG    1       27.429 -16.936   3.410  0.00  0.00    -0.245 OA
BRANCH  12  14
ATOM     14  C   LIG    1       25.480 -15.544   3.517  0.00  0.00    +0.080 A 
ATOM     15  C   LIG    1       26.030 -14.365   2.971  0.00  0.00    +0.039 A 
ATOM     16  C   LIG    1       25.316 -13.164   3.123  0.00  0.00    +0.023 A 
ATOM     17  C   LIG    1       24.058 -13.140   3.732  0.00  0.00    +0.002 A 
ATOM     18  C   LIG    1       23.504 -14.314   4.227  0.00  0.00    +0.001 A 
ATOM     19  C   LIG    1       24.211 -15.511   4.116  0.00  0.00    +0.017 A 
BRANCH  15  20
ATOM     20  N   LIG    1       27.356 -14.289   2.501  0.00  0.00    -0.357 N 
ATOM     21  H   LIG    1       28.027 -14.114   3.256  0.00  0.00    +0.142 HD
ATOM     22  H   LIG    1       27.636 -15.074   1.922  0.00  0.00    +0.142 HD
ENDBRANCH  15  20
ENDBRANCH  12  14
ENDBRANCH   1  12
TORSDOF 5
ENDMDL
MODEL 4
REMARK VINA RESULT:      -3.9      1.685      3.676
REMARK  Name = *****
REMARK                            x       y       z     vdW  Elec       q    Type
REMARK                         _______ _______ _______ _____ _____    ______ ____
ROOT
ATOM      1  O   LIG    1       27.086 -16.587   3.305  0.00  0.00    -0.458 OA
ENDROOT
BRANCH   1   3
ATOM      2  C   LIG    1       27.016 -14.142   2.955  0.00  0.00    +0.032 C 
ATOM      3  C   LIG    1       26.202 -15.458   3.142  0.00  0.00    +0.180 C 
ATOM      4  C   LIG    1       25.229 -15.367   4.326  0.00  0.00    +0.048 C 
ATOM      5  C   LIG    1       24.271 -14.171   4.240  0.00  0.00    -0.011 C 
ATOM      6  C   LIG    1       23.149 -14.407   3.221  0.00  0.00    +0.007 C 
ATOM      7  C   LIG    1       25.026 -12.868   3.947  0.00  0.00    +0.004 C 
ATOM      8  C   LIG    1       26.002 -12.989   2.773  0.00  0.00    +0.007 C 
BRANCH   2  10
ATOM      9  C   LIG    1       29.000 -12.616   3.648  0.00  0.00    +0.007 C 
ATOM     10  C   LIG    1       28.108 -13.800   4.033  0.00  0.00    -0.011 C 
ATOM     11  C   LIG    1       27.469 -13.462   5.393  0.00  0.00    +0.007 C 
ENDBRANCH   2  10
ENDBRANCH   1   3
BRANCH   1  12
ATOM     12  C   LIG    1       26.518 -17.778   3.647  0.00  0.00    +0.341 C 
ATOM     13  O   LIG    1       25.448 -18.205   3.257  0.00  0.00    -0.245 OA
BRANCH  12  14
ATOM     14  C   LIG    1       27.396 -18.494   4.623  0.00  0.00    +0.080 A 
ATOM     15  C   LIG    1       27.019 -19.757   5.125  0.00  0.00    +0.039 A 
ATOM     16  C   LIG    1       27.862 -20.383   6.060  0.00  0.00    +0.023 A 
ATOM     17  C   LIG    1       29.081 -19.810   6.433  0.00  0.00    +0.002 A 
ATOM     18  C   LIG    1       29.466 -18.587   5.899  0.00  0.00    +0.001 A 
ATOM     19  C   LIG    1       28.628 -17.935   4.995  0.00  0.00    +0.017 A 
BRANCH  15  20
ATOM     20  N   LIG    1       25.737 -20.306   4.923  0.00  0.00    -0.357 N 
ATOM     21  H   LIG    1       25.282 -20.566   5.804  0.00  0.00    +0.142 HD
ATOM     22  H   LIG    1       25.131 -19.740   4.338  0.00  0.00    +0.142 HD
ENDBRANCH  15  20
ENDBRANCH  12  14
ENDBRANCH   1  12
TORSDOF 5
ENDMDL
MODEL 5
REMARK VINA RESULT:      -3.6      1.859      3.231
REMARK  Name = *****
REMARK                            x       y       z     vdW  Elec       q    Type
REMARK                         _______ _______ _______ _____ _____    ______ ____
ROOT
ATOM      1  O   LIG    1       24.679 -16.768   4.047  0.00  0.00    -0.458 OA
ENDROOT
BRANCH   1   3
ATOM      2  C   LIG    1       26.485 -15.351   3.130  0.00  0.00    +0.032 C 
ATOM      3  C   LIG    1       24.949 -15.557   3.309  0.00  0.00    +0.180 C 
ATOM      4  C   LIG    1       24.286 -14.355   3.995  0.00  0.00    +0.048 C 
ATOM      5  C   LIG    1       24.552 -13.021   3.283  0.00  0.00    -0.011 C 
ATOM      6  C   LIG    1       23.711 -12.872   2.009  0.00  0.00    +0.007 C 
ATOM      7  C   LIG    1       26.046 -12.830   2.991  0.00  0.00    +0.004 C 
ATOM      8  C   LIG    1       26.688 -14.048   2.322  0.00  0.00    +0.007 C 
BRANCH   2  10
ATOM      9  C   LIG    1       28.244 -16.649   4.531  0.00  0.00    +0.007 C 
ATOM     10  C   LIG    1       27.381 -15.389   4.421  0.00  0.00    -0.011 C 
ATOM     11  C   LIG    1       28.334 -14.180   4.480  0.00  0.00    +0.007 C 
ENDBRANCH   2  10
ENDBRANCH   1   3
BRANCH   1  12
ATOM     12  C   LIG    1       25.054 -17.944   3.469  0.00  0.00    +0.341 C 
ATOM     13  O   LIG    1       25.784 -18.073   2.505  0.00  0.00    -0.245 OA
BRANCH  12  14
ATOM     14  C   LIG    1       24.400 -19.086   4.180  0.00  0.00    +0.080 A 
ATOM     15  C   LIG    1       23.007 -19.079   4.405  0.00  0.00    +0.039 A 
ATOM     16  C   LIG    1       22.438 -20.161   5.100  0.00  0.00    +0.023 A 
ATOM     17  C   LIG    1       23.213 -21.254   5.498  0.00  0.00    +0.002 A 
ATOM     18  C   LIG    1       24.576 -21.273   5.233  0.00  0.00    +0.001 A 
ATOM     19  C   LIG    1       25.165 -20.195   4.573  0.00  0.00    +0.017 A 
BRANCH  15  20
ATOM     20  N   LIG    1       22.205 -17.942   4.183  0.00  0.00    -0.357 N 
ATOM     21  H   LIG    1       22.439 -17.172   4.817  0.00  0.00    +0.142 HD
ATOM     22  H   LIG    1       22.174 -17.639   3.215  0.00  0.00    +0.142 HD
ENDBRANCH  15  20
ENDBRANCH  12  14
ENDBRANCH   1  12
TORSDOF 5
ENDMDL
MODEL 6
REMARK VINA RESULT:      -3.0      1.762      2.182
REMARK  Name = *****
REMARK                            x       y       z     vdW  Elec       q    Type
REMARK                         _______ _______ _______ _____ _____    ______ ____
ROOT
ATOM      1  O   LIG    1       24.894 -16.091   3.550  0.00  0.00    -0.458 OA
ENDROOT
BRANCH   1   3
ATOM      2  C   LIG    1       25.147 -13.970   4.793  0.00  0.00    +0.032 C 
ATOM      3  C   LIG    1       25.841 -15.071   3.933  0.00  0.00    +0.180 C 
ATOM      4  C   LIG    1       26.524 -14.483   2.691  0.00  0.00    +0.048 C 
ATOM      5  C   LIG    1       27.528 -13.367   3.015  0.00  0.00    -0.011 C 
ATOM      6  C   LIG    1       28.839 -13.923   3.584  0.00  0.00    +0.007 C 
ATOM      7  C   LIG    1       26.915 -12.317   3.951  0.00  0.00    +0.004 C 
ATOM      8  C   LIG    1       26.226 -12.929   5.173  0.00  0.00    +0.007 C 
BRANCH   2  10
ATOM      9  C   LIG    1       23.637 -11.859   4.700  0.00  0.00    +0.007 C 
ATOM     10  C   LIG    1       23.856 -13.292   4.205  0.00  0.00    -0.011 C 
ATOM     11  C   LIG    1       23.900 -13.238   2.666  0.00  0.00    +0.007 C 
ENDBRANCH   2  10
ENDBRANCH   1   3
BRANCH   1  12
ATOM     12  C   LIG    1       25.376 -17.356   3.384  0.00  0.00    +0.341 C 
ATOM     13  O   LIG    1       26.447 -17.660   2.895  0.00  0.00    -0.245 OA
BRANCH  12  14
ATOM     14  C   LIG    1       24.366 -18.347   3.866  0.00  0.00    +0.080 A 
ATOM     15  C   LIG    1       23.061 -17.928   4.198  0.00  0.00    +0.039 A 
ATOM     16  C   LIG    1       22.151 -18.890   4.672  0.00  0.00    +0.023 A 
ATOM     17  C   LIG    1       22.500 -20.241   4.747  0.00  0.00    +0.002 A 
ATOM     18  C   LIG    1       23.773 -20.652   4.375  0.00  0.00    +0.001 A 
ATOM     19  C   LIG    1       24.701 -19.709   3.933  0.00  0.00    +0.017 A 
BRANCH  15  20
ATOM     20  N   LIG    1       22.701 -16.570   4.307  0.00  0.00    -0.357 N 
ATOM     21  H   LIG    1       21.795 -16.445   4.770  0.00  0.00    +0.142 HD
ATOM     22  H   LIG    1       23.419 -15.982   4.717  0.00  0.00    +0.142 HD
ENDBRANCH  15  20
ENDBRANCH  12  14
ENDBRANCH   1  12
TORSDOF 5
ENDMDL
MODEL 7
REMARK VINA RESULT:      -3.0      1.927      5.926
REMARK  Name = *****
REMARK                            x       y       z     vdW  Elec       q    Type
REMARK                         _______ _______ _______ _____ _____    ______ ____
ROOT
ATOM      1  O   LIG    1       25.271 -17.472   3.334  0.00  0.00    -0.458 OA
ENDROOT
BRANCH   1   3
ATOM      2  C   LIG    1       24.290 -19.703   3.743  0.00  0.00    +0.032 C 
ATOM      3  C   LIG    1       25.567 -18.809   3.791  0.00  0.00    +0.180 C 
ATOM      4  C   LIG    1       26.187 -18.769   5.194  0.00  0.00    +0.048 C 
ATOM      5  C   LIG    1       26.505 -20.159   5.762  0.00  0.00    -0.011 C 
ATOM      6  C   LIG    1       27.762 -20.765   5.126  0.00  0.00    +0.007 C 
ATOM      7  C   LIG    1       25.303 -21.105   5.634  0.00  0.00    +0.004 C 
ATOM      8  C   LIG    1       24.693 -21.115   4.230  0.00  0.00    +0.007 C 
BRANCH   2  10
ATOM      9  C   LIG    1       21.983 -18.531   3.527  0.00  0.00    +0.007 C 
ATOM     10  C   LIG    1       23.002 -19.174   4.473  0.00  0.00    -0.011 C 
ATOM     11  C   LIG    1       22.273 -20.307   5.220  0.00  0.00    +0.007 C 
ENDBRANCH   2  10
ENDBRANCH   1   3
BRANCH   1  12
ATOM     12  C   LIG    1       26.254 -16.537   3.467  0.00  0.00    +0.341 C 
ATOM     13  O   LIG    1       27.417 -16.751   3.753  0.00  0.00    -0.245 OA
BRANCH  12  14
ATOM     14  C   LIG    1       25.687 -15.173   3.242  0.00  0.00    +0.080 A 
ATOM     15  C   LIG    1       24.475 -14.796   3.858  0.00  0.00    +0.039 A 
ATOM     16  C   LIG    1       23.965 -13.512   3.597  0.00  0.00    +0.023 A 
ATOM     17  C   LIG    1       24.670 -12.599   2.808  0.00  0.00    +0.002 A 
ATOM     18  C   LIG    1       25.885 -12.962   2.242  0.00  0.00    +0.001 A 
ATOM     19  C   LIG    1       26.392 -14.243   2.462  0.00  0.00    +0.017 A 
BRANCH  15  20
ATOM     20  N   LIG    1       23.638 -15.716   4.519  0.00  0.00    -0.357 N 
ATOM     21  H   LIG    1       23.533 -16.591   3.996  0.00  0.00    +0.142 HD
ATOM     22  H   LIG    1       23.889 -15.883   5.488  0.00  0.00    +0.142 HD
ENDBRANCH  15  20
ENDBRANCH  12  14
ENDBRANCH   1  12
TORSDOF 5
ENDMDL
MODEL 8
REMARK VINA RESULT:      -2.8      1.746      2.468
REMARK  Name = *****
REMARK                            x       y       z     vdW  Elec       q    Type
REMARK                         _______ _______ _______ _____ _____    ______ ____
ROOT
ATOM      1  O   LIG    1       24.221 -15.983   3.397  0.00  0.00    -0.458 OA
ENDROOT
BRANCH   1   3
ATOM      2  C   LIG    1       24.669 -13.727   4.301  0.00  0.00    +0.032 C 
ATOM      3  C   LIG    1       25.248 -15.131   3.947  0.00  0.00    +0.180 C 
ATOM      4  C   LIG    1       26.435 -15.034   2.979  0.00  0.00    +0.048 C 
ATOM      5  C   LIG    1       27.561 -14.119   3.482  0.00  0.00    -0.011 C 
ATOM      6  C   LIG    1       28.396 -14.788   4.581  0.00  0.00    +0.007 C 
ATOM      7  C   LIG    1       27.016 -12.761   3.944  0.00  0.00    +0.004 C 
ATOM      8  C   LIG    1       25.822 -12.884   4.895  0.00  0.00    +0.007 C 
BRANCH   2  10
ATOM      9  C   LIG    1       23.629 -11.482   3.512  0.00  0.00    +0.007 C 
ATOM     10  C   LIG    1       23.894 -12.952   3.174  0.00  0.00    -0.011 C 
ATOM     11  C   LIG    1       24.666 -12.978   1.841  0.00  0.00    +0.007 C 
ENDBRANCH   2  10
ENDBRANCH   1   3
BRANCH   1  12
ATOM     12  C   LIG    1       23.297 -16.483   4.266  0.00  0.00    +0.341 C 
ATOM     13  O   LIG    1       22.557 -15.836   4.982  0.00  0.00    -0.245 OA
BRANCH  12  14
ATOM     14  C   LIG    1       23.343 -17.977   4.246  0.00  0.00    +0.080 A 
ATOM     15  C   LIG    1       24.513 -18.647   3.831  0.00  0.00    +0.039 A 
ATOM     16  C   LIG    1       24.503 -20.053   3.802  0.00  0.00    +0.023 A 
ATOM     17  C   LIG    1       23.392 -20.778   4.242  0.00  0.00    +0.002 A 
ATOM     18  C   LIG    1       22.260 -20.111   4.691  0.00  0.00    +0.001 A 
ATOM     19  C   LIG    1       22.238 -18.717   4.697  0.00  0.00    +0.017 A 
BRANCH  15  20
ATOM     20  N   LIG    1       25.596 -17.983   3.220  0.00  0.00    -0.357 N 
ATOM     21  H   LIG    1       25.298 -17.396   2.434  0.00  0.00    +0.142 HD
ATOM     22  H   LIG    1       26.188 -17.474   3.867  0.00  0.00    +0.142 HD
ENDBRANCH  15  20
ENDBRANCH  12  14
ENDBRANCH   1  12
TORSDOF 5
ENDMDL
MODEL 9
REMARK VINA RESULT:      -2.8      2.186      6.625
REMARK  Name = *****
REMARK                            x       y       z     vdW  Elec       q    Type
REMARK                         _______ _______ _______ _____ _____    ______ ____
ROOT
ATOM      1  O   LIG    1       26.617 -17.900   3.993  0.00  0.00    -0.458 OA
ENDROOT
BRANCH   1   3
ATOM      2  C   LIG    1       26.882 -19.327   5.994  0.00  0.00    +0.032 C 
ATOM      3  C   LIG    1       25.957 -18.884   4.819  0.00  0.00    +0.180 C 
ATOM      4  C   LIG    1       25.503 -20.077   3.967  0.00  0.00    +0.048 C 
ATOM      5  C   LIG    1       24.816 -21.183   4.780  0.00  0.00    -0.011 C 
ATOM      6  C   LIG    1       23.383 -20.802   5.171  0.00  0.00    +0.007 C 
ATOM      7  C   LIG    1       25.646 -21.572   6.011  0.00  0.00    +0.004 C 
ATOM      8  C   LIG    1       26.101 -20.364   6.835  0.00  0.00    +0.007 C 
BRANCH   2  10
ATOM      9  C   LIG    1       29.347 -18.696   5.476  0.00  0.00    +0.007 C 
ATOM     10  C   LIG    1       28.328 -19.828   5.636  0.00  0.00    -0.011 C 
ATOM     11  C   LIG    1       28.876 -20.782   6.714  0.00  0.00    +0.007 C 
ENDBRANCH   2  10
ENDBRANCH   1   3
BRANCH   1  12
ATOM     12  C   LIG    1       25.823 -17.004   3.342  0.00  0.00    +0.341 C 
ATOM     13  O   LIG    1       24.932 -17.267   2.557  0.00  0.00    -0.245 OA
BRANCH  12  14
ATOM     14  C   LIG    1       26.232 -15.612   3.705  0.00  0.00    +0.080 A 
ATOM     15  C   LIG    1       25.265 -14.674   4.124  0.00  0.00    +0.039 A 
ATOM     16  C   LIG    1       25.690 -13.369   4.431  0.00  0.00    +0.023 A 
ATOM     17  C   LIG    1       27.043 -13.021   4.395  0.00  0.00    +0.002 A 
ATOM     18  C   LIG    1       27.993 -13.964   4.025  0.00  0.00    +0.001 A 
ATOM     19  C   LIG    1       27.589 -15.254   3.685  0.00  0.00    +0.017 A 
BRANCH  15  20
ATOM     20  N   LIG    1       23.879 -14.908   4.019  0.00  0.00    -0.357 N 
ATOM     21  H   LIG    1       23.556 -14.896   3.046  0.00  0.00    +0.142 HD
ATOM     22  H   LIG    1       23.560 -15.736   4.512  0.00  0.00    +0.142 HD
ENDBRANCH  15  20
ENDBRANCH  12  14
ENDBRANCH   1  12
TORSDOF 5
ENDMDL
