MODEL 1
REMARK VINA RESULT:      -4.9      0.000      0.000
REMARK  Name = *****
REMARK                            x       y       z     vdW  Elec       q    Type
REMARK                         _______ _______ _______ _____ _____    ______ ____
ROOT
ATOM      1  C   LIG    1       24.116 -19.120   4.919  0.00  0.00    +0.064 C 
ATOM      2  C   LIG    1       22.726 -19.425   5.548  0.00  0.00    +0.007 C 
ATOM      3  C   LIG    1       23.075 -20.519   6.553  0.00  0.00    +0.009 C 
ATOM      4  C   LIG    1       23.669 -21.440   5.484  0.00  0.00    -0.002 C 
ATOM      5  C   LIG    1       22.494 -21.570   4.495  0.00  0.00    +0.004 C 
ATOM      6  C   LIG    1       21.825 -20.196   4.567  0.00  0.00    +0.005 C 
ATOM      7  C   LIG    1       24.775 -20.550   4.843  0.00  0.00    +0.039 C 
ENDROOT
BRANCH   7   8
ATOM      8  C   LIG    1       26.150 -20.606   5.508  0.00  0.00    -0.043 A 
ATOM      9  C   LIG    1       26.494 -21.548   6.489  0.00  0.00    +0.004 A 
ATOM     10  C   LIG    1       27.770 -21.568   7.062  0.00  0.00    +0.000 A 
ATOM     11  C   LIG    1       28.730 -20.644   6.660  0.00  0.00    +0.000 A 
ATOM     12  C   LIG    1       28.418 -19.711   5.679  0.00  0.00    +0.000 A 
ATOM     13  C   LIG    1       27.143 -19.695   5.103  0.00  0.00    +0.004 A 
ENDBRANCH   7   8
BRANCH   1  14
ATOM     14  N   LIG    1       24.043 -18.441   3.617  0.00  0.00    -0.313 NA
ATOM     15  H   LIG    1       23.492 -19.003   2.970  0.00  0.00    +0.122 HD
BRANCH  14  17
ATOM     16  C   LIG    1       25.833 -16.785   3.375  0.00  0.00    +0.020 C 
ATOM     17  C   LIG    1       25.367 -18.196   3.045  0.00  0.00    +0.077 C 
ENDBRANCH  14  17
ENDBRANCH   1  14
TORSDOF 3
ENDMDL
MODEL 2
REMARK VINA RESULT:      -3.9      3.093      5.868
REMARK  Name = *****
REMARK                            x       y       z     vdW  Elec       q    Type
REMARK                         _______ _______ _______ _____ _____    ______ ____
ROOT
ATOM      1  C   LIG    1       25.985 -14.863   4.095  0.00  0.00    +0.064 C 
ATOM      2  C   LIG    1       25.347 -13.603   4.745  0.00  0.00    +0.007 C 
ATOM      3  C   LIG    1       23.943 -14.101   5.072  0.00  0.00    +0.009 C 
ATOM      4  C   LIG    1       23.636 -14.472   3.619  0.00  0.00    -0.002 C 
ATOM      5  C   LIG    1       23.892 -13.136   2.894  0.00  0.00    +0.004 C 
ATOM      6  C   LIG    1       25.044 -12.522   3.691  0.00  0.00    +0.005 C 
ATOM      7  C   LIG    1       24.785 -15.465   3.270  0.00  0.00    +0.039 C 
ENDROOT
BRANCH   7   8
ATOM      8  C   LIG    1       24.521 -16.936   3.593  0.00  0.00    -0.043 A 
ATOM      9  C   LIG    1       23.280 -17.417   4.038  0.00  0.00    +0.004 A 
ATOM     10  C   LIG    1       23.083 -18.775   4.310  0.00  0.00    +0.000 A 
ATOM     11  C   LIG    1       24.125 -19.680   4.139  0.00  0.00    +0.000 A 
ATOM     12  C   LIG    1       25.359 -19.230   3.685  0.00  0.00    +0.000 A 
ATOM     13  C   LIG    1       25.554 -17.872   3.408  0.00  0.00    +0.004 A 
ENDBRANCH   7   8
BRANCH   1  14
ATOM     14  N   LIG    1       27.170 -14.573   3.273  0.00  0.00    -0.313 NA
ATOM     15  H   LIG    1       27.406 -15.391   2.714  0.00  0.00    +0.122 HD
BRANCH  14  17
ATOM     16  C   LIG    1       28.781 -12.780   3.716  0.00  0.00    +0.020 C 
ATOM     17  C   LIG    1       28.325 -14.185   4.082  0.00  0.00    +0.077 C 
ENDBRANCH  14  17
ENDBRANCH   1  14
TORSDOF 3
ENDMDL
MODEL 3
REMARK VINA RESULT:      -3.8      3.099      5.897
REMARK  Name = *****
REMARK                            x       y       z     vdW  Elec       q    Type
REMARK                         _______ _______ _______ _____ _____    ______ ____
ROOT
ATOM      1  C   LIG    1       26.029 -14.858   4.089  0.00  0.00    +0.064 C 
ATOM      2  C   LIG    1       25.363 -13.624   4.763  0.00  0.00    +0.007 C 
ATOM      3  C   LIG    1       23.970 -14.159   5.080  0.00  0.00    +0.009 C 
ATOM      4  C   LIG    1       23.672 -14.508   3.619  0.00  0.00    -0.002 C 
ATOM      5  C   LIG    1       23.898 -13.153   2.921  0.00  0.00    +0.004 C 
ATOM      6  C   LIG    1       25.037 -12.530   3.731  0.00  0.00    +0.005 C 
ATOM      7  C   LIG    1       24.842 -15.469   3.252  0.00  0.00    +0.039 C 
ENDROOT
BRANCH   7   8
ATOM      8  C   LIG    1       24.609 -16.951   3.545  0.00  0.00    -0.043 A 
ATOM      9  C   LIG    1       25.605 -17.930   3.410  0.00  0.00    +0.004 A 
ATOM     10  C   LIG    1       25.347 -19.274   3.701  0.00  0.00    +0.000 A 
ATOM     11  C   LIG    1       24.084 -19.664   4.136  0.00  0.00    +0.000 A 
ATOM     12  C   LIG    1       23.086 -18.711   4.292  0.00  0.00    +0.000 A 
ATOM     13  C   LIG    1       23.346 -17.366   4.006  0.00  0.00    +0.004 A 
ENDBRANCH   7   8
BRANCH   1  14
ATOM     14  N   LIG    1       27.207 -14.526   3.274  0.00  0.00    -0.313 NA
ATOM     15  H   LIG    1       27.462 -15.328   2.701  0.00  0.00    +0.122 HD
BRANCH  14  17
ATOM     16  C   LIG    1       28.792 -12.714   3.735  0.00  0.00    +0.020 C 
ATOM     17  C   LIG    1       28.352 -14.126   4.092  0.00  0.00    +0.077 C 
ENDBRANCH  14  17
ENDBRANCH   1  14
TORSDOF 3
ENDMDL
MODEL 4
REMARK VINA RESULT:      -3.8      2.063      4.438
REMARK  Name = *****
REMARK                            x       y       z     vdW  Elec       q    Type
REMARK                         _______ _______ _______ _____ _____    ______ ____
ROOT
ATOM      1  C   LIG    1       23.029 -19.030   4.915  0.00  0.00    +0.064 C 
ATOM      2  C   LIG    1       23.693 -20.341   5.424  0.00  0.00    +0.007 C 
ATOM      3  C   LIG    1       25.171 -20.060   5.162  0.00  0.00    +0.009 C 
ATOM      4  C   LIG    1       24.955 -19.822   3.666  0.00  0.00    -0.002 C 
ATOM      5  C   LIG    1       24.274 -21.136   3.234  0.00  0.00    +0.004 C 
ATOM      6  C   LIG    1       23.435 -21.511   4.457  0.00  0.00    +0.005 C 
ATOM      7  C   LIG    1       23.900 -18.676   3.650  0.00  0.00    +0.039 C 
ENDROOT
BRANCH   7   8
ATOM      8  C   LIG    1       24.457 -17.253   3.691  0.00  0.00    -0.043 A 
ATOM      9  C   LIG    1       23.712 -16.145   4.123  0.00  0.00    +0.004 A 
ATOM     10  C   LIG    1       24.268 -14.862   4.153  0.00  0.00    +0.000 A 
ATOM     11  C   LIG    1       25.586 -14.663   3.752  0.00  0.00    +0.000 A 
ATOM     12  C   LIG    1       26.348 -15.746   3.334  0.00  0.00    +0.000 A 
ATOM     13  C   LIG    1       25.793 -17.030   3.309  0.00  0.00    +0.004 A 
ENDBRANCH   7   8
BRANCH   1  14
ATOM     14  N   LIG    1       21.596 -19.167   4.615  0.00  0.00    -0.313 NA
ATOM     15  H   LIG    1       21.356 -20.155   4.543  0.00  0.00    +0.122 HD
BRANCH  14  17
ATOM     16  C   LIG    1       19.719 -18.584   3.152  0.00  0.00    +0.020 C 
ATOM     17  C   LIG    1       21.220 -18.482   3.379  0.00  0.00    +0.077 C 
ENDBRANCH  14  17
ENDBRANCH   1  14
TORSDOF 3
ENDMDL
MODEL 5
REMARK VINA RESULT:      -3.4      1.745      4.656
REMARK  Name = *****
REMARK                            x       y       z     vdW  Elec       q    Type
REMARK                         _______ _______ _______ _____ _____    ______ ____
ROOT
ATOM      1  C   LIG    1       24.604 -19.224   3.356  0.00  0.00    +0.064 C 
ATOM      2  C   LIG    1       23.248 -19.964   3.179  0.00  0.00    +0.007 C 
ATOM      3  C   LIG    1       22.251 -18.814   3.293  0.00  0.00    +0.009 C 
ATOM      4  C   LIG    1       22.743 -18.405   4.684  0.00  0.00    -0.002 C 
ATOM      5  C   LIG    1       22.583 -19.720   5.472  0.00  0.00    +0.004 C 
ATOM      6  C   LIG    1       22.895 -20.793   4.427  0.00  0.00    +0.005 C 
ATOM      7  C   LIG    1       24.259 -18.139   4.446  0.00  0.00    +0.039 C 
ENDROOT
BRANCH   7   8
ATOM      8  C   LIG    1       24.630 -16.721   4.012  0.00  0.00    -0.043 A 
ATOM      9  C   LIG    1       25.826 -16.405   3.349  0.00  0.00    +0.004 A 
ATOM     10  C   LIG    1       26.117 -15.093   2.961  0.00  0.00    +0.000 A 
ATOM     11  C   LIG    1       25.213 -14.069   3.228  0.00  0.00    +0.000 A 
ATOM     12  C   LIG    1       24.016 -14.359   3.870  0.00  0.00    +0.000 A 
ATOM     13  C   LIG    1       23.723 -15.673   4.253  0.00  0.00    +0.004 A 
ENDBRANCH   7   8
BRANCH   1  14
ATOM     14  N   LIG    1       25.716 -20.105   3.743  0.00  0.00    -0.313 NA
ATOM     15  H   LIG    1       25.378 -21.062   3.828  0.00  0.00    +0.122 HD
BRANCH  14  17
ATOM     16  C   LIG    1       26.134 -20.758   6.068  0.00  0.00    +0.020 C 
ATOM     17  C   LIG    1       26.339 -19.693   5.001  0.00  0.00    +0.077 C 
ENDBRANCH  14  17
ENDBRANCH   1  14
TORSDOF 3
ENDMDL
MODEL 6
REMARK VINA RESULT:      -3.4      3.729      6.817
REMARK  Name = *****
REMARK                            x       y       z     vdW  Elec       q    Type
REMARK                         _______ _______ _______ _____ _____    ______ ____
ROOT
ATOM      1  C   LIG    1       24.668 -13.726   2.952  0.00  0.00    +0.064 C 
ATOM      2  C   LIG    1       25.985 -13.435   2.179  0.00  0.00    +0.007 C 
ATOM      3  C   LIG    1       26.657 -14.805   2.188  0.00  0.00    +0.009 C 
ATOM      4  C   LIG    1       26.651 -14.900   3.716  0.00  0.00    -0.002 C 
ATOM      5  C   LIG    1       27.397 -13.611   4.113  0.00  0.00    +0.004 C 
ATOM      6  C   LIG    1       26.967 -12.614   3.035  0.00  0.00    +0.005 C 
ATOM      7  C   LIG    1       25.141 -14.739   4.062  0.00  0.00    +0.039 C 
ENDROOT
BRANCH   7   8
ATOM      8  C   LIG    1       24.317 -16.027   4.082  0.00  0.00    -0.043 A 
ATOM      9  C   LIG    1       22.962 -16.071   4.445  0.00  0.00    +0.004 A 
ATOM     10  C   LIG    1       22.246 -17.272   4.437  0.00  0.00    +0.000 A 
ATOM     11  C   LIG    1       22.874 -18.456   4.063  0.00  0.00    +0.000 A 
ATOM     12  C   LIG    1       24.211 -18.436   3.685  0.00  0.00    +0.000 A 
ATOM     13  C   LIG    1       24.925 -17.233   3.688  0.00  0.00    +0.004 A 
ENDBRANCH   7   8
BRANCH   1  14
ATOM     14  N   LIG    1       24.021 -12.523   3.499  0.00  0.00    -0.313 NA
ATOM     15  H   LIG    1       24.405 -11.694   3.047  0.00  0.00    +0.122 HD
BRANCH  14  17
ATOM     16  C   LIG    1       23.169 -11.447   5.529  0.00  0.00    +0.020 C 
ATOM     17  C   LIG    1       24.192 -12.412   4.948  0.00  0.00    +0.077 C 
ENDBRANCH  14  17
ENDBRANCH   1  14
TORSDOF 3
ENDMDL
MODEL 7
REMARK VINA RESULT:      -3.2      2.920      6.393
REMARK  Name = *****
REMARK                            x       y       z     vdW  Elec       q    Type
REMARK                         _______ _______ _______ _____ _____    ______ ____
ROOT
ATOM      1  C   LIG    1       26.749 -15.509   4.492  0.00  0.00    +0.064 C 
ATOM      2  C   LIG    1       26.934 -13.975   4.664  0.00  0.00    +0.007 C 
ATOM      3  C   LIG    1       25.499 -13.474   4.523  0.00  0.00    +0.009 C 
ATOM      4  C   LIG    1       25.324 -14.090   3.132  0.00  0.00    -0.002 C 
ATOM      5  C   LIG    1       26.500 -13.460   2.360  0.00  0.00    +0.004 C 
ATOM      6  C   LIG    1       27.594 -13.347   3.423  0.00  0.00    +0.005 C 
ATOM      7  C   LIG    1       25.632 -15.596   3.384  0.00  0.00    +0.039 C 
ENDROOT
BRANCH   7   8
ATOM      8  C   LIG    1       24.444 -16.462   3.804  0.00  0.00    -0.043 A 
ATOM      9  C   LIG    1       23.257 -15.937   4.336  0.00  0.00    +0.004 A 
ATOM     10  C   LIG    1       22.192 -16.769   4.696  0.00  0.00    +0.000 A 
ATOM     11  C   LIG    1       22.294 -18.147   4.527  0.00  0.00    +0.000 A 
ATOM     12  C   LIG    1       23.454 -18.689   3.988  0.00  0.00    +0.000 A 
ATOM     13  C   LIG    1       24.517 -17.855   3.623  0.00  0.00    +0.004 A 
ENDBRANCH   7   8
BRANCH   1  14
ATOM     14  N   LIG    1       27.985 -16.219   4.130  0.00  0.00    -0.313 NA
ATOM     15  H   LIG    1       28.165 -16.106   3.133  0.00  0.00    +0.122 HD
BRANCH  14  17
ATOM     16  C   LIG    1       29.158 -18.066   5.236  0.00  0.00    +0.020 C 
ATOM     17  C   LIG    1       27.922 -17.644   4.455  0.00  0.00    +0.077 C 
ENDBRANCH  14  17
ENDBRANCH   1  14
TORSDOF 3
ENDMDL
MODEL 8
REMARK VINA RESULT:      -2.9      1.718      4.576
REMARK  Name = *****
REMARK                            x       y       z     vdW  Elec       q    Type
REMARK                         _______ _______ _______ _____ _____    ______ ____
ROOT
ATOM      1  C   LIG    1       25.403 -19.528   4.035  0.00  0.00    +0.064 C 
ATOM      2  C   LIG    1       24.475 -20.537   3.300  0.00  0.00    +0.007 C 
ATOM      3  C   LIG    1       23.507 -19.601   2.583  0.00  0.00    +0.009 C 
ATOM      4  C   LIG    1       23.056 -18.924   3.880  0.00  0.00    -0.002 C 
ATOM      5  C   LIG    1       22.577 -20.130   4.712  0.00  0.00    +0.004 C 
ATOM      6  C   LIG    1       23.530 -21.248   4.286  0.00  0.00    +0.005 C 
ATOM      7  C   LIG    1       24.396 -18.399   4.475  0.00  0.00    +0.039 C 
ENDROOT
BRANCH   7   8
ATOM      8  C   LIG    1       24.830 -17.005   4.021  0.00  0.00    -0.043 A 
ATOM      9  C   LIG    1       26.064 -16.743   3.405  0.00  0.00    +0.004 A 
ATOM     10  C   LIG    1       26.412 -15.452   2.996  0.00  0.00    +0.000 A 
ATOM     11  C   LIG    1       25.530 -14.395   3.194  0.00  0.00    +0.000 A 
ATOM     12  C   LIG    1       24.296 -14.631   3.788  0.00  0.00    +0.000 A 
ATOM     13  C   LIG    1       23.946 -15.924   4.192  0.00  0.00    +0.004 A 
ENDBRANCH   7   8
BRANCH   1  14
ATOM     14  N   LIG    1       26.148 -20.115   5.158  0.00  0.00    -0.313 NA
ATOM     15  H   LIG    1       25.678 -19.892   6.034  0.00  0.00    +0.122 HD
BRANCH  14  17
ATOM     16  C   LIG    1       28.198 -20.102   6.501  0.00  0.00    +0.020 C 
ATOM     17  C   LIG    1       27.532 -19.642   5.213  0.00  0.00    +0.077 C 
ENDBRANCH  14  17
ENDBRANCH   1  14
TORSDOF 3
ENDMDL
MODEL 9
REMARK VINA RESULT:      -2.4      1.948      4.912
REMARK  Name = *****
REMARK                            x       y       z     vdW  Elec       q    Type
REMARK                         _______ _______ _______ _____ _____    ______ ____
ROOT
ATOM      1  C   LIG    1       23.824 -19.251   4.971  0.00  0.00    +0.064 C 
ATOM      2  C   LIG    1       24.874 -20.398   4.961  0.00  0.00    +0.007 C 
ATOM      3  C   LIG    1       26.080 -19.706   4.332  0.00  0.00    +0.009 C 
ATOM      4  C   LIG    1       25.317 -19.333   3.058  0.00  0.00    -0.002 C 
ATOM      5  C   LIG    1       24.811 -20.709   2.582  0.00  0.00    +0.004 C 
ATOM      6  C   LIG    1       24.541 -21.453   3.891  0.00  0.00    +0.005 C 
ATOM      7  C   LIG    1       24.113 -18.514   3.610  0.00  0.00    +0.039 C 
ENDROOT
BRANCH   7   8
ATOM      8  C   LIG    1       24.347 -17.013   3.784  0.00  0.00    -0.043 A 
ATOM      9  C   LIG    1       25.530 -16.366   3.394  0.00  0.00    +0.004 A 
ATOM     10  C   LIG    1       25.694 -14.988   3.564  0.00  0.00    +0.000 A 
ATOM     11  C   LIG    1       24.674 -14.227   4.128  0.00  0.00    +0.000 A 
ATOM     12  C   LIG    1       23.488 -14.842   4.509  0.00  0.00    +0.000 A 
ATOM     13  C   LIG    1       23.322 -16.221   4.333  0.00  0.00    +0.004 A 
ENDBRANCH   7   8
BRANCH   1  14
ATOM     14  N   LIG    1       22.435 -19.719   5.098  0.00  0.00    -0.313 NA
ATOM     15  H   LIG    1       21.897 -19.047   5.643  0.00  0.00    +0.122 HD
BRANCH  14  17
ATOM     16  C   LIG    1       23.080 -21.036   7.062  0.00  0.00    +0.020 C 
ATOM     17  C   LIG    1       22.349 -21.037   5.727  0.00  0.00    +0.077 C 
ENDBRANCH  14  17
ENDBRANCH   1  14
TORSDOF 3
ENDMDL
