MODEL 1
REMARK VINA RESULT:      -7.4      0.000      0.000
REMARK  Name = *****
REMARK                            x       y       z     vdW  Elec       q    Type
REMARK                         _______ _______ _______ _____ _____    ______ ____
ROOT
ATOM      1  C   LIG    1       25.733 -29.249  11.482  0.00  0.00    +0.250 C 
ATOM      2  C   LIG    1       24.563 -28.533  12.207  0.00  0.00    +0.092 C 
ATOM      3  C   LIG    1       24.022 -29.638  13.202  0.00  0.00    +0.054 C 
ATOM      4  N   LIG    1       23.122 -29.154  14.277  0.00  0.00    -0.292 NA
ATOM      5  C   LIG    1       22.084 -28.270  13.696  0.00  0.00    +0.090 C 
ATOM      6  C   LIG    1       22.489 -26.795  13.547  0.00  0.00    +0.051 C 
ATOM      7  C   LIG    1       23.959 -26.449  13.587  0.00  0.00    -0.039 A 
ATOM      8  C   LIG    1       24.309 -25.280  14.295  0.00  0.00    +0.053 A 
ATOM      9  C   LIG    1       25.635 -24.938  14.399  0.00  0.00    +0.167 A 
ATOM     10  O   LIG    1       26.133 -23.875  15.083  0.00  0.00    -0.453 OA
ATOM     11  C   LIG    1       27.548 -24.085  14.903  0.00  0.00    +0.466 C 
ATOM     12  O   LIG    1       27.858 -25.203  14.045  0.00  0.00    -0.453 OA
ATOM     13  C   LIG    1       26.611 -25.692  13.810  0.00  0.00    +0.167 A 
ATOM     14  C   LIG    1       26.313 -26.826  13.084  0.00  0.00    +0.054 A 
ATOM     15  C   LIG    1       22.495 -30.356  14.853  0.00  0.00    +0.085 C 
ATOM     16  C   LIG    1       22.336 -31.346  13.714  0.00  0.00    +0.017 C 
ATOM     17  C   LIG    1       23.201 -30.796  12.581  0.00  0.00    +0.029 C 
ATOM     18  C   LIG    1       25.345 -30.236  13.618  0.00  0.00    +0.041 C 
ATOM     19  C   LIG    1       24.964 -27.235  12.953  0.00  0.00    -0.031 A 
ATOM     20  C   LIG    1       26.252 -30.102  12.630  0.00  0.00    +0.136 C 
ENDROOT
BRANCH  20  21
ATOM     21  O   LIG    1       27.576 -30.451  12.631  0.00  0.00    -0.496 OA
ATOM     22  C   LIG    1       28.465 -29.444  12.151  0.00  0.00    +0.277 C 
ENDBRANCH  20  21
BRANCH   1  23
ATOM     23  O   LIG    1       25.175 -30.060  10.433  0.00  0.00    -0.451 OA
BRANCH  23  24
ATOM     24  C   LIG    1       25.956 -30.291   9.314  0.00  0.00    +0.340 C 
ATOM     25  O   LIG    1       26.982 -30.925   9.333  0.00  0.00    -0.248 OA
BRANCH  24  26
ATOM     26  C   LIG    1       25.215 -29.643   8.079  0.00  0.00    +0.172 C 
BRANCH  26  27
ATOM     27  O   LIG    1       23.788 -29.700   8.349  0.00  0.00    -0.377 OA
ATOM     28  H   LIG    1       23.413 -28.931   7.874  0.00  0.00    +0.211 HD
ENDBRANCH  26  27
BRANCH  26  29
ATOM     29  C   LIG    1       25.428 -30.516   6.835  0.00  0.00    +0.166 C 
BRANCH  29  30
ATOM     30  C   LIG    1       24.136 -30.898   6.158  0.00  0.00    +0.310 C 
ATOM     31  O   LIG    1       23.266 -30.122   5.797  0.00  0.00    -0.251 OA
BRANCH  30  33
ATOM     32  C   LIG    1       24.153 -32.950   7.208  0.00  0.00    +0.280 C 
ATOM     33  O   LIG    1       24.055 -32.244   5.968  0.00  0.00    -0.468 OA
ENDBRANCH  30  33
ENDBRANCH  29  30
ENDBRANCH  26  29
BRANCH  26  34
ATOM     34  C   LIG    1       25.543 -28.130   7.888  0.00  0.00    +0.047 C 
BRANCH  34  35
ATOM     35  C   LIG    1       25.582 -27.592   6.428  0.00  0.00    +0.006 C 
BRANCH  35  36
ATOM     36  C   LIG    1       24.335 -26.715   6.119  0.00  0.00    +0.034 C 
BRANCH  36  37
ATOM     37  C   LIG    1       24.593 -25.191   5.987  0.00  0.00    +0.060 C 
ATOM     38  C   LIG    1       25.909 -24.757   6.661  0.00  0.00    +0.041 C 
ATOM     39  C   LIG    1       23.465 -24.376   6.617  0.00  0.00    +0.041 C 
BRANCH  37  40
ATOM     40  O   LIG    1       24.673 -24.844   4.604  0.00  0.00    -0.389 OA
ATOM     41  H   LIG    1       24.655 -25.666   4.084  0.00  0.00    +0.210 HD
ENDBRANCH  37  40
ENDBRANCH  36  37
ENDBRANCH  35  36
ENDBRANCH  34  35
ENDBRANCH  26  34
ENDBRANCH  24  26
ENDBRANCH  23  24
ENDBRANCH   1  23
TORSDOF 13
ENDMDL
MODEL 2
REMARK VINA RESULT:      -7.0      1.867      2.863
REMARK  Name = *****
REMARK                            x       y       z     vdW  Elec       q    Type
REMARK                         _______ _______ _______ _____ _____    ______ ____
ROOT
ATOM      1  C   LIG    1       24.205 -30.715   9.952  0.00  0.00    +0.250 C 
ATOM      2  C   LIG    1       23.816 -29.668  11.029  0.00  0.00    +0.092 C 
ATOM      3  C   LIG    1       22.654 -30.386  11.829  0.00  0.00    +0.054 C 
ATOM      4  N   LIG    1       22.301 -29.780  13.137  0.00  0.00    -0.292 NA
ATOM      5  C   LIG    1       22.144 -28.315  12.980  0.00  0.00    +0.090 C 
ATOM      6  C   LIG    1       23.442 -27.501  13.099  0.00  0.00    +0.051 C 
ATOM      7  C   LIG    1       24.758 -28.226  12.938  0.00  0.00    -0.039 A 
ATOM      8  C   LIG    1       25.795 -27.845  13.816  0.00  0.00    +0.053 A 
ATOM      9  C   LIG    1       27.001 -28.498  13.743  0.00  0.00    +0.167 A 
ATOM     10  O   LIG    1       28.076 -28.280  14.545  0.00  0.00    -0.453 OA
ATOM     11  C   LIG    1       28.979 -29.293  14.057  0.00  0.00    +0.466 C 
ATOM     12  O   LIG    1       28.465 -30.023  12.924  0.00  0.00    -0.453 OA
ATOM     13  C   LIG    1       27.219 -29.485  12.823  0.00  0.00    +0.167 A 
ATOM     14  C   LIG    1       26.244 -29.871  11.926  0.00  0.00    +0.054 A 
ATOM     15  C   LIG    1       21.017 -30.385  13.530  0.00  0.00    +0.085 C 
ATOM     16  C   LIG    1       20.249 -30.637  12.247  0.00  0.00    +0.017 C 
ATOM     17  C   LIG    1       21.275 -30.479  11.127  0.00  0.00    +0.029 C 
ATOM     18  C   LIG    1       23.216 -31.787  11.840  0.00  0.00    +0.041 C 
ATOM     19  C   LIG    1       24.977 -29.241  11.963  0.00  0.00    -0.031 A 
ATOM     20  C   LIG    1       23.991 -31.990  10.756  0.00  0.00    +0.136 C 
ENDROOT
BRANCH  20  21
ATOM     21  O   LIG    1       24.730 -33.095  10.426  0.00  0.00    -0.496 OA
ATOM     22  C   LIG    1       25.966 -32.819   9.769  0.00  0.00    +0.277 C 
ENDBRANCH  20  21
BRANCH   1  23
ATOM     23  O   LIG    1       23.262 -30.609   8.870  0.00  0.00    -0.451 OA
BRANCH  23  24
ATOM     24  C   LIG    1       23.562 -31.265   7.690  0.00  0.00    +0.340 C 
ATOM     25  O   LIG    1       23.225 -32.399   7.450  0.00  0.00    -0.248 OA
BRANCH  24  26
ATOM     26  C   LIG    1       24.328 -30.243   6.762  0.00  0.00    +0.172 C 
BRANCH  26  27
ATOM     27  O   LIG    1       23.640 -30.216   5.482  0.00  0.00    -0.377 OA
ATOM     28  H   LIG    1       24.324 -29.950   4.836  0.00  0.00    +0.211 HD
ENDBRANCH  26  27
BRANCH  26  29
ATOM     29  C   LIG    1       25.733 -30.777   6.457  0.00  0.00    +0.166 C 
BRANCH  29  30
ATOM     30  C   LIG    1       25.731 -31.888   5.438  0.00  0.00    +0.310 C 
ATOM     31  O   LIG    1       25.463 -31.764   4.254  0.00  0.00    -0.251 OA
BRANCH  30  33
ATOM     32  C   LIG    1       27.477 -33.083   6.353  0.00  0.00    +0.280 C 
ATOM     33  O   LIG    1       26.092 -33.076   5.997  0.00  0.00    -0.468 OA
ENDBRANCH  30  33
ENDBRANCH  29  30
ENDBRANCH  26  29
BRANCH  26  34
ATOM     34  C   LIG    1       24.280 -28.776   7.292  0.00  0.00    +0.047 C 
BRANCH  34  35
ATOM     35  C   LIG    1       25.147 -27.723   6.542  0.00  0.00    +0.006 C 
BRANCH  35  36
ATOM     36  C   LIG    1       24.259 -26.747   5.719  0.00  0.00    +0.034 C 
BRANCH  36  37
ATOM     37  C   LIG    1       24.593 -25.239   5.865  0.00  0.00    +0.060 C 
ATOM     38  C   LIG    1       25.892 -24.998   6.655  0.00  0.00    +0.041 C 
ATOM     39  C   LIG    1       23.473 -24.485   6.581  0.00  0.00    +0.041 C 
BRANCH  37  40
ATOM     40  O   LIG    1       24.756 -24.664   4.568  0.00  0.00    -0.389 OA
ATOM     41  H   LIG    1       25.249 -23.832   4.664  0.00  0.00    +0.210 HD
ENDBRANCH  37  40
ENDBRANCH  36  37
ENDBRANCH  35  36
ENDBRANCH  34  35
ENDBRANCH  26  34
ENDBRANCH  24  26
ENDBRANCH  23  24
ENDBRANCH   1  23
TORSDOF 13
ENDMDL
MODEL 3
REMARK VINA RESULT:      -6.8      1.255      1.664
REMARK  Name = *****
REMARK                            x       y       z     vdW  Elec       q    Type
REMARK                         _______ _______ _______ _____ _____    ______ ____
ROOT
ATOM      1  C   LIG    1       25.610 -29.705  10.610  0.00  0.00    +0.250 C 
ATOM      2  C   LIG    1       24.451 -29.462  11.612  0.00  0.00    +0.092 C 
ATOM      3  C   LIG    1       24.505 -30.739  12.545  0.00  0.00    +0.054 C 
ATOM      4  N   LIG    1       23.740 -30.644  13.814  0.00  0.00    -0.292 NA
ATOM      5  C   LIG    1       22.380 -30.126  13.537  0.00  0.00    +0.090 C 
ATOM      6  C   LIG    1       22.258 -28.595  13.499  0.00  0.00    +0.051 C 
ATOM      7  C   LIG    1       23.519 -27.781  13.319  0.00  0.00    -0.039 A 
ATOM      8  C   LIG    1       23.620 -26.604  14.091  0.00  0.00    +0.053 A 
ATOM      9  C   LIG    1       24.761 -25.846  14.000  0.00  0.00    +0.167 A 
ATOM     10  O   LIG    1       25.029 -24.718  14.709  0.00  0.00    -0.453 OA
ATOM     11  C   LIG    1       26.368 -24.433  14.257  0.00  0.00    +0.466 C 
ATOM     12  O   LIG    1       26.831 -25.333  13.229  0.00  0.00    -0.453 OA
ATOM     13  C   LIG    1       25.782 -26.196  13.161  0.00  0.00    +0.167 A 
ATOM     14  C   LIG    1       25.714 -27.322  12.366  0.00  0.00    +0.054 A 
ATOM     15  C   LIG    1       23.659 -32.017  14.341  0.00  0.00    +0.085 C 
ATOM     16  C   LIG    1       23.589 -32.937  13.137  0.00  0.00    +0.017 C 
ATOM     17  C   LIG    1       23.982 -32.068  11.944  0.00  0.00    +0.029 C 
ATOM     18  C   LIG    1       26.004 -30.884  12.646  0.00  0.00    +0.041 C 
ATOM     19  C   LIG    1       24.566 -28.149  12.427  0.00  0.00    -0.031 A 
ATOM     20  C   LIG    1       26.598 -30.399  11.537  0.00  0.00    +0.136 C 
ENDROOT
BRANCH  20  21
ATOM     21  O   LIG    1       27.934 -30.286  11.261  0.00  0.00    -0.496 OA
ATOM     22  C   LIG    1       28.661 -29.433  12.144  0.00  0.00    +0.277 C 
ENDBRANCH  20  21
BRANCH   1  23
ATOM     23  O   LIG    1       25.133 -30.595   9.586  0.00  0.00    -0.451 OA
BRANCH  23  24
ATOM     24  C   LIG    1       24.083 -30.161   8.795  0.00  0.00    +0.340 C 
ATOM     25  O   LIG    1       22.942 -30.085   9.181  0.00  0.00    -0.248 OA
BRANCH  24  26
ATOM     26  C   LIG    1       24.685 -29.750   7.395  0.00  0.00    +0.172 C 
BRANCH  26  27
ATOM     27  O   LIG    1       23.646 -29.951   6.399  0.00  0.00    -0.377 OA
ATOM     28  H   LIG    1       24.127 -30.159   5.574  0.00  0.00    +0.211 HD
ENDBRANCH  26  27
BRANCH  26  29
ATOM     29  C   LIG    1       25.808 -30.722   7.011  0.00  0.00    +0.166 C 
BRANCH  29  30
ATOM     30  C   LIG    1       25.368 -31.765   6.015  0.00  0.00    +0.310 C 
ATOM     31  O   LIG    1       24.649 -32.721   6.259  0.00  0.00    -0.251 OA
BRANCH  30  33
ATOM     32  C   LIG    1       25.591 -32.581   3.871  0.00  0.00    +0.280 C 
ATOM     33  O   LIG    1       25.860 -31.504   4.772  0.00  0.00    -0.468 OA
ENDBRANCH  30  33
ENDBRANCH  29  30
ENDBRANCH  26  29
BRANCH  26  34
ATOM     34  C   LIG    1       25.061 -28.239   7.306  0.00  0.00    +0.047 C 
BRANCH  34  35
ATOM     35  C   LIG    1       24.706 -27.496   5.985  0.00  0.00    +0.006 C 
BRANCH  35  36
ATOM     36  C   LIG    1       25.678 -26.310   5.728  0.00  0.00    +0.034 C 
BRANCH  36  37
ATOM     37  C   LIG    1       25.080 -24.890   5.910  0.00  0.00    +0.060 C 
ATOM     38  C   LIG    1       25.913 -24.020   6.870  0.00  0.00    +0.041 C 
ATOM     39  C   LIG    1       23.657 -24.949   6.463  0.00  0.00    +0.041 C 
BRANCH  37  40
ATOM     40  O   LIG    1       25.039 -24.230   4.645  0.00  0.00    -0.389 OA
ATOM     41  H   LIG    1       25.920 -24.296   4.239  0.00  0.00    +0.210 HD
ENDBRANCH  37  40
ENDBRANCH  36  37
ENDBRANCH  35  36
ENDBRANCH  34  35
ENDBRANCH  26  34
ENDBRANCH  24  26
ENDBRANCH  23  24
ENDBRANCH   1  23
TORSDOF 13
ENDMDL
MODEL 4
REMARK VINA RESULT:      -6.6      2.243      3.433
REMARK  Name = *****
REMARK                            x       y       z     vdW  Elec       q    Type
REMARK                         _______ _______ _______ _____ _____    ______ ____
ROOT
ATOM      1  C   LIG    1       24.988 -29.329  11.102  0.00  0.00    +0.250 C 
ATOM      2  C   LIG    1       23.713 -30.191  11.293  0.00  0.00    +0.092 C 
ATOM      3  C   LIG    1       24.253 -31.474  12.047  0.00  0.00    +0.054 C 
ATOM      4  N   LIG    1       23.221 -32.337  12.675  0.00  0.00    -0.292 NA
ATOM      5  C   LIG    1       22.129 -32.590  11.705  0.00  0.00    +0.090 C 
ATOM      6  C   LIG    1       21.027 -31.521  11.666  0.00  0.00    +0.051 C 
ATOM      7  C   LIG    1       21.328 -30.161  12.253  0.00  0.00    -0.039 A 
ATOM      8  C   LIG    1       20.291 -29.555  12.995  0.00  0.00    +0.053 A 
ATOM      9  C   LIG    1       20.521 -28.338  13.587  0.00  0.00    +0.167 A 
ATOM     10  O   LIG    1       19.646 -27.652  14.368  0.00  0.00    -0.453 OA
ATOM     11  C   LIG    1       20.462 -26.527  14.752  0.00  0.00    +0.466 C 
ATOM     12  O   LIG    1       21.760 -26.517  14.124  0.00  0.00    -0.453 OA
ATOM     13  C   LIG    1       21.720 -27.696  13.448  0.00  0.00    +0.167 A 
ATOM     14  C   LIG    1       22.752 -28.237  12.707  0.00  0.00    +0.054 A 
ATOM     15  C   LIG    1       23.899 -33.599  13.012  0.00  0.00    +0.085 C 
ATOM     16  C   LIG    1       24.947 -33.825  11.940  0.00  0.00    +0.017 C 
ATOM     17  C   LIG    1       25.063 -32.491  11.204  0.00  0.00    +0.029 C 
ATOM     18  C   LIG    1       25.245 -30.799  12.962  0.00  0.00    +0.041 C 
ATOM     19  C   LIG    1       22.575 -29.496  12.084  0.00  0.00    -0.031 A 
ATOM     20  C   LIG    1       25.716 -29.670  12.394  0.00  0.00    +0.136 C 
ENDROOT
BRANCH  20  21
ATOM     21  O   LIG    1       26.578 -28.744  12.917  0.00  0.00    -0.496 OA
ATOM     22  C   LIG    1       27.848 -28.672  12.272  0.00  0.00    +0.277 C 
ENDBRANCH  20  21
BRANCH   1  23
ATOM     23  O   LIG    1       25.693 -29.828   9.952  0.00  0.00    -0.451 OA
BRANCH  23  24
ATOM     24  C   LIG    1       25.886 -28.963   8.890  0.00  0.00    +0.340 C 
ATOM     25  O   LIG    1       26.598 -27.989   8.941  0.00  0.00    -0.248 OA
BRANCH  24  26
ATOM     26  C   LIG    1       25.080 -29.536   7.659  0.00  0.00    +0.172 C 
BRANCH  26  27
ATOM     27  O   LIG    1       23.669 -29.489   8.004  0.00  0.00    -0.377 OA
ATOM     28  H   LIG    1       23.256 -28.956   7.295  0.00  0.00    +0.211 HD
ENDBRANCH  26  27
BRANCH  26  29
ATOM     29  C   LIG    1       25.405 -31.024   7.478  0.00  0.00    +0.166 C 
BRANCH  29  30
ATOM     30  C   LIG    1       24.602 -31.671   6.378  0.00  0.00    +0.310 C 
ATOM     31  O   LIG    1       23.428 -31.449   6.131  0.00  0.00    -0.251 OA
BRANCH  30  33
ATOM     32  C   LIG    1       25.867 -31.928   4.468  0.00  0.00    +0.280 C 
ATOM     33  O   LIG    1       25.361 -32.542   5.656  0.00  0.00    -0.468 OA
ENDBRANCH  30  33
ENDBRANCH  29  30
ENDBRANCH  26  29
BRANCH  26  34
ATOM     34  C   LIG    1       25.224 -28.668   6.371  0.00  0.00    +0.047 C 
BRANCH  34  35
ATOM     35  C   LIG    1       24.550 -27.265   6.382  0.00  0.00    +0.006 C 
BRANCH  35  36
ATOM     36  C   LIG    1       25.573 -26.147   6.034  0.00  0.00    +0.034 C 
BRANCH  36  37
ATOM     37  C   LIG    1       25.016 -24.699   6.017  0.00  0.00    +0.060 C 
ATOM     38  C   LIG    1       25.848 -23.740   6.890  0.00  0.00    +0.041 C 
ATOM     39  C   LIG    1       23.576 -24.647   6.524  0.00  0.00    +0.041 C 
BRANCH  37  40
ATOM     40  O   LIG    1       25.034 -24.202   4.679  0.00  0.00    -0.389 OA
ATOM     41  H   LIG    1       24.708 -23.285   4.691  0.00  0.00    +0.210 HD
ENDBRANCH  37  40
ENDBRANCH  36  37
ENDBRANCH  35  36
ENDBRANCH  34  35
ENDBRANCH  26  34
ENDBRANCH  24  26
ENDBRANCH  23  24
ENDBRANCH   1  23
TORSDOF 13
ENDMDL
MODEL 5
REMARK VINA RESULT:      -6.6      2.677      3.391
REMARK  Name = *****
REMARK                            x       y       z     vdW  Elec       q    Type
REMARK                         _______ _______ _______ _____ _____    ______ ____
ROOT
ATOM      1  C   LIG    1       26.365 -29.217  12.184  0.00  0.00    +0.250 C 
ATOM      2  C   LIG    1       25.172 -28.335  12.639  0.00  0.00    +0.092 C 
ATOM      3  C   LIG    1       24.399 -29.267  13.658  0.00  0.00    +0.054 C 
ATOM      4  N   LIG    1       23.402 -28.591  14.523  0.00  0.00    -0.292 NA
ATOM      5  C   LIG    1       22.540 -27.714  13.696  0.00  0.00    +0.090 C 
ATOM      6  C   LIG    1       23.091 -26.301  13.447  0.00  0.00    +0.051 C 
ATOM      7  C   LIG    1       24.566 -26.059  13.669  0.00  0.00    -0.039 A 
ATOM      8  C   LIG    1       24.915 -24.839  14.288  0.00  0.00    +0.053 A 
ATOM      9  C   LIG    1       26.237 -24.583  14.553  0.00  0.00    +0.167 A 
ATOM     10  O   LIG    1       26.726 -23.482  15.181  0.00  0.00    -0.453 OA
ATOM     11  C   LIG    1       28.128 -23.813  15.242  0.00  0.00    +0.466 C 
ATOM     12  O   LIG    1       28.456 -25.048  14.572  0.00  0.00    -0.453 OA
ATOM     13  C   LIG    1       27.216 -25.472  14.206  0.00  0.00    +0.167 A 
ATOM     14  C   LIG    1       26.925 -26.663  13.574  0.00  0.00    +0.054 A 
ATOM     15  C   LIG    1       22.595 -29.664  15.128  0.00  0.00    +0.085 C 
ATOM     16  C   LIG    1       22.512 -30.773  14.097  0.00  0.00    +0.017 C 
ATOM     17  C   LIG    1       23.574 -30.432  13.053  0.00  0.00    +0.029 C 
ATOM     18  C   LIG    1       25.590 -29.902  14.334  0.00  0.00    +0.041 C 
ATOM     19  C   LIG    1       25.576 -26.987  13.287  0.00  0.00    -0.031 A 
ATOM     20  C   LIG    1       26.637 -29.957  13.487  0.00  0.00    +0.136 C 
ENDROOT
BRANCH  20  21
ATOM     21  O   LIG    1       27.911 -30.397  13.727  0.00  0.00    -0.496 OA
ATOM     22  C   LIG    1       28.944 -29.585  13.172  0.00  0.00    +0.277 C 
ENDBRANCH  20  21
BRANCH   1  23
ATOM     23  O   LIG    1       25.891 -30.110  11.160  0.00  0.00    -0.451 OA
BRANCH  23  24
ATOM     24  C   LIG    1       26.593 -30.152   9.968  0.00  0.00    +0.340 C 
ATOM     25  O   LIG    1       27.629 -29.562   9.781  0.00  0.00    -0.248 OA
BRANCH  24  26
ATOM     26  C   LIG    1       25.823 -31.133   9.001  0.00  0.00    +0.172 C 
BRANCH  26  27
ATOM     27  O   LIG    1       25.285 -30.337   7.911  0.00  0.00    -0.377 OA
ATOM     28  H   LIG    1       24.519 -30.849   7.582  0.00  0.00    +0.211 HD
ENDBRANCH  26  27
BRANCH  26  29
ATOM     29  C   LIG    1       24.600 -31.714   9.722  0.00  0.00    +0.166 C 
BRANCH  29  30
ATOM     30  C   LIG    1       23.332 -31.597   8.915  0.00  0.00    +0.310 C 
ATOM     31  O   LIG    1       23.072 -32.232   7.906  0.00  0.00    -0.251 OA
BRANCH  30  33
ATOM     32  C   LIG    1       21.500 -31.338  10.290  0.00  0.00    +0.280 C 
ATOM     33  O   LIG    1       22.474 -30.693   9.465  0.00  0.00    -0.468 OA
ENDBRANCH  30  33
ENDBRANCH  29  30
ENDBRANCH  26  29
BRANCH  26  34
ATOM     34  C   LIG    1       26.754 -32.189   8.327  0.00  0.00    +0.047 C 
BRANCH  34  35
ATOM     35  C   LIG    1       26.838 -32.170   6.773  0.00  0.00    +0.006 C 
BRANCH  35  36
ATOM     36  C   LIG    1       25.903 -33.241   6.145  0.00  0.00    +0.034 C 
BRANCH  36  37
ATOM     37  C   LIG    1       24.998 -32.755   4.982  0.00  0.00    +0.060 C 
ATOM     38  C   LIG    1       23.922 -33.790   4.602  0.00  0.00    +0.041 C 
ATOM     39  C   LIG    1       25.814 -32.459   3.725  0.00  0.00    +0.041 C 
BRANCH  37  40
ATOM     40  O   LIG    1       24.332 -31.554   5.373  0.00  0.00    -0.389 OA
ATOM     41  H   LIG    1       24.558 -31.370   6.301  0.00  0.00    +0.210 HD
ENDBRANCH  37  40
ENDBRANCH  36  37
ENDBRANCH  35  36
ENDBRANCH  34  35
ENDBRANCH  26  34
ENDBRANCH  24  26
ENDBRANCH  23  24
ENDBRANCH   1  23
TORSDOF 13
ENDMDL
MODEL 6
REMARK VINA RESULT:      -6.5      1.744      3.530
REMARK  Name = *****
REMARK                            x       y       z     vdW  Elec       q    Type
REMARK                         _______ _______ _______ _____ _____    ______ ____
ROOT
ATOM      1  C   LIG    1       25.053 -30.174  11.753  0.00  0.00    +0.250 C 
ATOM      2  C   LIG    1       23.831 -29.337  12.216  0.00  0.00    +0.092 C 
ATOM      3  C   LIG    1       23.131 -30.276  13.280  0.00  0.00    +0.054 C 
ATOM      4  N   LIG    1       22.125 -29.623  14.154  0.00  0.00    -0.292 NA
ATOM      5  C   LIG    1       21.201 -28.812  13.328  0.00  0.00    +0.090 C 
ATOM      6  C   LIG    1       21.676 -27.382  13.025  0.00  0.00    +0.051 C 
ATOM      7  C   LIG    1       23.143 -27.064  13.200  0.00  0.00    -0.039 A 
ATOM      8  C   LIG    1       23.448 -25.812  13.775  0.00  0.00    +0.053 A 
ATOM      9  C   LIG    1       24.763 -25.485  13.997  0.00  0.00    +0.167 A 
ATOM     10  O   LIG    1       25.214 -24.344  14.581  0.00  0.00    -0.453 OA
ATOM     11  C   LIG    1       26.631 -24.607  14.612  0.00  0.00    +0.466 C 
ATOM     12  O   LIG    1       27.001 -25.843  13.967  0.00  0.00    -0.453 OA
ATOM     13  C   LIG    1       25.774 -26.336  13.648  0.00  0.00    +0.167 A 
ATOM     14  C   LIG    1       25.525 -27.557  13.057  0.00  0.00    +0.054 A 
ATOM     15  C   LIG    1       21.388 -30.716  14.810  0.00  0.00    +0.085 C 
ATOM     16  C   LIG    1       21.331 -31.856  13.812  0.00  0.00    +0.017 C 
ATOM     17  C   LIG    1       22.348 -31.495  12.731  0.00  0.00    +0.029 C 
ATOM     18  C   LIG    1       24.369 -30.833  13.941  0.00  0.00    +0.041 C 
ATOM     19  C   LIG    1       24.186 -27.953  12.816  0.00  0.00    -0.031 A 
ATOM     20  C   LIG    1       25.395 -30.862  13.067  0.00  0.00    +0.136 C 
ENDROOT
BRANCH  20  21
ATOM     21  O   LIG    1       26.694 -31.234  13.284  0.00  0.00    -0.496 OA
ATOM     22  C   LIG    1       27.350 -30.542  14.346  0.00  0.00    +0.277 C 
ENDBRANCH  20  21
BRANCH   1  23
ATOM     23  O   LIG    1       24.597 -31.117  10.767  0.00  0.00    -0.451 OA
BRANCH  23  24
ATOM     24  C   LIG    1       25.554 -31.782  10.021  0.00  0.00    +0.340 C 
ATOM     25  O   LIG    1       26.255 -32.659  10.462  0.00  0.00    -0.248 OA
BRANCH  24  26
ATOM     26  C   LIG    1       25.477 -31.221   8.547  0.00  0.00    +0.172 C 
BRANCH  26  27
ATOM     27  O   LIG    1       26.633 -30.364   8.346  0.00  0.00    -0.377 OA
ATOM     28  H   LIG    1       27.165 -30.819   7.663  0.00  0.00    +0.211 HD
ENDBRANCH  26  27
BRANCH  26  29
ATOM     29  C   LIG    1       24.258 -30.299   8.409  0.00  0.00    +0.166 C 
BRANCH  29  30
ATOM     30  C   LIG    1       24.216 -29.576   7.086  0.00  0.00    +0.310 C 
ATOM     31  O   LIG    1       23.555 -29.909   6.116  0.00  0.00    -0.251 OA
BRANCH  30  33
ATOM     32  C   LIG    1       25.341 -28.050   5.776  0.00  0.00    +0.280 C 
ATOM     33  O   LIG    1       25.004 -28.466   7.102  0.00  0.00    -0.468 OA
ENDBRANCH  30  33
ENDBRANCH  29  30
ENDBRANCH  26  29
BRANCH  26  34
ATOM     34  C   LIG    1       25.588 -32.334   7.459  0.00  0.00    +0.047 C 
BRANCH  34  35
ATOM     35  C   LIG    1       26.696 -32.162   6.379  0.00  0.00    +0.006 C 
BRANCH  35  36
ATOM     36  C   LIG    1       26.549 -33.218   5.248  0.00  0.00    +0.034 C 
BRANCH  36  37
ATOM     37  C   LIG    1       25.691 -32.791   4.028  0.00  0.00    +0.060 C 
ATOM     38  C   LIG    1       24.444 -33.678   3.847  0.00  0.00    +0.041 C 
ATOM     39  C   LIG    1       26.493 -32.857   2.729  0.00  0.00    +0.041 C 
BRANCH  37  40
ATOM     40  O   LIG    1       25.249 -31.446   4.210  0.00  0.00    -0.389 OA
ATOM     41  H   LIG    1       24.953 -31.104   3.349  0.00  0.00    +0.210 HD
ENDBRANCH  37  40
ENDBRANCH  36  37
ENDBRANCH  35  36
ENDBRANCH  34  35
ENDBRANCH  26  34
ENDBRANCH  24  26
ENDBRANCH  23  24
ENDBRANCH   1  23
TORSDOF 13
ENDMDL
MODEL 7
REMARK VINA RESULT:      -6.2      4.743      9.290
REMARK  Name = *****
REMARK                            x       y       z     vdW  Elec       q    Type
REMARK                         _______ _______ _______ _____ _____    ______ ____
ROOT
ATOM      1  C   LIG    1       25.152 -22.512   6.027  0.00  0.00    +0.250 C 
ATOM      2  C   LIG    1       25.272 -21.296   5.070  0.00  0.00    +0.092 C 
ATOM      3  C   LIG    1       23.930 -20.498   5.328  0.00  0.00    +0.054 C 
ATOM      4  N   LIG    1       23.897 -19.106   4.814  0.00  0.00    -0.292 NA
ATOM      5  C   LIG    1       24.383 -19.083   3.414  0.00  0.00    +0.090 C 
ATOM      6  C   LIG    1       25.907 -18.970   3.251  0.00  0.00    +0.051 C 
ATOM      7  C   LIG    1       26.780 -19.313   4.437  0.00  0.00    -0.039 A 
ATOM      8  C   LIG    1       27.897 -18.478   4.654  0.00  0.00    +0.053 A 
ATOM      9  C   LIG    1       28.703 -18.715   5.739  0.00  0.00    +0.167 A 
ATOM     10  O   LIG    1       29.783 -17.977   6.108  0.00  0.00    -0.453 OA
ATOM     11  C   LIG    1       30.152 -18.644   7.332  0.00  0.00    +0.466 C 
ATOM     12  O   LIG    1       29.353 -19.811   7.615  0.00  0.00    -0.453 OA
ATOM     13  C   LIG    1       28.458 -19.755   6.592  0.00  0.00    +0.167 A 
ATOM     14  C   LIG    1       27.395 -20.614   6.402  0.00  0.00    +0.054 A 
ATOM     15  C   LIG    1       22.486 -18.689   4.865  0.00  0.00    +0.085 C 
ATOM     16  C   LIG    1       21.660 -19.931   4.591  0.00  0.00    +0.017 C 
ATOM     17  C   LIG    1       22.633 -21.100   4.733  0.00  0.00    +0.029 C 
ATOM     18  C   LIG    1       23.836 -20.689   6.823  0.00  0.00    +0.041 C 
ATOM     19  C   LIG    1       26.522 -20.410   5.306  0.00  0.00    -0.031 A 
ATOM     20  C   LIG    1       24.427 -21.845   7.187  0.00  0.00    +0.136 C 
ENDROOT
BRANCH  20  21
ATOM     21  O   LIG    1       24.612 -22.353   8.445  0.00  0.00    -0.496 OA
ATOM     22  C   LIG    1       25.892 -22.091   9.018  0.00  0.00    +0.277 C 
ENDBRANCH  20  21
BRANCH   1  23
ATOM     23  O   LIG    1       24.326 -23.500   5.387  0.00  0.00    -0.451 OA
BRANCH  23  24
ATOM     24  C   LIG    1       23.921 -24.587   6.141  0.00  0.00    +0.340 C 
ATOM     25  O   LIG    1       22.960 -24.574   6.871  0.00  0.00    -0.248 OA
BRANCH  24  26
ATOM     26  C   LIG    1       24.891 -25.786   5.802  0.00  0.00    +0.172 C 
BRANCH  26  27
ATOM     27  O   LIG    1       25.543 -25.475   4.541  0.00  0.00    -0.377 OA
ATOM     28  H   LIG    1       26.266 -26.129   4.466  0.00  0.00    +0.211 HD
ENDBRANCH  26  27
BRANCH  26  29
ATOM     29  C   LIG    1       24.069 -27.053   5.532  0.00  0.00    +0.166 C 
BRANCH  29  30
ATOM     30  C   LIG    1       24.923 -28.241   5.167  0.00  0.00    +0.310 C 
ATOM     31  O   LIG    1       25.981 -28.195   4.562  0.00  0.00    -0.251 OA
BRANCH  30  33
ATOM     32  C   LIG    1       25.326 -30.471   5.585  0.00  0.00    +0.280 C 
ATOM     33  O   LIG    1       24.376 -29.403   5.620  0.00  0.00    -0.468 OA
ENDBRANCH  30  33
ENDBRANCH  29  30
ENDBRANCH  26  29
BRANCH  26  34
ATOM     34  C   LIG    1       26.045 -25.956   6.837  0.00  0.00    +0.047 C 
BRANCH  34  35
ATOM     35  C   LIG    1       25.744 -26.817   8.099  0.00  0.00    +0.006 C 
BRANCH  35  36
ATOM     36  C   LIG    1       26.673 -28.062   8.165  0.00  0.00    +0.034 C 
BRANCH  36  37
ATOM     37  C   LIG    1       26.465 -29.002   9.383  0.00  0.00    +0.060 C 
ATOM     38  C   LIG    1       25.051 -29.612   9.418  0.00  0.00    +0.041 C 
ATOM     39  C   LIG    1       26.678 -28.262  10.702  0.00  0.00    +0.041 C 
BRANCH  37  40
ATOM     40  O   LIG    1       27.405 -30.074   9.317  0.00  0.00    -0.389 OA
ATOM     41  H   LIG    1       28.298 -29.701   9.405  0.00  0.00    +0.210 HD
ENDBRANCH  37  40
ENDBRANCH  36  37
ENDBRANCH  35  36
ENDBRANCH  34  35
ENDBRANCH  26  34
ENDBRANCH  24  26
ENDBRANCH  23  24
ENDBRANCH   1  23
TORSDOF 13
ENDMDL
MODEL 8
REMARK VINA RESULT:      -6.1      1.631      3.876
REMARK  Name = *****
REMARK                            x       y       z     vdW  Elec       q    Type
REMARK                         _______ _______ _______ _____ _____    ______ ____
ROOT
ATOM      1  C   LIG    1       26.142 -29.157  11.936  0.00  0.00    +0.250 C 
ATOM      2  C   LIG    1       24.973 -28.290  12.476  0.00  0.00    +0.092 C 
ATOM      3  C   LIG    1       24.227 -29.268  13.472  0.00  0.00    +0.054 C 
ATOM      4  N   LIG    1       23.266 -28.630  14.405  0.00  0.00    -0.292 NA
ATOM      5  C   LIG    1       22.385 -27.705  13.654  0.00  0.00    +0.090 C 
ATOM      6  C   LIG    1       22.940 -26.286  13.458  0.00  0.00    +0.051 C 
ATOM      7  C   LIG    1       24.424 -26.066  13.642  0.00  0.00    -0.039 A 
ATOM      8  C   LIG    1       24.804 -24.882  14.309  0.00  0.00    +0.053 A 
ATOM      9  C   LIG    1       26.137 -24.649  14.541  0.00  0.00    +0.167 A 
ATOM     10  O   LIG    1       26.657 -23.585  15.208  0.00  0.00    -0.453 OA
ATOM     11  C   LIG    1       28.057 -23.930  15.203  0.00  0.00    +0.466 C 
ATOM     12  O   LIG    1       28.351 -25.131  14.460  0.00  0.00    -0.453 OA
ATOM     13  C   LIG    1       27.096 -25.526  14.116  0.00  0.00    +0.167 A 
ATOM     14  C   LIG    1       26.772 -26.681  13.435  0.00  0.00    +0.054 A 
ATOM     15  C   LIG    1       22.471 -29.727  14.982  0.00  0.00    +0.085 C 
ATOM     16  C   LIG    1       22.343 -30.781  13.898  0.00  0.00    +0.017 C 
ATOM     17  C   LIG    1       23.372 -30.394  12.837  0.00  0.00    +0.029 C 
ATOM     18  C   LIG    1       25.435 -29.945  14.074  0.00  0.00    +0.041 C 
ATOM     19  C   LIG    1       25.412 -26.980  13.178  0.00  0.00    -0.031 A 
ATOM     20  C   LIG    1       26.452 -29.964  13.189  0.00  0.00    +0.136 C 
ENDROOT
BRANCH  20  21
ATOM     21  O   LIG    1       27.729 -30.425  13.362  0.00  0.00    -0.496 OA
ATOM     22  C   LIG    1       28.756 -29.529  12.939  0.00  0.00    +0.277 C 
ENDBRANCH  20  21
BRANCH   1  23
ATOM     23  O   LIG    1       25.626 -29.992  10.885  0.00  0.00    -0.451 OA
BRANCH  23  24
ATOM     24  C   LIG    1       26.363 -30.086   9.718  0.00  0.00    +0.340 C 
ATOM     25  O   LIG    1       27.538 -29.824   9.646  0.00  0.00    -0.248 OA
BRANCH  24  26
ATOM     26  C   LIG    1       25.402 -30.644   8.596  0.00  0.00    +0.172 C 
BRANCH  26  27
ATOM     27  O   LIG    1       26.201 -30.844   7.398  0.00  0.00    -0.377 OA
ATOM     28  H   LIG    1       25.585 -30.682   6.657  0.00  0.00    +0.211 HD
ENDBRANCH  26  27
BRANCH  26  29
ATOM     29  C   LIG    1       24.370 -29.572   8.221  0.00  0.00    +0.166 C 
BRANCH  29  30
ATOM     30  C   LIG    1       24.289 -29.329   6.735  0.00  0.00    +0.310 C 
ATOM     31  O   LIG    1       24.148 -30.189   5.882  0.00  0.00    -0.251 OA
BRANCH  30  33
ATOM     32  C   LIG    1       25.655 -27.473   6.791  0.00  0.00    +0.280 C 
ATOM     33  O   LIG    1       24.372 -28.001   6.445  0.00  0.00    -0.468 OA
ENDBRANCH  30  33
ENDBRANCH  29  30
ENDBRANCH  26  29
BRANCH  26  34
ATOM     34  C   LIG    1       24.804 -32.044   8.937  0.00  0.00    +0.047 C 
BRANCH  34  35
ATOM     35  C   LIG    1       23.298 -32.269   8.616  0.00  0.00    +0.006 C 
BRANCH  35  36
ATOM     36  C   LIG    1       22.395 -31.784   9.786  0.00  0.00    +0.034 C 
BRANCH  36  37
ATOM     37  C   LIG    1       21.314 -32.786  10.270  0.00  0.00    +0.060 C 
ATOM     38  C   LIG    1       20.056 -32.078  10.808  0.00  0.00    +0.041 C 
ATOM     39  C   LIG    1       21.844 -33.688  11.383  0.00  0.00    +0.041 C 
BRANCH  37  40
ATOM     40  O   LIG    1       20.917 -33.615   9.177  0.00  0.00    -0.389 OA
ATOM     41  H   LIG    1       20.028 -33.962   9.367  0.00  0.00    +0.210 HD
ENDBRANCH  37  40
ENDBRANCH  36  37
ENDBRANCH  35  36
ENDBRANCH  34  35
ENDBRANCH  26  34
ENDBRANCH  24  26
ENDBRANCH  23  24
ENDBRANCH   1  23
TORSDOF 13
ENDMDL
MODEL 9
REMARK VINA RESULT:      -5.9      2.398      3.873
REMARK  Name = *****
REMARK                            x       y       z     vdW  Elec       q    Type
REMARK                         _______ _______ _______ _____ _____    ______ ____
ROOT
ATOM      1  C   LIG    1       24.374 -29.834  10.950  0.00  0.00    +0.250 C 
ATOM      2  C   LIG    1       23.326 -30.786  11.586  0.00  0.00    +0.092 C 
ATOM      3  C   LIG    1       24.174 -31.609  12.637  0.00  0.00    +0.054 C 
ATOM      4  N   LIG    1       23.393 -32.366  13.647  0.00  0.00    -0.292 NA
ATOM      5  C   LIG    1       22.317 -33.129  12.973  0.00  0.00    +0.090 C 
ATOM      6  C   LIG    1       21.013 -32.352  12.734  0.00  0.00    +0.051 C 
ATOM      7  C   LIG    1       21.059 -30.842  12.796  0.00  0.00    -0.039 A 
ATOM      8  C   LIG    1       19.970 -30.208  13.432  0.00  0.00    +0.053 A 
ATOM      9  C   LIG    1       19.977 -28.841  13.555  0.00  0.00    +0.167 A 
ATOM     10  O   LIG    1       19.031 -28.091  14.179  0.00  0.00    -0.453 OA
ATOM     11  C   LIG    1       19.614 -26.778  14.059  0.00  0.00    +0.466 C 
ATOM     12  O   LIG    1       20.836 -26.759  13.292  0.00  0.00    -0.453 OA
ATOM     13  C   LIG    1       21.000 -28.088  13.052  0.00  0.00    +0.167 A 
ATOM     14  C   LIG    1       22.070 -28.662  12.397  0.00  0.00    +0.054 A 
ATOM     15  C   LIG    1       24.344 -33.292  14.285  0.00  0.00    +0.085 C 
ATOM     16  C   LIG    1       25.342 -33.689  13.214  0.00  0.00    +0.017 C 
ATOM     17  C   LIG    1       25.123 -32.697  12.073  0.00  0.00    +0.029 C 
ATOM     18  C   LIG    1       25.061 -30.494  13.137  0.00  0.00    +0.041 C 
ATOM     19  C   LIG    1       22.123 -30.070  12.252  0.00  0.00    -0.031 A 
ATOM     20  C   LIG    1       25.243 -29.571  12.172  0.00  0.00    +0.136 C 
ENDROOT
BRANCH  20  21
ATOM     21  O   LIG    1       25.922 -28.384  12.240  0.00  0.00    -0.496 OA
ATOM     22  C   LIG    1       25.765 -27.669  13.464  0.00  0.00    +0.277 C 
ENDBRANCH  20  21
BRANCH   1  23
ATOM     23  O   LIG    1       25.089 -30.571   9.943  0.00  0.00    -0.451 OA
BRANCH  23  24
ATOM     24  C   LIG    1       25.630 -29.859   8.888  0.00  0.00    +0.340 C 
ATOM     25  O   LIG    1       26.518 -29.051   9.010  0.00  0.00    -0.248 OA
BRANCH  24  26
ATOM     26  C   LIG    1       24.922 -30.359   7.568  0.00  0.00    +0.172 C 
BRANCH  26  27
ATOM     27  O   LIG    1       23.498 -30.113   7.718  0.00  0.00    -0.377 OA
ATOM     28  H   LIG    1       23.275 -29.490   6.998  0.00  0.00    +0.211 HD
ENDBRANCH  26  27
BRANCH  26  29
ATOM     29  C   LIG    1       25.062 -31.883   7.454  0.00  0.00    +0.166 C 
BRANCH  29  30
ATOM     30  C   LIG    1       24.469 -32.433   6.181  0.00  0.00    +0.310 C 
ATOM     31  O   LIG    1       23.289 -32.399   5.875  0.00  0.00    -0.251 OA
BRANCH  30  33
ATOM     32  C   LIG    1       24.895 -33.339   4.105  0.00  0.00    +0.280 C 
ATOM     33  O   LIG    1       25.430 -32.971   5.379  0.00  0.00    -0.468 OA
ENDBRANCH  30  33
ENDBRANCH  29  30
ENDBRANCH  26  29
BRANCH  26  34
ATOM     34  C   LIG    1       25.351 -29.561   6.299  0.00  0.00    +0.047 C 
BRANCH  34  35
ATOM     35  C   LIG    1       24.473 -28.340   5.898  0.00  0.00    +0.006 C 
BRANCH  35  36
ATOM     36  C   LIG    1       24.894 -27.064   6.681  0.00  0.00    +0.034 C 
BRANCH  36  37
ATOM     37  C   LIG    1       25.769 -26.046   5.902  0.00  0.00    +0.060 C 
ATOM     38  C   LIG    1       25.932 -24.713   6.655  0.00  0.00    +0.041 C 
ATOM     39  C   LIG    1       25.173 -25.730   4.531  0.00  0.00    +0.041 C 
BRANCH  37  40
ATOM     40  O   LIG    1       27.070 -26.600   5.704  0.00  0.00    -0.389 OA
ATOM     41  H   LIG    1       27.399 -26.918   6.562  0.00  0.00    +0.210 HD
ENDBRANCH  37  40
ENDBRANCH  36  37
ENDBRANCH  35  36
ENDBRANCH  34  35
ENDBRANCH  26  34
ENDBRANCH  24  26
ENDBRANCH  23  24
ENDBRANCH   1  23
TORSDOF 13
ENDMDL
