MODEL 1
REMARK VINA RESULT:      -4.5      0.000      0.000
REMARK  Name = *****
REMARK                            x       y       z     vdW  Elec       q    Type
REMARK                         _______ _______ _______ _____ _____    ______ ____
ROOT
ATOM      1  CA  HYP A  1       25.922 -14.088   3.465  0.00  0.00    +0.166 C 
ATOM      2  N   HYP A  1       25.822 -13.617   2.072  0.00  0.00    -0.302 NA
ATOM      3  H   HYP A  1       26.723 -13.296   1.719  0.00  0.00    +0.123 HD
ATOM      4  CD  HYP A  1       24.783 -12.591   2.036  0.00  0.00    +0.113 C 
ATOM      5  CG  HYP A  1       23.855 -12.920   3.211  0.00  0.00    +0.130 C 
ATOM      6  CB  HYP A  1       24.453 -14.166   3.854  0.00  0.00    +0.062 C 
ENDROOT
BRANCH   1   8
ATOM      7  O   HYP A  1       26.283 -16.479   3.132  0.00  0.00    -0.249 OA
ATOM      8  C   HYP A  1       26.705 -15.405   3.542  0.00  0.00    +0.322 C 
BRANCH   8   9
ATOM      9  OXT HYP A  1       27.974 -15.283   3.999  0.00  0.00    -0.479 OA
ATOM     10  HXT HYP A  1       28.132 -14.539   4.607  0.00  0.00    +0.295 HD
ENDBRANCH   8   9
ENDBRANCH   1   8
BRANCH   5  11
ATOM     11  OD  HYP A  1       23.838 -11.866   4.175  0.00  0.00    -0.391 OA
ATOM     12  HD  HYP A  1       23.571 -12.232   5.035  0.00  0.00    +0.210 HD
ENDBRANCH   5  11
TORSDOF 3
ENDMDL
MODEL 2
REMARK VINA RESULT:      -4.4      1.130      1.639
REMARK  Name = *****
REMARK                            x       y       z     vdW  Elec       q    Type
REMARK                         _______ _______ _______ _____ _____    ______ ____
ROOT
ATOM      1  CA  HYP A  1       26.533 -13.200   3.386  0.00  0.00    +0.166 C 
ATOM      2  N   HYP A  1       26.020 -13.525   2.043  0.00  0.00    -0.302 NA
ATOM      3  H   HYP A  1       26.582 -13.090   1.312  0.00  0.00    +0.123 HD
ATOM      4  CD  HYP A  1       24.615 -13.130   2.010  0.00  0.00    +0.113 C 
ATOM      5  CG  HYP A  1       24.146 -13.192   3.469  0.00  0.00    +0.130 C 
ATOM      6  CB  HYP A  1       25.369 -13.644   4.259  0.00  0.00    +0.062 C 
ENDROOT
BRANCH   1   8
ATOM      7  O   HYP A  1       28.947 -13.326   3.721  0.00  0.00    -0.249 OA
ATOM      8  C   HYP A  1       27.871 -13.904   3.647  0.00  0.00    +0.322 C 
BRANCH   8   9
ATOM      9  OXT HYP A  1       27.770 -15.229   3.913  0.00  0.00    -0.479 OA
ATOM     10  HXT HYP A  1       27.556 -15.796   3.151  0.00  0.00    +0.295 HD
ENDBRANCH   8   9
ENDBRANCH   1   8
BRANCH   5  11
ATOM     11  OD  HYP A  1       23.739 -11.907   3.942  0.00  0.00    -0.391 OA
ATOM     12  HD  HYP A  1       24.371 -11.607   4.616  0.00  0.00    +0.210 HD
ENDBRANCH   5  11
TORSDOF 3
ENDMDL
MODEL 3
REMARK VINA RESULT:      -4.3      2.109      3.791
REMARK  Name = *****
REMARK                            x       y       z     vdW  Elec       q    Type
REMARK                         _______ _______ _______ _____ _____    ______ ____
ROOT
ATOM      1  CA  HYP A  1       25.736 -13.154   3.383  0.00  0.00    +0.166 C 
ATOM      2  N   HYP A  1       25.868 -13.403   4.830  0.00  0.00    -0.302 NA
ATOM      3  H   HYP A  1       25.403 -12.681   5.378  0.00  0.00    +0.123 HD
ATOM      4  CD  HYP A  1       27.294 -13.525   5.119  0.00  0.00    +0.113 C 
ATOM      5  CG  HYP A  1       27.931 -13.996   3.805  0.00  0.00    +0.130 C 
ATOM      6  CB  HYP A  1       26.770 -14.119   2.824  0.00  0.00    +0.062 C 
ENDROOT
BRANCH   1   8
ATOM      7  O   HYP A  1       23.468 -14.044   3.535  0.00  0.00    -0.249 OA
ATOM      8  C   HYP A  1       24.291 -13.380   2.918  0.00  0.00    +0.322 C 
BRANCH   8   9
ATOM      9  OXT HYP A  1       23.937 -12.682   1.812  0.00  0.00    -0.479 OA
ATOM     10  HXT HYP A  1       23.616 -13.216   1.063  0.00  0.00    +0.295 HD
ENDBRANCH   8   9
ENDBRANCH   1   8
BRANCH   5  11
ATOM     11  OD  HYP A  1       28.861 -13.036   3.302  0.00  0.00    -0.391 OA
ATOM     12  HD  HYP A  1       28.675 -12.174   3.710  0.00  0.00    +0.210 HD
ENDBRANCH   5  11
TORSDOF 3
ENDMDL
MODEL 4
REMARK VINA RESULT:      -4.3      1.061      3.834
REMARK  Name = *****
REMARK                            x       y       z     vdW  Elec       q    Type
REMARK                         _______ _______ _______ _____ _____    ______ ____
ROOT
ATOM      1  CA  HYP A  1       24.946 -13.410   3.039  0.00  0.00    +0.166 C 
ATOM      2  N   HYP A  1       26.242 -12.950   2.508  0.00  0.00    -0.302 NA
ATOM      3  H   HYP A  1       26.143 -12.539   1.581  0.00  0.00    +0.123 HD
ATOM      4  CD  HYP A  1       27.152 -14.091   2.544  0.00  0.00    +0.113 C 
ATOM      5  CG  HYP A  1       26.619 -14.995   3.663  0.00  0.00    +0.130 C 
ATOM      6  CB  HYP A  1       25.397 -14.267   4.212  0.00  0.00    +0.062 C 
ENDROOT
BRANCH   1   8
ATOM      7  O   HYP A  1       23.757 -11.890   4.534  0.00  0.00    -0.249 OA
ATOM      8  C   HYP A  1       24.045 -12.218   3.390  0.00  0.00    +0.322 C 
BRANCH   8   9
ATOM      9  OXT HYP A  1       23.672 -11.459   2.331  0.00  0.00    -0.479 OA
ATOM     10  HXT HYP A  1       24.396 -11.165   1.750  0.00  0.00    +0.295 HD
ENDBRANCH   8   9
ENDBRANCH   1   8
BRANCH   5  11
ATOM     11  OD  HYP A  1       26.212 -16.267   3.160  0.00  0.00    -0.391 OA
ATOM     12  HD  HYP A  1       25.312 -16.456   3.475  0.00  0.00    +0.210 HD
ENDBRANCH   5  11
TORSDOF 3
ENDMDL
MODEL 5
REMARK VINA RESULT:      -4.2      6.052      7.147
REMARK  Name = *****
REMARK                            x       y       z     vdW  Elec       q    Type
REMARK                         _______ _______ _______ _____ _____    ______ ____
ROOT
ATOM      1  CA  HYP A  1       24.555 -20.487   4.669  0.00  0.00    +0.166 C 
ATOM      2  N   HYP A  1       24.651 -20.797   6.107  0.00  0.00    -0.302 NA
ATOM      3  H   HYP A  1       25.391 -21.470   6.297  0.00  0.00    +0.123 HD
ATOM      4  CD  HYP A  1       23.331 -21.244   6.541  0.00  0.00    +0.113 C 
ATOM      5  CG  HYP A  1       22.344 -20.591   5.564  0.00  0.00    +0.130 C 
ATOM      6  CB  HYP A  1       23.211 -19.778   4.610  0.00  0.00    +0.062 C 
ENDROOT
BRANCH   1   8
ATOM      7  O   HYP A  1       25.686 -18.655   3.517  0.00  0.00    -0.249 OA
ATOM      8  C   HYP A  1       25.766 -19.666   4.204  0.00  0.00    +0.322 C 
BRANCH   8   9
ATOM      9  OXT HYP A  1       26.954 -20.072   4.712  0.00  0.00    -0.479 OA
ATOM     10  HXT HYP A  1       27.323 -20.884   4.321  0.00  0.00    +0.295 HD
ENDBRANCH   8   9
ENDBRANCH   1   8
BRANCH   5  11
ATOM     11  OD  HYP A  1       21.624 -21.570   4.814  0.00  0.00    -0.391 OA
ATOM     12  HD  HYP A  1       20.954 -21.975   5.389  0.00  0.00    +0.210 HD
ENDBRANCH   5  11
TORSDOF 3
ENDMDL
MODEL 6
REMARK VINA RESULT:      -4.2      6.911      7.456
REMARK  Name = *****
REMARK                            x       y       z     vdW  Elec       q    Type
REMARK                         _______ _______ _______ _____ _____    ______ ____
ROOT
ATOM      1  CA  HYP A  1       27.213 -20.088   6.215  0.00  0.00    +0.166 C 
ATOM      2  N   HYP A  1       26.747 -20.109   4.817  0.00  0.00    -0.302 NA
ATOM      3  H   HYP A  1       26.919 -19.219   4.352  0.00  0.00    +0.123 HD
ATOM      4  CD  HYP A  1       25.339 -20.494   4.837  0.00  0.00    +0.113 C 
ATOM      5  CG  HYP A  1       25.165 -21.312   6.123  0.00  0.00    +0.130 C 
ATOM      6  CB  HYP A  1       26.548 -21.341   6.765  0.00  0.00    +0.062 C 
ENDROOT
BRANCH   1   8
ATOM      7  O   HYP A  1       29.425 -19.063   6.086  0.00  0.00    -0.249 OA
ATOM      8  C   HYP A  1       28.746 -20.063   6.281  0.00  0.00    +0.322 C 
BRANCH   8   9
ATOM      9  OXT HYP A  1       29.314 -21.222   6.694  0.00  0.00    -0.479 OA
ATOM     10  HXT HYP A  1       30.014 -21.131   7.365  0.00  0.00    +0.295 HD
ENDBRANCH   8   9
ENDBRANCH   1   8
BRANCH   5  11
ATOM     11  OD  HYP A  1       24.251 -20.684   7.023  0.00  0.00    -0.391 OA
ATOM     12  HD  HYP A  1       24.749 -20.323   7.775  0.00  0.00    +0.210 HD
ENDBRANCH   5  11
TORSDOF 3
ENDMDL
MODEL 7
REMARK VINA RESULT:      -4.2      1.647      2.176
REMARK  Name = *****
REMARK                            x       y       z     vdW  Elec       q    Type
REMARK                         _______ _______ _______ _____ _____    ______ ____
ROOT
ATOM      1  CA  HYP A  1       26.243 -14.018   3.613  0.00  0.00    +0.166 C 
ATOM      2  N   HYP A  1       25.703 -13.357   4.815  0.00  0.00    -0.302 NA
ATOM      3  H   HYP A  1       25.641 -14.001   5.601  0.00  0.00    +0.123 HD
ATOM      4  CD  HYP A  1       24.421 -12.766   4.443  0.00  0.00    +0.113 C 
ATOM      5  CG  HYP A  1       24.517 -12.514   2.933  0.00  0.00    +0.130 C 
ATOM      6  CB  HYP A  1       25.910 -12.993   2.540  0.00  0.00    +0.062 C 
ENDROOT
BRANCH   1   8
ATOM      7  O   HYP A  1       28.625 -13.505   3.751  0.00  0.00    -0.249 OA
ATOM      8  C   HYP A  1       27.732 -14.342   3.789  0.00  0.00    +0.322 C 
BRANCH   8   9
ATOM      9  OXT HYP A  1       27.997 -15.630   4.114  0.00  0.00    -0.479 OA
ATOM     10  HXT HYP A  1       28.250 -16.208   3.371  0.00  0.00    +0.295 HD
ENDBRANCH   8   9
ENDBRANCH   1   8
BRANCH   5  11
ATOM     11  OD  HYP A  1       23.546 -13.274   2.213  0.00  0.00    -0.391 OA
ATOM     12  HD  HYP A  1       22.690 -12.818   2.265  0.00  0.00    +0.210 HD
ENDBRANCH   5  11
TORSDOF 3
ENDMDL
MODEL 8
REMARK VINA RESULT:      -4.2      6.708      7.235
REMARK  Name = *****
REMARK                            x       y       z     vdW  Elec       q    Type
REMARK                         _______ _______ _______ _____ _____    ______ ____
ROOT
ATOM      1  CA  HYP A  1       26.695 -20.075   5.783  0.00  0.00    +0.166 C 
ATOM      2  N   HYP A  1       26.223 -20.318   4.408  0.00  0.00    -0.302 NA
ATOM      3  H   HYP A  1       26.324 -19.489   3.825  0.00  0.00    +0.123 HD
ATOM      4  CD  HYP A  1       24.848 -20.800   4.502  0.00  0.00    +0.113 C 
ATOM      5  CG  HYP A  1       24.744 -21.448   5.889  0.00  0.00    +0.130 C 
ATOM      6  CB  HYP A  1       26.129 -21.288   6.506  0.00  0.00    +0.062 C 
ENDROOT
BRANCH   1   8
ATOM      7  O   HYP A  1       28.978 -20.744   6.333  0.00  0.00    -0.249 OA
ATOM      8  C   HYP A  1       28.222 -19.928   5.819  0.00  0.00    +0.322 C 
BRANCH   8   9
ATOM      9  OXT HYP A  1       28.705 -18.870   5.125  0.00  0.00    -0.479 OA
ATOM     10  HXT HYP A  1       28.868 -18.064   5.648  0.00  0.00    +0.295 HD
ENDBRANCH   8   9
ENDBRANCH   1   8
BRANCH   5  11
ATOM     11  OD  HYP A  1       23.791 -20.774   6.711  0.00  0.00    -0.391 OA
ATOM     12  HD  HYP A  1       24.170 -19.928   7.002  0.00  0.00    +0.210 HD
ENDBRANCH   5  11
TORSDOF 3
ENDMDL
MODEL 9
REMARK VINA RESULT:      -4.1      2.216      2.836
REMARK  Name = *****
REMARK                            x       y       z     vdW  Elec       q    Type
REMARK                         _______ _______ _______ _____ _____    ______ ____
ROOT
ATOM      1  CA  HYP A  1       27.075 -13.492   3.622  0.00  0.00    +0.166 C 
ATOM      2  N   HYP A  1       27.129 -14.950   3.407  0.00  0.00    -0.302 NA
ATOM      3  H   HYP A  1       27.672 -15.187   2.578  0.00  0.00    +0.123 HD
ATOM      4  CD  HYP A  1       25.751 -15.429   3.357  0.00  0.00    +0.113 C 
ATOM      5  CG  HYP A  1       24.942 -14.413   4.173  0.00  0.00    +0.130 C 
ATOM      6  CB  HYP A  1       25.964 -13.389   4.655  0.00  0.00    +0.062 C 
ENDROOT
BRANCH   1   8
ATOM      7  O   HYP A  1       28.640 -12.339   5.098  0.00  0.00    -0.249 OA
ATOM      8  C   HYP A  1       28.445 -12.953   4.057  0.00  0.00    +0.322 C 
BRANCH   8   9
ATOM      9  OXT HYP A  1       29.475 -13.309   3.253  0.00  0.00    -0.479 OA
ATOM     10  HXT HYP A  1       30.355 -13.302   3.669  0.00  0.00    +0.295 HD
ENDBRANCH   8   9
ENDBRANCH   1   8
BRANCH   5  11
ATOM     11  OD  HYP A  1       23.969 -13.750   3.366  0.00  0.00    -0.391 OA
ATOM     12  HD  HYP A  1       23.174 -13.589   3.902  0.00  0.00    +0.210 HD
ENDBRANCH   5  11
TORSDOF 3
ENDMDL
