MODEL 1
REMARK VINA RESULT:      -5.8      0.000      0.000
REMARK  Name = *****
REMARK                            x       y       z     vdW  Elec       q    Type
REMARK                         _______ _______ _______ _____ _____    ______ ____
ROOT
ATOM      1  C   LIG    1       26.513 -27.591  14.499  0.00  0.00    +0.129 C 
ATOM      2  C   LIG    1       26.391 -27.449  12.945  0.00  0.00    +0.007 C 
ATOM      3  C   LIG    1       26.265 -25.953  12.538  0.00  0.00    +0.014 C 
ATOM      4  C   LIG    1       25.039 -28.160  12.635  0.00  0.00    +0.002 C 
ATOM      5  C   LIG    1       25.119 -29.700  12.450  0.00  0.00    -0.003 C 
ATOM      6  C   LIG    1       26.260 -30.183  11.524  0.00  0.00    +0.002 C 
ATOM      7  C   LIG    1       27.591 -29.546  11.966  0.00  0.00    +0.005 C 
ATOM      8  C   LIG    1       25.973 -30.192   9.967  0.00  0.00    -0.007 C 
ATOM      9  C   LIG    1       26.992 -31.187   9.327  0.00  0.00    +0.016 C 
ATOM     10  C   LIG    1       24.526 -30.621   9.649  0.00  0.00    -0.057 C 
ATOM     11  C   LIG    1       24.208 -30.920   8.371  0.00  0.00    +0.046 C 
ATOM     12  C   LIG    1       24.379 -29.665   7.548  0.00  0.00    +0.156 C 
ATOM     13  O   LIG    1       23.606 -29.442   6.619  0.00  0.00    -0.293 OA
ATOM     14  C   LIG    1       25.617 -28.812   7.802  0.00  0.00    +0.080 C 
ATOM     15  C   LIG    1       23.436 -30.056  10.555  0.00  0.00    +0.013 C 
ATOM     16  C   LIG    1       22.035 -30.618  10.263  0.00  0.00    +0.012 C 
ATOM     17  C   LIG    1       26.123 -28.823   9.257  0.00  0.00    +0.019 C 
ATOM     18  C   LIG    1       23.785 -30.335  12.018  0.00  0.00    +0.012 C 
ATOM     19  C   LIG    1       24.147 -27.775  13.835  0.00  0.00    +0.007 C 
ATOM     20  C   LIG    1       27.563 -28.032  12.134  0.00  0.00    +0.010 C 
ATOM     21  C   LIG    1       25.070 -27.380  14.993  0.00  0.00    +0.043 C 
ENDROOT
BRANCH   1  23
ATOM     22  C   LIG    1       28.905 -27.021  15.403  0.00  0.00    +0.089 C 
ATOM     23  C   LIG    1       27.485 -26.576  15.156  0.00  0.00    +0.162 C 
ATOM     24  O   LIG    1       27.126 -25.447  15.500  0.00  0.00    -0.295 OA
ENDBRANCH   1  23
BRANCH   1  25
ATOM     25  O   LIG    1       26.904 -28.916  14.862  0.00  0.00    -0.381 OA
ATOM     26  H   LIG    1       26.549 -29.109  15.748  0.00  0.00    +0.211 HD
ENDBRANCH   1  25
TORSDOF 2
ENDMDL
MODEL 2
REMARK VINA RESULT:      -5.4      3.440      6.543
REMARK  Name = *****
REMARK                            x       y       z     vdW  Elec       q    Type
REMARK                         _______ _______ _______ _____ _____    ______ ____
ROOT
ATOM      1  C   LIG    1       20.006 -29.849  13.694  0.00  0.00    +0.129 C 
ATOM      2  C   LIG    1       21.502 -29.999  14.129  0.00  0.00    +0.007 C 
ATOM      3  C   LIG    1       21.605 -30.728  15.500  0.00  0.00    +0.014 C 
ATOM      4  C   LIG    1       21.959 -28.522  14.321  0.00  0.00    +0.002 C 
ATOM      5  C   LIG    1       22.447 -27.799  13.035  0.00  0.00    -0.003 C 
ATOM      6  C   LIG    1       23.440 -28.612  12.172  0.00  0.00    +0.002 C 
ATOM      7  C   LIG    1       22.867 -30.018  11.909  0.00  0.00    +0.005 C 
ATOM      8  C   LIG    1       24.970 -28.545  12.572  0.00  0.00    -0.007 C 
ATOM      9  C   LIG    1       25.785 -28.952  11.304  0.00  0.00    +0.016 C 
ATOM     10  C   LIG    1       25.380 -27.137  13.049  0.00  0.00    -0.057 C 
ATOM     11  C   LIG    1       26.695 -26.858  13.182  0.00  0.00    +0.046 C 
ATOM     12  C   LIG    1       27.250 -27.757  14.261  0.00  0.00    +0.156 C 
ATOM     13  O   LIG    1       28.123 -27.330  15.013  0.00  0.00    -0.293 OA
ATOM     14  C   LIG    1       26.820 -29.220  14.257  0.00  0.00    +0.080 C 
ATOM     15  C   LIG    1       24.390 -26.412  13.957  0.00  0.00    +0.013 C 
ATOM     16  C   LIG    1       24.801 -24.969  14.295  0.00  0.00    +0.012 C 
ATOM     17  C   LIG    1       25.392 -29.473  13.738  0.00  0.00    +0.019 C 
ATOM     18  C   LIG    1       23.009 -26.391  13.300  0.00  0.00    +0.012 C 
ATOM     19  C   LIG    1       20.715 -27.836  14.925  0.00  0.00    +0.007 C 
ATOM     20  C   LIG    1       22.401 -30.772  13.148  0.00  0.00    +0.010 C 
ATOM     21  C   LIG    1       19.494 -28.688  14.565  0.00  0.00    +0.043 C 
ENDROOT
BRANCH   1  23
ATOM     22  C   LIG    1       18.080 -31.090  14.964  0.00  0.00    +0.089 C 
ATOM     23  C   LIG    1       19.151 -31.126  13.902  0.00  0.00    +0.162 C 
ATOM     24  O   LIG    1       19.339 -32.159  13.254  0.00  0.00    -0.295 OA
ENDBRANCH   1  23
BRANCH   1  25
ATOM     25  O   LIG    1       19.910 -29.438  12.329  0.00  0.00    -0.381 OA
ATOM     26  H   LIG    1       19.382 -28.622  12.290  0.00  0.00    +0.211 HD
ENDBRANCH   1  25
TORSDOF 2
ENDMDL
MODEL 3
REMARK VINA RESULT:      -5.4      2.632      6.111
REMARK  Name = *****
REMARK                            x       y       z     vdW  Elec       q    Type
REMARK                         _______ _______ _______ _____ _____    ______ ____
ROOT
ATOM      1  C   LIG    1       26.125 -31.074   9.739  0.00  0.00    +0.129 C 
ATOM      2  C   LIG    1       24.679 -30.535   9.998  0.00  0.00    +0.007 C 
ATOM      3  C   LIG    1       23.979 -30.173   8.656  0.00  0.00    +0.014 C 
ATOM      4  C   LIG    1       24.934 -29.219  10.792  0.00  0.00    +0.002 C 
ATOM      5  C   LIG    1       25.105 -29.384  12.327  0.00  0.00    -0.003 C 
ATOM      6  C   LIG    1       24.041 -30.280  13.004  0.00  0.00    +0.002 C 
ATOM      7  C   LIG    1       23.933 -31.618  12.248  0.00  0.00    +0.005 C 
ATOM      8  C   LIG    1       22.674 -29.596  13.413  0.00  0.00    -0.007 C 
ATOM      9  C   LIG    1       22.032 -30.496  14.516  0.00  0.00    +0.016 C 
ATOM     10  C   LIG    1       22.880 -28.161  13.938  0.00  0.00    -0.057 C 
ATOM     11  C   LIG    1       21.849 -27.545  14.558  0.00  0.00    +0.046 C 
ATOM     12  C   LIG    1       20.738 -27.381  13.548  0.00  0.00    +0.156 C 
ATOM     13  O   LIG    1       20.035 -26.374  13.584  0.00  0.00    -0.293 OA
ATOM     14  C   LIG    1       20.429 -28.561  12.634  0.00  0.00    +0.080 C 
ATOM     15  C   LIG    1       23.892 -27.301  13.185  0.00  0.00    +0.013 C 
ATOM     16  C   LIG    1       24.141 -25.929  13.832  0.00  0.00    +0.012 C 
ATOM     17  C   LIG    1       21.646 -29.430  12.266  0.00  0.00    +0.019 C 
ATOM     18  C   LIG    1       25.223 -28.046  13.078  0.00  0.00    +0.012 C 
ATOM     19  C   LIG    1       26.206 -28.643  10.134  0.00  0.00    +0.007 C 
ATOM     20  C   LIG    1       23.738 -31.500  10.742  0.00  0.00    +0.010 C 
ATOM     21  C   LIG    1       26.935 -29.799   9.441  0.00  0.00    +0.043 C 
ENDROOT
BRANCH   1  23
ATOM     22  C   LIG    1       25.938 -33.540   8.873  0.00  0.00    +0.089 C 
ATOM     23  C   LIG    1       26.227 -32.089   8.571  0.00  0.00    +0.162 C 
ATOM     24  O   LIG    1       26.557 -31.753   7.431  0.00  0.00    -0.295 OA
ENDBRANCH   1  23
BRANCH   1  25
ATOM     25  O   LIG    1       26.670 -31.664  10.921  0.00  0.00    -0.381 OA
ATOM     26  H   LIG    1       26.895 -30.951  11.545  0.00  0.00    +0.211 HD
ENDBRANCH   1  25
TORSDOF 2
ENDMDL
MODEL 4
REMARK VINA RESULT:      -5.3      2.380      6.738
REMARK  Name = *****
REMARK                            x       y       z     vdW  Elec       q    Type
REMARK                         _______ _______ _______ _____ _____    ______ ____
ROOT
ATOM      1  C   LIG    1       25.811 -32.113   7.042  0.00  0.00    +0.129 C 
ATOM      2  C   LIG    1       25.972 -32.191   8.597  0.00  0.00    +0.007 C 
ATOM      3  C   LIG    1       26.329 -33.639   9.041  0.00  0.00    +0.014 C 
ATOM      4  C   LIG    1       24.541 -31.856   9.113  0.00  0.00    +0.002 C 
ATOM      5  C   LIG    1       24.218 -30.343   9.261  0.00  0.00    -0.003 C 
ATOM      6  C   LIG    1       25.309 -29.516   9.982  0.00  0.00    +0.002 C 
ATOM      7  C   LIG    1       26.681 -29.794   9.338  0.00  0.00    +0.005 C 
ATOM      8  C   LIG    1       25.273 -29.494  11.564  0.00  0.00    -0.007 C 
ATOM      9  C   LIG    1       26.062 -28.224  12.015  0.00  0.00    +0.016 C 
ATOM     10  C   LIG    1       23.830 -29.455  12.107  0.00  0.00    -0.057 C 
ATOM     11  C   LIG    1       23.640 -29.179  13.416  0.00  0.00    +0.046 C 
ATOM     12  C   LIG    1       24.275 -30.290  14.218  0.00  0.00    +0.156 C 
ATOM     13  O   LIG    1       23.745 -30.659  15.263  0.00  0.00    -0.293 OA
ATOM     14  C   LIG    1       25.646 -30.789  13.778  0.00  0.00    +0.080 C 
ATOM     15  C   LIG    1       22.813 -30.346  11.399  0.00  0.00    +0.013 C 
ATOM     16  C   LIG    1       21.373 -30.168  11.908  0.00  0.00    +0.012 C 
ATOM     17  C   LIG    1       25.901 -30.727  12.260  0.00  0.00    +0.019 C 
ATOM     18  C   LIG    1       22.843 -30.069   9.896  0.00  0.00    +0.012 C 
ATOM     19  C   LIG    1       23.617 -32.538   8.080  0.00  0.00    +0.007 C 
ATOM     20  C   LIG    1       27.047 -31.266   9.198  0.00  0.00    +0.010 C 
ATOM     21  C   LIG    1       24.425 -32.735   6.794  0.00  0.00    +0.043 C 
ENDROOT
BRANCH   1  23
ATOM     22  C   LIG    1       26.474 -33.825   5.173  0.00  0.00    +0.089 C 
ATOM     23  C   LIG    1       26.914 -32.863   6.250  0.00  0.00    +0.162 C 
ATOM     24  O   LIG    1       28.115 -32.719   6.491  0.00  0.00    -0.295 OA
ENDBRANCH   1  23
BRANCH   1  25
ATOM     25  O   LIG    1       25.761 -30.755   6.601  0.00  0.00    -0.381 OA
ATOM     26  H   LIG    1       24.940 -30.627   6.094  0.00  0.00    +0.211 HD
ENDBRANCH   1  25
TORSDOF 2
ENDMDL
MODEL 5
REMARK VINA RESULT:      -5.3      1.815      2.318
REMARK  Name = *****
REMARK                            x       y       z     vdW  Elec       q    Type
REMARK                         _______ _______ _______ _____ _____    ______ ____
ROOT
ATOM      1  C   LIG    1       27.059 -26.939  14.196  0.00  0.00    +0.129 C 
ATOM      2  C   LIG    1       26.035 -27.387  13.101  0.00  0.00    +0.007 C 
ATOM      3  C   LIG    1       24.769 -26.483  13.128  0.00  0.00    +0.014 C 
ATOM      4  C   LIG    1       25.629 -28.817  13.568  0.00  0.00    +0.002 C 
ATOM      5  C   LIG    1       26.568 -29.965  13.105  0.00  0.00    -0.003 C 
ATOM      6  C   LIG    1       26.949 -29.925  11.607  0.00  0.00    +0.002 C 
ATOM      7  C   LIG    1       27.467 -28.521  11.241  0.00  0.00    +0.005 C 
ATOM      8  C   LIG    1       25.937 -30.584  10.584  0.00  0.00    -0.007 C 
ATOM      9  C   LIG    1       26.750 -30.908   9.291  0.00  0.00    +0.016 C 
ATOM     10  C   LIG    1       25.295 -31.866  11.153  0.00  0.00    -0.057 C 
ATOM     11  C   LIG    1       24.610 -32.673  10.313  0.00  0.00    +0.046 C 
ATOM     12  C   LIG    1       23.421 -31.897   9.796  0.00  0.00    +0.156 C 
ATOM     13  O   LIG    1       22.360 -32.482   9.597  0.00  0.00    -0.293 OA
ATOM     14  C   LIG    1       23.645 -30.448   9.381  0.00  0.00    +0.080 C 
ATOM     15  C   LIG    1       24.874 -31.821  12.620  0.00  0.00    +0.013 C 
ATOM     16  C   LIG    1       24.356 -33.165  13.157  0.00  0.00    +0.012 C 
ATOM     17  C   LIG    1       24.727 -29.703  10.187  0.00  0.00    +0.019 C 
ATOM     18  C   LIG    1       26.054 -31.367  13.480  0.00  0.00    +0.012 C 
ATOM     19  C   LIG    1       25.592 -28.696  15.107  0.00  0.00    +0.007 C 
ATOM     20  C   LIG    1       26.562 -27.367  11.655  0.00  0.00    +0.010 C 
ATOM     21  C   LIG    1       26.457 -27.494  15.499  0.00  0.00    +0.043 C 
ENDROOT
BRANCH   1  23
ATOM     22  C   LIG    1       26.730 -24.690  15.500  0.00  0.00    +0.089 C 
ATOM     23  C   LIG    1       27.266 -25.404  14.283  0.00  0.00    +0.162 C 
ATOM     24  O   LIG    1       27.822 -24.761  13.388  0.00  0.00    -0.295 OA
ENDBRANCH   1  23
BRANCH   1  25
ATOM     25  O   LIG    1       28.325 -27.571  14.001  0.00  0.00    -0.381 OA
ATOM     26  H   LIG    1       29.012 -26.882  13.976  0.00  0.00    +0.211 HD
ENDBRANCH   1  25
TORSDOF 2
ENDMDL
MODEL 6
REMARK VINA RESULT:      -5.2      2.133      6.618
REMARK  Name = *****
REMARK                            x       y       z     vdW  Elec       q    Type
REMARK                         _______ _______ _______ _____ _____    ______ ____
ROOT
ATOM      1  C   LIG    1       24.532 -31.169   7.837  0.00  0.00    +0.129 C 
ATOM      2  C   LIG    1       25.856 -31.032   8.661  0.00  0.00    +0.007 C 
ATOM      3  C   LIG    1       26.926 -32.040   8.154  0.00  0.00    +0.014 C 
ATOM      4  C   LIG    1       25.419 -31.456  10.095  0.00  0.00    +0.002 C 
ATOM      5  C   LIG    1       24.803 -30.330  10.970  0.00  0.00    -0.003 C 
ATOM      6  C   LIG    1       25.597 -29.002  10.968  0.00  0.00    +0.002 C 
ATOM      7  C   LIG    1       25.881 -28.570   9.517  0.00  0.00    +0.005 C 
ATOM      8  C   LIG    1       26.805 -28.880  11.983  0.00  0.00    -0.007 C 
ATOM      9  C   LIG    1       27.070 -27.355  12.187  0.00  0.00    +0.016 C 
ATOM     10  C   LIG    1       26.496 -29.560  13.333  0.00  0.00    -0.057 C 
ATOM     11  C   LIG    1       27.319 -29.324  14.378  0.00  0.00    +0.046 C 
ATOM     12  C   LIG    1       28.681 -29.874  14.024  0.00  0.00    +0.156 C 
ATOM     13  O   LIG    1       29.372 -30.384  14.903  0.00  0.00    -0.293 OA
ATOM     14  C   LIG    1       29.208 -29.614  12.618  0.00  0.00    +0.080 C 
ATOM     15  C   LIG    1       25.773 -30.903  13.267  0.00  0.00    +0.013 C 
ATOM     16  C   LIG    1       25.386 -31.466  14.644  0.00  0.00    +0.012 C 
ATOM     17  C   LIG    1       28.127 -29.545  11.524  0.00  0.00    +0.019 C 
ATOM     18  C   LIG    1       24.510 -30.767  12.416  0.00  0.00    +0.012 C 
ATOM     19  C   LIG    1       24.410 -32.597   9.841  0.00  0.00    +0.007 C 
ATOM     20  C   LIG    1       26.510 -29.638   8.633  0.00  0.00    +0.010 C 
ATOM     21  C   LIG    1       23.882 -32.441   8.411  0.00  0.00    +0.043 C 
ENDROOT
BRANCH   1  23
ATOM     22  C   LIG    1       25.113 -30.039   5.545  0.00  0.00    +0.089 C 
ATOM     23  C   LIG    1       24.746 -31.290   6.305  0.00  0.00    +0.162 C 
ATOM     24  O   LIG    1       24.601 -32.356   5.701  0.00  0.00    -0.295 OA
ENDBRANCH   1  23
BRANCH   1  25
ATOM     25  O   LIG    1       23.650 -30.077   8.101  0.00  0.00    -0.381 OA
ATOM     26  H   LIG    1       23.060 -29.967   7.335  0.00  0.00    +0.211 HD
ENDBRANCH   1  25
TORSDOF 2
ENDMDL
MODEL 7
REMARK VINA RESULT:      -5.1      1.800      6.552
REMARK  Name = *****
REMARK                            x       y       z     vdW  Elec       q    Type
REMARK                         _______ _______ _______ _____ _____    ______ ____
ROOT
ATOM      1  C   LIG    1       25.099 -31.692   8.895  0.00  0.00    +0.129 C 
ATOM      2  C   LIG    1       24.516 -30.391   9.540  0.00  0.00    +0.007 C 
ATOM      3  C   LIG    1       24.363 -29.269   8.473  0.00  0.00    +0.014 C 
ATOM      4  C   LIG    1       25.632 -29.969  10.543  0.00  0.00    +0.002 C 
ATOM      5  C   LIG    1       25.569 -30.645  11.940  0.00  0.00    -0.003 C 
ATOM      6  C   LIG    1       24.166 -30.650  12.593  0.00  0.00    +0.002 C 
ATOM      7  C   LIG    1       23.131 -31.202  11.594  0.00  0.00    +0.005 C 
ATOM      8  C   LIG    1       23.738 -29.357  13.399  0.00  0.00    -0.007 C 
ATOM      9  C   LIG    1       22.602 -29.792  14.377  0.00  0.00    +0.016 C 
ATOM     10  C   LIG    1       24.920 -28.747  14.181  0.00  0.00    -0.057 C 
ATOM     11  C   LIG    1       24.660 -27.800  15.108  0.00  0.00    +0.046 C 
ATOM     12  C   LIG    1       24.072 -26.605  14.394  0.00  0.00    +0.156 C 
ATOM     13  O   LIG    1       24.343 -25.474  14.788  0.00  0.00    -0.293 OA
ATOM     14  C   LIG    1       23.025 -26.867  13.317  0.00  0.00    +0.080 C 
ATOM     15  C   LIG    1       26.263 -28.705  13.457  0.00  0.00    +0.013 C 
ATOM     16  C   LIG    1       27.423 -28.200  14.332  0.00  0.00    +0.012 C 
ATOM     17  C   LIG    1       23.213 -28.182  12.538  0.00  0.00    +0.019 C 
ATOM     18  C   LIG    1       26.610 -30.099  12.933  0.00  0.00    +0.012 C 
ATOM     19  C   LIG    1       26.938 -30.322   9.797  0.00  0.00    +0.007 C 
ATOM     20  C   LIG    1       23.143 -30.548  10.219  0.00  0.00    +0.010 C 
ATOM     21  C   LIG    1       26.597 -31.374   8.737  0.00  0.00    +0.043 C 
ENDROOT
BRANCH   1  23
ATOM     22  C   LIG    1       25.355 -32.101   6.319  0.00  0.00    +0.089 C 
ATOM     23  C   LIG    1       24.459 -32.068   7.533  0.00  0.00    +0.162 C 
ATOM     24  O   LIG    1       23.255 -32.310   7.414  0.00  0.00    -0.295 OA
ENDBRANCH   1  23
BRANCH   1  25
ATOM     25  O   LIG    1       24.985 -32.801   9.788  0.00  0.00    -0.381 OA
ATOM     26  H   LIG    1       24.162 -33.278   9.582  0.00  0.00    +0.211 HD
ENDBRANCH   1  25
TORSDOF 2
ENDMDL
MODEL 8
REMARK VINA RESULT:      -5.1      2.035      6.493
REMARK  Name = *****
REMARK                            x       y       z     vdW  Elec       q    Type
REMARK                         _______ _______ _______ _____ _____    ______ ____
ROOT
ATOM      1  C   LIG    1       25.607 -31.404   9.271  0.00  0.00    +0.129 C 
ATOM      2  C   LIG    1       24.659 -30.698  10.296  0.00  0.00    +0.007 C 
ATOM      3  C   LIG    1       23.289 -30.363   9.639  0.00  0.00    +0.014 C 
ATOM      4  C   LIG    1       25.403 -29.361  10.595  0.00  0.00    +0.002 C 
ATOM      5  C   LIG    1       26.488 -29.430  11.704  0.00  0.00    -0.003 C 
ATOM      6  C   LIG    1       26.046 -30.156  12.997  0.00  0.00    +0.002 C 
ATOM      7  C   LIG    1       25.441 -31.527  12.641  0.00  0.00    +0.005 C 
ATOM      8  C   LIG    1       25.259 -29.303  14.073  0.00  0.00    -0.007 C 
ATOM      9  C   LIG    1       25.413 -30.046  15.438  0.00  0.00    +0.016 C 
ATOM     10  C   LIG    1       25.802 -27.863  14.177  0.00  0.00    -0.057 C 
ATOM     11  C   LIG    1       25.406 -27.098  15.218  0.00  0.00    +0.046 C 
ATOM     12  C   LIG    1       23.914 -26.891  15.097  0.00  0.00    +0.156 C 
ATOM     13  O   LIG    1       23.425 -25.816  15.434  0.00  0.00    -0.293 OA
ATOM     14  C   LIG    1       23.059 -28.096  14.721  0.00  0.00    +0.080 C 
ATOM     15  C   LIG    1       26.154 -27.173  12.862  0.00  0.00    +0.013 C 
ATOM     16  C   LIG    1       26.803 -25.791  13.042  0.00  0.00    +0.012 C 
ATOM     17  C   LIG    1       23.747 -29.114  13.793  0.00  0.00    +0.019 C 
ATOM     18  C   LIG    1       27.098 -28.061  12.051  0.00  0.00    +0.012 C 
ATOM     19  C   LIG    1       26.007 -28.973   9.228  0.00  0.00    +0.007 C 
ATOM     20  C   LIG    1       24.354 -31.500  11.575  0.00  0.00    +0.010 C 
ATOM     21  C   LIG    1       26.100 -30.247   8.383  0.00  0.00    +0.043 C 
ENDROOT
BRANCH   1  23
ATOM     22  C   LIG    1       24.726 -32.245   6.951  0.00  0.00    +0.089 C 
ATOM     23  C   LIG    1       24.920 -32.508   8.425  0.00  0.00    +0.162 C 
ATOM     24  O   LIG    1       24.512 -33.561   8.920  0.00  0.00    -0.295 OA
ENDBRANCH   1  23
BRANCH   1  25
ATOM     25  O   LIG    1       26.748 -31.960   9.928  0.00  0.00    -0.381 OA
ATOM     26  H   LIG    1       26.767 -32.917   9.752  0.00  0.00    +0.211 HD
ENDBRANCH   1  25
TORSDOF 2
ENDMDL
MODEL 9
REMARK VINA RESULT:      -5.0      2.500      4.467
REMARK  Name = *****
REMARK                            x       y       z     vdW  Elec       q    Type
REMARK                         _______ _______ _______ _____ _____    ______ ____
ROOT
ATOM      1  C   LIG    1       27.588 -28.059  13.837  0.00  0.00    +0.129 C 
ATOM      2  C   LIG    1       26.255 -28.673  14.380  0.00  0.00    +0.007 C 
ATOM      3  C   LIG    1       26.544 -29.713  15.500  0.00  0.00    +0.014 C 
ATOM      4  C   LIG    1       25.688 -29.427  13.140  0.00  0.00    +0.002 C 
ATOM      5  C   LIG    1       24.848 -28.567  12.157  0.00  0.00    -0.003 C 
ATOM      6  C   LIG    1       23.784 -27.668  12.831  0.00  0.00    +0.002 C 
ATOM      7  C   LIG    1       24.438 -26.851  13.962  0.00  0.00    +0.005 C 
ATOM      8  C   LIG    1       22.385 -28.328  13.166  0.00  0.00    -0.007 C 
ATOM      9  C   LIG    1       21.358 -27.160  13.304  0.00  0.00    +0.016 C 
ATOM     10  C   LIG    1       21.936 -29.315  12.069  0.00  0.00    -0.057 C 
ATOM     11  C   LIG    1       20.661 -29.762  12.085  0.00  0.00    +0.046 C 
ATOM     12  C   LIG    1       20.467 -30.554  13.356  0.00  0.00    +0.156 C 
ATOM     13  O   LIG    1       19.742 -31.546  13.344  0.00  0.00    -0.293 OA
ATOM     14  C   LIG    1       21.047 -29.983  14.645  0.00  0.00    +0.080 C 
ATOM     15  C   LIG    1       23.017 -30.226  11.492  0.00  0.00    +0.013 C 
ATOM     16  C   LIG    1       22.532 -31.097  10.321  0.00  0.00    +0.012 C 
ATOM     17  C   LIG    1       22.342 -29.168  14.466  0.00  0.00    +0.019 C 
ATOM     18  C   LIG    1       24.204 -29.384  11.023  0.00  0.00    +0.012 C 
ATOM     19  C   LIG    1       26.951 -30.000  12.460  0.00  0.00    +0.007 C 
ATOM     20  C   LIG    1       25.251 -27.661  14.963  0.00  0.00    +0.010 C 
ATOM     21  C   LIG    1       28.149 -29.167  12.927  0.00  0.00    +0.043 C 
ENDROOT
BRANCH   1  23
ATOM     22  C   LIG    1       28.546 -26.267  15.493  0.00  0.00    +0.089 C 
ATOM     23  C   LIG    1       28.606 -27.671  14.942  0.00  0.00    +0.162 C 
ATOM     24  O   LIG    1       29.463 -28.456  15.354  0.00  0.00    -0.295 OA
ENDBRANCH   1  23
BRANCH   1  25
ATOM     25  O   LIG    1       27.329 -26.917  13.018  0.00  0.00    -0.381 OA
ATOM     26  H   LIG    1       26.411 -26.970  12.699  0.00  0.00    +0.211 HD
ENDBRANCH   1  25
TORSDOF 2
ENDMDL
