MODEL 1
REMARK VINA RESULT:      -9.1      0.000      0.000
REMARK  Name = *****
REMARK                            x       y       z     vdW  Elec       q    Type
REMARK                         _______ _______ _______ _____ _____    ______ ____
ROOT
ATOM      1  C   LIG    1       30.307 -19.225   7.493  0.00  0.00    +0.076 A 
ATOM      2  C   LIG    1       29.712 -20.496   7.526  0.00  0.00    +0.140 A 
ATOM      3  N   LIG    1       28.707 -20.878   6.706  0.00  0.00    -0.216 NA
ATOM      4  C   LIG    1       28.267 -19.984   5.794  0.00  0.00    +0.121 A 
ATOM      5  C   LIG    1       28.797 -18.703   5.718  0.00  0.00    +0.045 A 
ATOM      6  C   LIG    1       29.844 -18.329   6.545  0.00  0.00    +0.030 A 
ENDROOT
BRANCH   1   8
ATOM      7  C   LIG    1       31.188 -18.360   9.637  0.00  0.00    +0.405 C 
ATOM      8  N   LIG    1       31.337 -18.920   8.403  0.00  0.00    -0.248 N 
ATOM      9  H   LIG    1       32.255 -19.284   8.195  0.00  0.00    +0.158 HD
ATOM     10  O   LIG    1       30.134 -18.086  10.200  0.00  0.00    -0.226 OA
BRANCH   7  11
ATOM     11  O   LIG    1       32.413 -18.136  10.187  0.00  0.00    -0.450 OA
BRANCH  11  13
ATOM     12  C   LIG    1       32.775 -15.773   9.761  0.00  0.00    +0.048 C 
ATOM     13  C   LIG    1       32.566 -16.857  10.811  0.00  0.00    +0.230 C 
ENDBRANCH  11  13
ENDBRANCH   7  11
ENDBRANCH   1   8
BRANCH   2  14
ATOM     14  N   LIG    1       30.173 -21.454   8.449  0.00  0.00    -0.342 N 
ATOM     15  H   LIG    1       30.269 -22.351   7.988  0.00  0.00    +0.144 HD
ATOM     16  H   LIG    1       29.467 -21.503   9.179  0.00  0.00    +0.144 HD
ENDBRANCH   2  14
BRANCH   4  17
ATOM     17  N   LIG    1       27.247 -20.391   4.936  0.00  0.00    -0.325 N 
ATOM     18  H   LIG    1       27.024 -19.616   4.316  0.00  0.00    +0.148 HD
BRANCH  17  19
ATOM     19  C   LIG    1       26.090 -21.060   5.511  0.00  0.00    +0.138 C 
BRANCH  19  20
ATOM     20  C   LIG    1       24.822 -20.353   5.112  0.00  0.00    -0.030 A 
ATOM     21  C   LIG    1       23.659 -20.445   5.897  0.00  0.00    +0.008 A 
ATOM     22  C   LIG    1       22.512 -19.743   5.534  0.00  0.00    +0.039 A 
ATOM     23  C   LIG    1       22.529 -18.954   4.391  0.00  0.00    +0.123 A 
ATOM     24  F   LIG    1       21.428 -18.277   4.042  0.00  0.00    -0.205 F 
ATOM     25  C   LIG    1       23.671 -18.849   3.606  0.00  0.00    +0.039 A 
ATOM     26  C   LIG    1       24.820 -19.546   3.967  0.00  0.00    +0.008 A 
ENDBRANCH  19  20
ENDBRANCH  17  19
ENDBRANCH   4  17
TORSDOF 7
ENDMDL
MODEL 2
REMARK VINA RESULT:      -8.8      1.263      1.950
REMARK  Name = *****
REMARK                            x       y       z     vdW  Elec       q    Type
REMARK                         _______ _______ _______ _____ _____    ______ ____
ROOT
ATOM      1  C   LIG    1       30.895 -19.115   8.298  0.00  0.00    +0.076 A 
ATOM      2  C   LIG    1       30.733 -20.485   8.557  0.00  0.00    +0.140 A 
ATOM      3  N   LIG    1       29.775 -21.251   7.986  0.00  0.00    -0.216 NA
ATOM      4  C   LIG    1       28.941 -20.659   7.103  0.00  0.00    +0.121 A 
ATOM      5  C   LIG    1       29.033 -19.304   6.815  0.00  0.00    +0.045 A 
ATOM      6  C   LIG    1       30.032 -18.533   7.385  0.00  0.00    +0.030 A 
ENDROOT
BRANCH   1   8
ATOM      7  C   LIG    1       31.829 -17.824  10.191  0.00  0.00    +0.405 C 
ATOM      8  N   LIG    1       31.912 -18.402   8.959  0.00  0.00    -0.248 N 
ATOM      9  H   LIG    1       32.838 -18.447   8.558  0.00  0.00    +0.158 HD
ATOM     10  O   LIG    1       30.882 -17.880  10.968  0.00  0.00    -0.226 OA
BRANCH   7  11
ATOM     11  O   LIG    1       32.981 -17.151  10.459  0.00  0.00    -0.450 OA
BRANCH  11  13
ATOM     12  C   LIG    1       33.025 -15.920  12.551  0.00  0.00    +0.048 C 
ATOM     13  C   LIG    1       32.799 -15.858  11.045  0.00  0.00    +0.230 C 
ENDBRANCH  11  13
ENDBRANCH   7  11
ENDBRANCH   1   8
BRANCH   2  14
ATOM     14  N   LIG    1       31.608 -21.129   9.452  0.00  0.00    -0.342 N 
ATOM     15  H   LIG    1       31.669 -20.595  10.311  0.00  0.00    +0.144 HD
ATOM     16  H   LIG    1       32.512 -21.159   8.987  0.00  0.00    +0.144 HD
ENDBRANCH   2  14
BRANCH   4  17
ATOM     17  N   LIG    1       27.973 -21.458   6.500  0.00  0.00    -0.325 N 
ATOM     18  H   LIG    1       27.774 -21.078   5.578  0.00  0.00    +0.148 HD
BRANCH  17  19
ATOM     19  C   LIG    1       26.793 -21.814   7.276  0.00  0.00    +0.138 C 
BRANCH  19  20
ATOM     20  C   LIG    1       25.555 -21.236   6.643  0.00  0.00    -0.030 A 
ATOM     21  C   LIG    1       25.578 -20.728   5.331  0.00  0.00    +0.008 A 
ATOM     22  C   LIG    1       24.409 -20.243   4.748  0.00  0.00    +0.039 A 
ATOM     23  C   LIG    1       23.226 -20.264   5.475  0.00  0.00    +0.123 A 
ATOM     24  F   LIG    1       22.102 -19.800   4.915  0.00  0.00    -0.205 F 
ATOM     25  C   LIG    1       23.185 -20.766   6.771  0.00  0.00    +0.039 A 
ATOM     26  C   LIG    1       24.349 -21.255   7.355  0.00  0.00    +0.008 A 
ENDBRANCH  19  20
ENDBRANCH  17  19
ENDBRANCH   4  17
TORSDOF 7
ENDMDL
MODEL 3
REMARK VINA RESULT:      -8.7      3.916      8.324
REMARK  Name = *****
REMARK                            x       y       z     vdW  Elec       q    Type
REMARK                         _______ _______ _______ _____ _____    ______ ____
ROOT
ATOM      1  C   LIG    1       28.299 -20.033   5.890  0.00  0.00    +0.076 A 
ATOM      2  C   LIG    1       29.131 -18.911   5.751  0.00  0.00    +0.140 A 
ATOM      3  N   LIG    1       30.211 -18.673   6.531  0.00  0.00    -0.216 NA
ATOM      4  C   LIG    1       30.508 -19.583   7.485  0.00  0.00    +0.121 A 
ATOM      5  C   LIG    1       29.717 -20.705   7.690  0.00  0.00    +0.045 A 
ATOM      6  C   LIG    1       28.628 -20.953   6.871  0.00  0.00    +0.030 A 
ENDROOT
BRANCH   1   8
ATOM      7  C   LIG    1       25.901 -20.420   5.419  0.00  0.00    +0.405 C 
ATOM      8  N   LIG    1       27.188 -20.179   5.038  0.00  0.00    -0.248 N 
ATOM      9  H   LIG    1       27.319 -19.934   4.068  0.00  0.00    +0.158 HD
ATOM     10  O   LIG    1       25.471 -20.484   6.566  0.00  0.00    -0.226 OA
BRANCH   7  11
ATOM     11  O   LIG    1       25.122 -20.585   4.315  0.00  0.00    -0.450 OA
BRANCH  11  13
ATOM     12  C   LIG    1       23.304 -19.010   3.984  0.00  0.00    +0.048 C 
ATOM     13  C   LIG    1       24.748 -19.371   3.657  0.00  0.00    +0.230 C 
ENDBRANCH  11  13
ENDBRANCH   7  11
ENDBRANCH   1   8
BRANCH   2  14
ATOM     14  N   LIG    1       28.858 -17.965   4.745  0.00  0.00    -0.342 N 
ATOM     15  H   LIG    1       29.727 -17.569   4.407  0.00  0.00    +0.144 HD
ATOM     16  H   LIG    1       28.287 -17.247   5.184  0.00  0.00    +0.144 HD
ENDBRANCH   2  14
BRANCH   4  17
ATOM     17  N   LIG    1       31.635 -19.345   8.269  0.00  0.00    -0.325 N 
ATOM     18  H   LIG    1       31.465 -19.728   9.196  0.00  0.00    +0.148 HD
BRANCH  17  19
ATOM     19  C   LIG    1       32.208 -18.007   8.262  0.00  0.00    +0.138 C 
BRANCH  19  20
ATOM     20  C   LIG    1       32.044 -17.358   9.611  0.00  0.00    -0.030 A 
ATOM     21  C   LIG    1       30.984 -17.713  10.464  0.00  0.00    +0.008 A 
ATOM     22  C   LIG    1       30.879 -17.134  11.727  0.00  0.00    +0.039 A 
ATOM     23  C   LIG    1       31.828 -16.205  12.132  0.00  0.00    +0.123 A 
ATOM     24  F   LIG    1       31.731 -15.650  13.347  0.00  0.00    -0.205 F 
ATOM     25  C   LIG    1       32.885 -15.846  11.303  0.00  0.00    +0.039 A 
ATOM     26  C   LIG    1       32.995 -16.424  10.042  0.00  0.00    +0.008 A 
ENDBRANCH  19  20
ENDBRANCH  17  19
ENDBRANCH   4  17
TORSDOF 7
ENDMDL
MODEL 4
REMARK VINA RESULT:      -8.6      3.093      3.877
REMARK  Name = *****
REMARK                            x       y       z     vdW  Elec       q    Type
REMARK                         _______ _______ _______ _____ _____    ______ ____
ROOT
ATOM      1  C   LIG    1       29.542 -19.009   7.527  0.00  0.00    +0.076 A 
ATOM      2  C   LIG    1       29.216 -18.997   6.162  0.00  0.00    +0.140 A 
ATOM      3  N   LIG    1       28.186 -19.693   5.628  0.00  0.00    -0.216 NA
ATOM      4  C   LIG    1       27.423 -20.427   6.468  0.00  0.00    +0.121 A 
ATOM      5  C   LIG    1       27.700 -20.499   7.826  0.00  0.00    +0.045 A 
ATOM      6  C   LIG    1       28.741 -19.763   8.368  0.00  0.00    +0.030 A 
ENDROOT
BRANCH   1   8
ATOM      7  C   LIG    1       31.686 -18.728   8.731  0.00  0.00    +0.405 C 
ATOM      8  N   LIG    1       30.647 -18.263   7.981  0.00  0.00    -0.248 N 
ATOM      9  H   LIG    1       30.765 -17.338   7.594  0.00  0.00    +0.158 HD
ATOM     10  O   LIG    1       31.880 -19.886   9.084  0.00  0.00    -0.226 OA
BRANCH   7  11
ATOM     11  O   LIG    1       32.518 -17.697   9.047  0.00  0.00    -0.450 OA
BRANCH  11  13
ATOM     12  C   LIG    1       31.400 -16.823  11.018  0.00  0.00    +0.048 C 
ATOM     13  C   LIG    1       31.865 -16.546   9.593  0.00  0.00    +0.230 C 
ENDBRANCH  11  13
ENDBRANCH   7  11
ENDBRANCH   1   8
BRANCH   2  14
ATOM     14  N   LIG    1       29.980 -18.218   5.273  0.00  0.00    -0.342 N 
ATOM     15  H   LIG    1       30.837 -17.925   5.729  0.00  0.00    +0.144 HD
ATOM     16  H   LIG    1       29.406 -17.410   5.044  0.00  0.00    +0.144 HD
ENDBRANCH   2  14
BRANCH   4  17
ATOM     17  N   LIG    1       26.349 -21.122   5.915  0.00  0.00    -0.325 N 
ATOM     18  H   LIG    1       26.099 -20.677   5.036  0.00  0.00    +0.148 HD
BRANCH  17  19
ATOM     19  C   LIG    1       25.219 -21.441   6.776  0.00  0.00    +0.138 C 
BRANCH  19  20
ATOM     20  C   LIG    1       24.894 -22.908   6.694  0.00  0.00    -0.030 A 
ATOM     21  C   LIG    1       23.562 -23.356   6.643  0.00  0.00    +0.008 A 
ATOM     22  C   LIG    1       23.285 -24.716   6.519  0.00  0.00    +0.039 A 
ATOM     23  C   LIG    1       24.335 -25.622   6.448  0.00  0.00    +0.123 A 
ATOM     24  F   LIG    1       24.072 -26.928   6.326  0.00  0.00    -0.205 F 
ATOM     25  C   LIG    1       25.658 -25.195   6.493  0.00  0.00    +0.039 A 
ATOM     26  C   LIG    1       25.939 -23.838   6.613  0.00  0.00    +0.008 A 
ENDBRANCH  19  20
ENDBRANCH  17  19
ENDBRANCH   4  17
TORSDOF 7
ENDMDL
MODEL 5
REMARK VINA RESULT:      -8.6      1.355      2.072
REMARK  Name = *****
REMARK                            x       y       z     vdW  Elec       q    Type
REMARK                         _______ _______ _______ _____ _____    ______ ____
ROOT
ATOM      1  C   LIG    1       29.570 -19.034   7.519  0.00  0.00    +0.076 A 
ATOM      2  C   LIG    1       29.139 -19.104   6.185  0.00  0.00    +0.140 A 
ATOM      3  N   LIG    1       28.231 -19.998   5.732  0.00  0.00    -0.216 NA
ATOM      4  C   LIG    1       27.701 -20.860   6.627  0.00  0.00    +0.121 A 
ATOM      5  C   LIG    1       28.095 -20.860   7.958  0.00  0.00    +0.045 A 
ATOM      6  C   LIG    1       29.006 -19.924   8.418  0.00  0.00    +0.030 A 
ENDROOT
BRANCH   1   8
ATOM      7  C   LIG    1       31.655 -18.298   8.630  0.00  0.00    +0.405 C 
ATOM      8  N   LIG    1       30.534 -18.076   7.886  0.00  0.00    -0.248 N 
ATOM      9  H   LIG    1       30.479 -17.175   7.435  0.00  0.00    +0.158 HD
ATOM     10  O   LIG    1       32.057 -19.376   9.053  0.00  0.00    -0.226 OA
BRANCH   7  11
ATOM     11  O   LIG    1       32.297 -17.117   8.850  0.00  0.00    -0.450 OA
BRANCH  11  13
ATOM     12  C   LIG    1       31.322 -16.475  10.979  0.00  0.00    +0.048 C 
ATOM     13  C   LIG    1       32.593 -16.843  10.223  0.00  0.00    +0.230 C 
ENDBRANCH  11  13
ENDBRANCH   7  11
ENDBRANCH   1   8
BRANCH   2  14
ATOM     14  N   LIG    1       29.658 -18.197   5.241  0.00  0.00    -0.342 N 
ATOM     15  H   LIG    1       29.122 -18.257   4.383  0.00  0.00    +0.144 HD
ATOM     16  H   LIG    1       30.621 -18.481   5.079  0.00  0.00    +0.144 HD
ENDBRANCH   2  14
BRANCH   4  17
ATOM     17  N   LIG    1       26.748 -21.764   6.160  0.00  0.00    -0.325 N 
ATOM     18  H   LIG    1       26.793 -21.777   5.143  0.00  0.00    +0.148 HD
BRANCH  17  19
ATOM     19  C   LIG    1       25.401 -21.688   6.706  0.00  0.00    +0.138 C 
BRANCH  19  20
ATOM     20  C   LIG    1       24.545 -20.778   5.867  0.00  0.00    -0.030 A 
ATOM     21  C   LIG    1       24.955 -20.371   4.585  0.00  0.00    +0.008 A 
ATOM     22  C   LIG    1       24.124 -19.567   3.807  0.00  0.00    +0.039 A 
ATOM     23  C   LIG    1       22.891 -19.172   4.311  0.00  0.00    +0.123 A 
ATOM     24  F   LIG    1       22.091 -18.402   3.564  0.00  0.00    -0.205 F 
ATOM     25  C   LIG    1       22.469 -19.569   5.575  0.00  0.00    +0.039 A 
ATOM     26  C   LIG    1       23.294 -20.374   6.354  0.00  0.00    +0.008 A 
ENDBRANCH  19  20
ENDBRANCH  17  19
ENDBRANCH   4  17
TORSDOF 7
ENDMDL
MODEL 6
REMARK VINA RESULT:      -8.5      1.640      2.179
REMARK  Name = *****
REMARK                            x       y       z     vdW  Elec       q    Type
REMARK                         _______ _______ _______ _____ _____    ______ ____
ROOT
ATOM      1  C   LIG    1       30.364 -19.226   7.490  0.00  0.00    +0.076 A 
ATOM      2  C   LIG    1       29.807 -20.514   7.521  0.00  0.00    +0.140 A 
ATOM      3  N   LIG    1       28.813 -20.924   6.700  0.00  0.00    -0.216 NA
ATOM      4  C   LIG    1       28.347 -20.041   5.790  0.00  0.00    +0.121 A 
ATOM      5  C   LIG    1       28.840 -18.746   5.717  0.00  0.00    +0.045 A 
ATOM      6  C   LIG    1       29.874 -18.342   6.544  0.00  0.00    +0.030 A 
ENDROOT
BRANCH   1   8
ATOM      7  C   LIG    1       31.222 -18.309   9.622  0.00  0.00    +0.405 C 
ATOM      8  N   LIG    1       31.384 -18.892   8.401  0.00  0.00    -0.248 N 
ATOM      9  H   LIG    1       32.308 -19.252   8.206  0.00  0.00    +0.158 HD
ATOM     10  O   LIG    1       30.161 -18.034  10.172  0.00  0.00    -0.226 OA
BRANCH   7  11
ATOM     11  O   LIG    1       32.441 -18.061  10.176  0.00  0.00    -0.450 OA
BRANCH  11  13
ATOM     12  C   LIG    1       32.676 -16.298  11.829  0.00  0.00    +0.048 C 
ATOM     13  C   LIG    1       32.749 -16.676  10.354  0.00  0.00    +0.230 C 
ENDBRANCH  11  13
ENDBRANCH   7  11
ENDBRANCH   1   8
BRANCH   2  14
ATOM     14  N   LIG    1       30.296 -21.460   8.442  0.00  0.00    -0.342 N 
ATOM     15  H   LIG    1       30.174 -21.109   9.385  0.00  0.00    +0.144 HD
ATOM     16  H   LIG    1       31.284 -21.572   8.230  0.00  0.00    +0.144 HD
ENDBRANCH   2  14
BRANCH   4  17
ATOM     17  N   LIG    1       27.340 -20.477   4.931  0.00  0.00    -0.325 N 
ATOM     18  H   LIG    1       27.711 -20.485   3.983  0.00  0.00    +0.148 HD
BRANCH  17  19
ATOM     19  C   LIG    1       26.019 -19.879   5.060  0.00  0.00    +0.138 C 
BRANCH  19  20
ATOM     20  C   LIG    1       25.030 -20.895   5.565  0.00  0.00    -0.030 A 
ATOM     21  C   LIG    1       25.459 -22.084   6.182  0.00  0.00    +0.008 A 
ATOM     22  C   LIG    1       24.525 -22.988   6.684  0.00  0.00    +0.039 A 
ATOM     23  C   LIG    1       23.171 -22.705   6.568  0.00  0.00    +0.123 A 
ATOM     24  F   LIG    1       22.273 -23.570   7.053  0.00  0.00    -0.205 F 
ATOM     25  C   LIG    1       22.730 -21.532   5.964  0.00  0.00    +0.039 A 
ATOM     26  C   LIG    1       23.659 -20.625   5.464  0.00  0.00    +0.008 A 
ENDBRANCH  19  20
ENDBRANCH  17  19
ENDBRANCH   4  17
TORSDOF 7
ENDMDL
MODEL 7
REMARK VINA RESULT:      -8.5      3.913      7.990
REMARK  Name = *****
REMARK                            x       y       z     vdW  Elec       q    Type
REMARK                         _______ _______ _______ _____ _____    ______ ____
ROOT
ATOM      1  C   LIG    1       26.400 -21.067   6.530  0.00  0.00    +0.076 A 
ATOM      2  C   LIG    1       27.270 -20.274   5.764  0.00  0.00    +0.140 A 
ATOM      3  N   LIG    1       28.566 -20.054   6.083  0.00  0.00    -0.216 NA
ATOM      4  C   LIG    1       29.047 -20.647   7.197  0.00  0.00    +0.121 A 
ATOM      5  C   LIG    1       28.238 -21.427   8.011  0.00  0.00    +0.045 A 
ATOM      6  C   LIG    1       26.919 -21.669   7.663  0.00  0.00    +0.030 A 
ENDROOT
BRANCH   1   8
ATOM      7  C   LIG    1       23.951 -20.975   6.872  0.00  0.00    +0.405 C 
ATOM      8  N   LIG    1       25.062 -21.219   6.120  0.00  0.00    -0.248 N 
ATOM      9  H   LIG    1       24.899 -21.378   5.137  0.00  0.00    +0.158 HD
ATOM     10  O   LIG    1       23.917 -20.515   8.008  0.00  0.00    -0.226 OA
BRANCH   7  11
ATOM     11  O   LIG    1       22.838 -21.319   6.167  0.00  0.00    -0.450 OA
BRANCH  11  13
ATOM     12  C   LIG    1       22.394 -19.278   4.929  0.00  0.00    +0.048 C 
ATOM     13  C   LIG    1       22.762 -20.755   4.854  0.00  0.00    +0.230 C 
ENDBRANCH  11  13
ENDBRANCH   7  11
ENDBRANCH   1   8
BRANCH   2  14
ATOM     14  N   LIG    1       26.797 -19.669   4.583  0.00  0.00    -0.342 N 
ATOM     15  H   LIG    1       26.752 -20.360   3.843  0.00  0.00    +0.144 HD
ATOM     16  H   LIG    1       27.471 -18.944   4.352  0.00  0.00    +0.144 HD
ENDBRANCH   2  14
BRANCH   4  17
ATOM     17  N   LIG    1       30.388 -20.435   7.508  0.00  0.00    -0.325 N 
ATOM     18  H   LIG    1       30.546 -20.742   8.465  0.00  0.00    +0.148 HD
BRANCH  17  19
ATOM     19  C   LIG    1       30.975 -19.143   7.182  0.00  0.00    +0.138 C 
BRANCH  19  20
ATOM     20  C   LIG    1       31.068 -18.283   8.413  0.00  0.00    -0.030 A 
ATOM     21  C   LIG    1       29.996 -18.191   9.319  0.00  0.00    +0.008 A 
ATOM     22  C   LIG    1       30.122 -17.427  10.478  0.00  0.00    +0.039 A 
ATOM     23  C   LIG    1       31.313 -16.757  10.726  0.00  0.00    +0.123 A 
ATOM     24  F   LIG    1       31.437 -16.024  11.839  0.00  0.00    -0.205 F 
ATOM     25  C   LIG    1       32.384 -16.839   9.842  0.00  0.00    +0.039 A 
ATOM     26  C   LIG    1       32.263 -17.605   8.686  0.00  0.00    +0.008 A 
ENDBRANCH  19  20
ENDBRANCH  17  19
ENDBRANCH   4  17
TORSDOF 7
ENDMDL
MODEL 8
REMARK VINA RESULT:      -8.5      6.312      8.799
REMARK  Name = *****
REMARK                            x       y       z     vdW  Elec       q    Type
REMARK                         _______ _______ _______ _____ _____    ______ ____
ROOT
ATOM      1  C   LIG    1       24.546 -26.404   6.003  0.00  0.00    +0.076 A 
ATOM      2  C   LIG    1       25.921 -26.138   5.895  0.00  0.00    +0.140 A 
ATOM      3  N   LIG    1       26.471 -24.921   6.110  0.00  0.00    -0.216 NA
ATOM      4  C   LIG    1       25.644 -23.912   6.463  0.00  0.00    +0.121 A 
ATOM      5  C   LIG    1       24.273 -24.101   6.569  0.00  0.00    +0.045 A 
ATOM      6  C   LIG    1       23.721 -25.355   6.373  0.00  0.00    +0.030 A 
ENDROOT
BRANCH   1   8
ATOM      7  C   LIG    1       24.272 -28.810   6.511  0.00  0.00    +0.405 C 
ATOM      8  N   LIG    1       24.071 -27.703   5.741  0.00  0.00    -0.248 N 
ATOM      9  H   LIG    1       23.394 -27.802   4.999  0.00  0.00    +0.158 HD
ATOM     10  O   LIG    1       24.839 -28.859   7.597  0.00  0.00    -0.226 OA
BRANCH   7  11
ATOM     11  O   LIG    1       23.736 -29.899   5.894  0.00  0.00    -0.450 OA
BRANCH  11  13
ATOM     12  C   LIG    1       25.613 -31.247   5.148  0.00  0.00    +0.048 C 
ATOM     13  C   LIG    1       24.442 -31.123   6.117  0.00  0.00    +0.230 C 
ENDBRANCH  11  13
ENDBRANCH   7  11
ENDBRANCH   1   8
BRANCH   2  14
ATOM     14  N   LIG    1       26.804 -27.180   5.556  0.00  0.00    -0.342 N 
ATOM     15  H   LIG    1       27.239 -27.543   6.396  0.00  0.00    +0.144 HD
ATOM     16  H   LIG    1       27.504 -26.766   4.945  0.00  0.00    +0.144 HD
ENDBRANCH   2  14
BRANCH   4  17
ATOM     17  N   LIG    1       26.220 -22.667   6.706  0.00  0.00    -0.325 N 
ATOM     18  H   LIG    1       27.116 -22.814   7.165  0.00  0.00    +0.148 HD
BRANCH  17  19
ATOM     19  C   LIG    1       25.393 -21.632   7.310  0.00  0.00    +0.138 C 
BRANCH  19  20
ATOM     20  C   LIG    1       24.706 -20.820   6.244  0.00  0.00    -0.030 A 
ATOM     21  C   LIG    1       25.385 -20.434   5.074  0.00  0.00    +0.008 A 
ATOM     22  C   LIG    1       24.716 -19.724   4.079  0.00  0.00    +0.039 A 
ATOM     23  C   LIG    1       23.376 -19.401   4.255  0.00  0.00    +0.123 A 
ATOM     24  F   LIG    1       22.731 -18.722   3.299  0.00  0.00    -0.205 F 
ATOM     25  C   LIG    1       22.690 -19.779   5.404  0.00  0.00    +0.039 A 
ATOM     26  C   LIG    1       23.353 -20.491   6.398  0.00  0.00    +0.008 A 
ENDBRANCH  19  20
ENDBRANCH  17  19
ENDBRANCH   4  17
TORSDOF 7
ENDMDL
MODEL 9
REMARK VINA RESULT:      -8.2      7.149      9.313
REMARK  Name = *****
REMARK                            x       y       z     vdW  Elec       q    Type
REMARK                         _______ _______ _______ _____ _____    ______ ____
ROOT
ATOM      1  C   LIG    1       25.441 -27.870   6.572  0.00  0.00    +0.076 A 
ATOM      2  C   LIG    1       24.439 -27.600   5.626  0.00  0.00    +0.140 A 
ATOM      3  N   LIG    1       24.123 -26.356   5.197  0.00  0.00    -0.216 NA
ATOM      4  C   LIG    1       24.828 -25.321   5.704  0.00  0.00    +0.121 A 
ATOM      5  C   LIG    1       25.819 -25.514   6.657  0.00  0.00    +0.045 A 
ATOM      6  C   LIG    1       26.153 -26.792   7.070  0.00  0.00    +0.030 A 
ENDROOT
BRANCH   1   8
ATOM      7  C   LIG    1       24.871 -29.974   7.742  0.00  0.00    +0.405 C 
ATOM      8  N   LIG    1       25.680 -29.200   6.965  0.00  0.00    -0.248 N 
ATOM      9  H   LIG    1       26.443 -29.681   6.511  0.00  0.00    +0.158 HD
ATOM     10  O   LIG    1       23.764 -29.677   8.178  0.00  0.00    -0.226 OA
BRANCH   7  11
ATOM     11  O   LIG    1       25.475 -31.171   7.979  0.00  0.00    -0.450 OA
BRANCH  11  13
ATOM     12  C   LIG    1       27.159 -32.522   6.868  0.00  0.00    +0.048 C 
ATOM     13  C   LIG    1       25.749 -31.947   6.809  0.00  0.00    +0.230 C 
ENDBRANCH  11  13
ENDBRANCH   7  11
ENDBRANCH   1   8
BRANCH   2  14
ATOM     14  N   LIG    1       23.711 -28.666   5.064  0.00  0.00    -0.342 N 
ATOM     15  H   LIG    1       22.747 -28.617   5.371  0.00  0.00    +0.144 HD
ATOM     16  H   LIG    1       24.150 -29.517   5.407  0.00  0.00    +0.144 HD
ENDBRANCH   2  14
BRANCH   4  17
ATOM     17  N   LIG    1       24.514 -24.045   5.241  0.00  0.00    -0.325 N 
ATOM     18  H   LIG    1       24.771 -23.990   4.258  0.00  0.00    +0.148 HD
BRANCH  17  19
ATOM     19  C   LIG    1       24.929 -22.901   6.041  0.00  0.00    +0.138 C 
BRANCH  19  20
ATOM     20  C   LIG    1       24.289 -21.640   5.525  0.00  0.00    -0.030 A 
ATOM     21  C   LIG    1       24.634 -21.111   4.268  0.00  0.00    +0.008 A 
ATOM     22  C   LIG    1       23.993 -19.969   3.790  0.00  0.00    +0.039 A 
ATOM     23  C   LIG    1       23.016 -19.360   4.567  0.00  0.00    +0.123 A 
ATOM     24  F   LIG    1       22.398 -18.265   4.108  0.00  0.00    -0.205 F 
ATOM     25  C   LIG    1       22.661 -19.872   5.810  0.00  0.00    +0.039 A 
ATOM     26  C   LIG    1       23.296 -21.014   6.289  0.00  0.00    +0.008 A 
ENDBRANCH  19  20
ENDBRANCH  17  19
ENDBRANCH   4  17
TORSDOF 7
ENDMDL
