MODEL 1
REMARK VINA RESULT:      -9.0      0.000      0.000
REMARK  Name = *****
REMARK                            x       y       z     vdW  Elec       q    Type
REMARK                         _______ _______ _______ _____ _____    ______ ____
ROOT
ATOM      1  C   LIG    1       28.825 -20.536   6.807  0.00  0.00    +0.080 C 
ATOM      2  C   LIG    1       27.898 -19.988   5.707  0.00  0.00    +0.170 C 
ATOM      3  O   LIG    1       28.308 -19.203   4.862  0.00  0.00    -0.292 OA
ATOM      4  C   LIG    1       26.492 -20.366   5.827  0.00  0.00    +0.046 C 
ATOM      5  C   LIG    1       25.330 -19.914   5.141  0.00  0.00    +0.011 C 
ATOM      6  C   LIG    1       24.225 -20.527   5.748  0.00  0.00    +0.050 C 
ATOM      7  N   LIG    1       24.713 -21.356   6.742  0.00  0.00    -0.346 NA
ATOM      8  C   LIG    1       23.918 -22.122   7.677  0.00  0.00    +0.149 C 
ATOM      9  C   LIG    1       22.910 -20.253   5.334  0.00  0.00    +0.026 C 
ATOM     10  C   LIG    1       22.719 -19.363   4.273  0.00  0.00    +0.002 C 
ATOM     11  C   LIG    1       23.802 -18.760   3.643  0.00  0.00    +0.001 C 
ATOM     12  C   LIG    1       25.107 -19.018   4.073  0.00  0.00    +0.010 C 
ATOM     13  C   LIG    1       26.086 -21.321   6.740  0.00  0.00    +0.030 C 
ATOM     14  C   LIG    1       26.978 -22.141   7.611  0.00  0.00    +0.055 C 
ATOM     15  C   LIG    1       28.432 -21.996   7.125  0.00  0.00    +0.019 C 
ENDROOT
BRANCH   1  16
ATOM     16  C   LIG    1       28.729 -19.568   7.999  0.00  0.00    +0.134 C 
BRANCH  16  19
ATOM     17  C   LIG    1       31.233 -21.231   8.974  0.00  0.00    +0.086 C 
ATOM     18  C   LIG    1       31.070 -19.756   9.001  0.00  0.00    +0.106 A 
ATOM     19  N   LIG    1       29.992 -19.054   8.500  0.00  0.00    -0.334 N 
ATOM     20  C   LIG    1       30.215 -17.725   8.765  0.00  0.00    +0.107 A 
ATOM     21  C   LIG    1       31.421 -17.678   9.418  0.00  0.00    +0.130 A 
ATOM     22  N   LIG    1       31.949 -18.932   9.537  0.00  0.00    -0.241 NA
ENDBRANCH  16  19
ENDBRANCH   1  16
TORSDOF 2
ENDMDL
MODEL 2
REMARK VINA RESULT:      -8.3      3.853      6.615
REMARK  Name = *****
REMARK                            x       y       z     vdW  Elec       q    Type
REMARK                         _______ _______ _______ _____ _____    ______ ____
ROOT
ATOM      1  C   LIG    1       24.859 -24.411   7.004  0.00  0.00    +0.080 C 
ATOM      2  C   LIG    1       23.744 -23.438   6.582  0.00  0.00    +0.170 C 
ATOM      3  O   LIG    1       22.569 -23.783   6.571  0.00  0.00    -0.292 OA
ATOM      4  C   LIG    1       24.198 -22.144   6.079  0.00  0.00    +0.046 C 
ATOM      5  C   LIG    1       23.502 -21.086   5.430  0.00  0.00    +0.011 C 
ATOM      6  C   LIG    1       24.459 -20.133   5.051  0.00  0.00    +0.050 C 
ATOM      7  N   LIG    1       25.686 -20.586   5.499  0.00  0.00    -0.346 NA
ATOM      8  C   LIG    1       26.965 -19.955   5.256  0.00  0.00    +0.149 C 
ATOM      9  C   LIG    1       24.102 -18.974   4.339  0.00  0.00    +0.026 C 
ATOM     10  C   LIG    1       22.755 -18.771   4.030  0.00  0.00    +0.002 C 
ATOM     11  C   LIG    1       21.787 -19.694   4.413  0.00  0.00    +0.001 C 
ATOM     12  C   LIG    1       22.149 -20.856   5.102  0.00  0.00    +0.010 C 
ATOM     13  C   LIG    1       25.522 -21.762   6.188  0.00  0.00    +0.030 C 
ATOM     14  C   LIG    1       26.600 -22.516   6.891  0.00  0.00    +0.055 C 
ATOM     15  C   LIG    1       25.965 -23.628   7.747  0.00  0.00    +0.019 C 
ENDROOT
BRANCH   1  16
ATOM     16  C   LIG    1       25.328 -25.137   5.732  0.00  0.00    +0.134 C 
BRANCH  16  19
ATOM     17  C   LIG    1       27.461 -27.230   4.706  0.00  0.00    +0.086 C 
ATOM     18  C   LIG    1       26.111 -27.519   5.250  0.00  0.00    +0.106 A 
ATOM     19  N   LIG    1       25.229 -26.587   5.757  0.00  0.00    -0.334 N 
ATOM     20  C   LIG    1       24.085 -27.260   6.110  0.00  0.00    +0.107 A 
ATOM     21  C   LIG    1       24.323 -28.575   5.799  0.00  0.00    +0.130 A 
ATOM     22  N   LIG    1       25.581 -28.726   5.291  0.00  0.00    -0.241 NA
ENDBRANCH  16  19
ENDBRANCH   1  16
TORSDOF 2
ENDMDL
MODEL 3
REMARK VINA RESULT:      -7.9      1.551      2.455
REMARK  Name = *****
REMARK                            x       y       z     vdW  Elec       q    Type
REMARK                         _______ _______ _______ _____ _____    ______ ____
ROOT
ATOM      1  C   LIG    1       30.679 -19.270   7.502  0.00  0.00    +0.080 C 
ATOM      2  C   LIG    1       29.700 -19.133   6.322  0.00  0.00    +0.170 C 
ATOM      3  O   LIG    1       29.902 -18.334   5.417  0.00  0.00    -0.292 OA
ATOM      4  C   LIG    1       28.472 -19.917   6.433  0.00  0.00    +0.046 C 
ATOM      5  C   LIG    1       27.273 -19.907   5.667  0.00  0.00    +0.011 C 
ATOM      6  C   LIG    1       26.373 -20.779   6.296  0.00  0.00    +0.050 C 
ATOM      7  N   LIG    1       27.028 -21.327   7.383  0.00  0.00    -0.346 NA
ATOM      8  C   LIG    1       26.447 -22.220   8.363  0.00  0.00    +0.149 C 
ATOM      9  C   LIG    1       25.065 -20.962   5.812  0.00  0.00    +0.026 C 
ATOM     10  C   LIG    1       24.678 -20.270   4.662  0.00  0.00    +0.002 C 
ATOM     11  C   LIG    1       25.562 -19.416   4.011  0.00  0.00    +0.001 C 
ATOM     12  C   LIG    1       26.854 -19.220   4.507  0.00  0.00    +0.010 C 
ATOM     13  C   LIG    1       28.321 -20.869   7.424  0.00  0.00    +0.030 C 
ATOM     14  C   LIG    1       29.364 -21.294   8.402  0.00  0.00    +0.055 C 
ATOM     15  C   LIG    1       30.732 -20.747   7.952  0.00  0.00    +0.019 C 
ENDROOT
BRANCH   1  16
ATOM     16  C   LIG    1       30.218 -18.282   8.587  0.00  0.00    +0.134 C 
BRANCH  16  19
ATOM     17  C   LIG    1       30.474 -17.739  11.689  0.00  0.00    +0.086 C 
ATOM     18  C   LIG    1       31.370 -17.243  10.615  0.00  0.00    +0.106 A 
ATOM     19  N   LIG    1       31.273 -17.558   9.274  0.00  0.00    -0.334 N 
ATOM     20  C   LIG    1       32.260 -16.860   8.621  0.00  0.00    +0.107 A 
ATOM     21  C   LIG    1       32.913 -16.149   9.596  0.00  0.00    +0.130 A 
ATOM     22  N   LIG    1       32.371 -16.411  10.822  0.00  0.00    -0.241 NA
ENDBRANCH  16  19
ENDBRANCH   1  16
TORSDOF 2
ENDMDL
MODEL 4
REMARK VINA RESULT:      -7.7      3.375      6.186
REMARK  Name = *****
REMARK                            x       y       z     vdW  Elec       q    Type
REMARK                         _______ _______ _______ _____ _____    ______ ____
ROOT
ATOM      1  C   LIG    1       25.337 -23.714   7.594  0.00  0.00    +0.080 C 
ATOM      2  C   LIG    1       24.399 -22.803   6.781  0.00  0.00    +0.170 C 
ATOM      3  O   LIG    1       23.231 -23.109   6.580  0.00  0.00    -0.292 OA
ATOM      4  C   LIG    1       25.033 -21.637   6.170  0.00  0.00    +0.046 C 
ATOM      5  C   LIG    1       24.558 -20.696   5.214  0.00  0.00    +0.011 C 
ATOM      6  C   LIG    1       25.634 -19.857   4.889  0.00  0.00    +0.050 C 
ATOM      7  N   LIG    1       26.711 -20.257   5.659  0.00  0.00    -0.346 NA
ATOM      8  C   LIG    1       28.052 -19.718   5.590  0.00  0.00    +0.149 C 
ATOM      9  C   LIG    1       25.509 -18.839   3.927  0.00  0.00    +0.026 C 
ATOM     10  C   LIG    1       24.270 -18.657   3.307  0.00  0.00    +0.002 C 
ATOM     11  C   LIG    1       23.185 -19.465   3.630  0.00  0.00    +0.001 C 
ATOM     12  C   LIG    1       23.319 -20.491   4.571  0.00  0.00    +0.010 C 
ATOM     13  C   LIG    1       26.330 -21.280   6.491  0.00  0.00    +0.030 C 
ATOM     14  C   LIG    1       27.188 -21.924   7.528  0.00  0.00    +0.055 C 
ATOM     15  C   LIG    1       26.317 -22.840   8.408  0.00  0.00    +0.019 C 
ENDROOT
BRANCH   1  16
ATOM     16  C   LIG    1       26.006 -24.675   6.596  0.00  0.00    +0.134 C 
BRANCH  16  19
ATOM     17  C   LIG    1       26.544 -27.387   8.127  0.00  0.00    +0.086 C 
ATOM     18  C   LIG    1       25.603 -27.164   7.001  0.00  0.00    +0.106 A 
ATOM     19  N   LIG    1       25.337 -25.950   6.400  0.00  0.00    -0.334 N 
ATOM     20  C   LIG    1       24.449 -26.189   5.380  0.00  0.00    +0.107 A 
ATOM     21  C   LIG    1       24.216 -27.540   5.405  0.00  0.00    +0.130 A 
ATOM     22  N   LIG    1       24.913 -28.127   6.421  0.00  0.00    -0.241 NA
ENDBRANCH  16  19
ENDBRANCH   1  16
TORSDOF 2
ENDMDL
MODEL 5
REMARK VINA RESULT:      -6.6      8.619     11.352
REMARK  Name = *****
REMARK                            x       y       z     vdW  Elec       q    Type
REMARK                         _______ _______ _______ _____ _____    ______ ____
ROOT
ATOM      1  C   LIG    1       26.052 -30.134   9.986  0.00  0.00    +0.080 C 
ATOM      2  C   LIG    1       24.829 -29.903  10.891  0.00  0.00    +0.170 C 
ATOM      3  O   LIG    1       23.799 -30.549  10.747  0.00  0.00    -0.292 OA
ATOM      4  C   LIG    1       24.943 -28.786  11.827  0.00  0.00    +0.046 C 
ATOM      5  C   LIG    1       23.982 -28.153  12.663  0.00  0.00    +0.011 C 
ATOM      6  C   LIG    1       24.613 -27.049  13.256  0.00  0.00    +0.050 C 
ATOM      7  N   LIG    1       25.926 -27.046  12.820  0.00  0.00    -0.346 NA
ATOM      8  C   LIG    1       26.918 -26.037  13.119  0.00  0.00    +0.149 C 
ATOM      9  C   LIG    1       23.919 -26.176  14.112  0.00  0.00    +0.026 C 
ATOM     10  C   LIG    1       22.575 -26.442  14.386  0.00  0.00    +0.002 C 
ATOM     11  C   LIG    1       21.935 -27.542  13.825  0.00  0.00    +0.001 C 
ATOM     12  C   LIG    1       22.623 -28.396  12.958  0.00  0.00    +0.010 C 
ATOM     13  C   LIG    1       26.149 -28.138  12.019  0.00  0.00    +0.030 C 
ATOM     14  C   LIG    1       27.461 -28.526  11.423  0.00  0.00    +0.055 C 
ATOM     15  C   LIG    1       27.342 -29.935  10.812  0.00  0.00    +0.019 C 
ENDROOT
BRANCH   1  16
ATOM     16  C   LIG    1       25.905 -29.188   8.782  0.00  0.00    +0.134 C 
BRANCH  16  19
ATOM     17  C   LIG    1       24.515 -27.579   6.444  0.00  0.00    +0.086 C 
ATOM     18  C   LIG    1       24.517 -29.049   6.643  0.00  0.00    +0.106 A 
ATOM     19  N   LIG    1       25.195 -29.729   7.635  0.00  0.00    -0.334 N 
ATOM     20  C   LIG    1       24.896 -31.061   7.490  0.00  0.00    +0.107 A 
ATOM     21  C   LIG    1       24.047 -31.133   6.415  0.00  0.00    +0.130 A 
ATOM     22  N   LIG    1       23.839 -29.891   5.887  0.00  0.00    -0.241 NA
ENDBRANCH  16  19
ENDBRANCH   1  16
TORSDOF 2
ENDMDL
MODEL 6
REMARK VINA RESULT:      -6.5      2.835      4.340
REMARK  Name = *****
REMARK                            x       y       z     vdW  Elec       q    Type
REMARK                         _______ _______ _______ _____ _____    ______ ____
ROOT
ATOM      1  C   LIG    1       26.885 -20.749   7.640  0.00  0.00    +0.080 C 
ATOM      2  C   LIG    1       26.596 -22.242   7.883  0.00  0.00    +0.170 C 
ATOM      3  O   LIG    1       27.076 -22.836   8.839  0.00  0.00    -0.292 OA
ATOM      4  C   LIG    1       25.831 -22.911   6.832  0.00  0.00    +0.046 C 
ATOM      5  C   LIG    1       25.543 -24.285   6.604  0.00  0.00    +0.011 C 
ATOM      6  C   LIG    1       24.875 -24.369   5.373  0.00  0.00    +0.050 C 
ATOM      7  N   LIG    1       24.730 -23.078   4.899  0.00  0.00    -0.346 NA
ATOM      8  C   LIG    1       24.168 -22.701   3.620  0.00  0.00    +0.149 C 
ATOM      9  C   LIG    1       24.488 -25.606   4.828  0.00  0.00    +0.026 C 
ATOM     10  C   LIG    1       24.762 -26.768   5.554  0.00  0.00    +0.002 C 
ATOM     11  C   LIG    1       25.405 -26.706   6.785  0.00  0.00    +0.001 C 
ATOM     12  C   LIG    1       25.808 -25.476   7.314  0.00  0.00    +0.010 C 
ATOM     13  C   LIG    1       25.236 -22.189   5.814  0.00  0.00    +0.030 C 
ATOM     14  C   LIG    1       25.191 -20.702   5.700  0.00  0.00    +0.055 C 
ATOM     15  C   LIG    1       25.630 -20.079   7.038  0.00  0.00    +0.019 C 
ENDROOT
BRANCH   1  16
ATOM     16  C   LIG    1       28.143 -20.672   6.759  0.00  0.00    +0.134 C 
BRANCH  16  19
ATOM     17  C   LIG    1       29.311 -18.104   5.336  0.00  0.00    +0.086 C 
ATOM     18  C   LIG    1       29.777 -18.716   6.605  0.00  0.00    +0.106 A 
ATOM     19  N   LIG    1       29.199 -19.797   7.239  0.00  0.00    -0.334 N 
ATOM     20  C   LIG    1       29.960 -20.069   8.350  0.00  0.00    +0.107 A 
ATOM     21  C   LIG    1       30.969 -19.141   8.340  0.00  0.00    +0.130 A 
ATOM     22  N   LIG    1       30.833 -18.298   7.274  0.00  0.00    -0.241 NA
ENDBRANCH  16  19
ENDBRANCH   1  16
TORSDOF 2
ENDMDL
MODEL 7
REMARK VINA RESULT:      -6.4      2.707      4.427
REMARK  Name = *****
REMARK                            x       y       z     vdW  Elec       q    Type
REMARK                         _______ _______ _______ _____ _____    ______ ____
ROOT
ATOM      1  C   LIG    1       26.878 -20.688   7.966  0.00  0.00    +0.080 C 
ATOM      2  C   LIG    1       26.978 -22.216   7.809  0.00  0.00    +0.170 C 
ATOM      3  O   LIG    1       28.034 -22.807   7.992  0.00  0.00    -0.292 OA
ATOM      4  C   LIG    1       25.775 -22.875   7.305  0.00  0.00    +0.046 C 
ATOM      5  C   LIG    1       25.545 -24.204   6.853  0.00  0.00    +0.011 C 
ATOM      6  C   LIG    1       24.232 -24.252   6.360  0.00  0.00    +0.050 C 
ATOM      7  N   LIG    1       23.678 -23.000   6.551  0.00  0.00    -0.346 NA
ATOM      8  C   LIG    1       22.365 -22.576   6.115  0.00  0.00    +0.149 C 
ATOM      9  C   LIG    1       23.702 -25.424   5.791  0.00  0.00    +0.026 C 
ATOM     10  C   LIG    1       24.507 -26.564   5.744  0.00  0.00    +0.002 C 
ATOM     11  C   LIG    1       25.805 -26.544   6.244  0.00  0.00    +0.001 C 
ATOM     12  C   LIG    1       26.336 -25.371   6.790  0.00  0.00    +0.010 C 
ATOM     13  C   LIG    1       24.580 -22.188   7.192  0.00  0.00    +0.030 C 
ATOM     14  C   LIG    1       24.324 -20.789   7.644  0.00  0.00    +0.055 C 
ATOM     15  C   LIG    1       25.489 -20.325   8.537  0.00  0.00    +0.019 C 
ENDROOT
BRANCH   1  16
ATOM     16  C   LIG    1       27.190 -20.074   6.591  0.00  0.00    +0.134 C 
BRANCH  16  19
ATOM     17  C   LIG    1       28.067 -17.821   4.555  0.00  0.00    +0.086 C 
ATOM     18  C   LIG    1       28.931 -18.540   5.524  0.00  0.00    +0.106 A 
ATOM     19  N   LIG    1       28.504 -19.469   6.451  0.00  0.00    -0.334 N 
ATOM     20  C   LIG    1       29.619 -19.922   7.114  0.00  0.00    +0.107 A 
ATOM     21  C   LIG    1       30.676 -19.248   6.558  0.00  0.00    +0.130 A 
ATOM     22  N   LIG    1       30.238 -18.383   5.596  0.00  0.00    -0.241 NA
ENDBRANCH  16  19
ENDBRANCH   1  16
TORSDOF 2
ENDMDL
MODEL 8
REMARK VINA RESULT:      -6.2      9.632     11.756
REMARK  Name = *****
REMARK                            x       y       z     vdW  Elec       q    Type
REMARK                         _______ _______ _______ _____ _____    ______ ____
ROOT
ATOM      1  C   LIG    1       24.786 -30.742   9.955  0.00  0.00    +0.080 C 
ATOM      2  C   LIG    1       23.496 -30.312  10.677  0.00  0.00    +0.170 C 
ATOM      3  O   LIG    1       22.401 -30.734  10.330  0.00  0.00    -0.292 OA
ATOM      4  C   LIG    1       23.664 -29.281  11.699  0.00  0.00    +0.046 C 
ATOM      5  C   LIG    1       22.716 -28.506  12.423  0.00  0.00    +0.011 C 
ATOM      6  C   LIG    1       23.438 -27.576  13.185  0.00  0.00    +0.050 C 
ATOM      7  N   LIG    1       24.781 -27.814  12.956  0.00  0.00    -0.346 NA
ATOM      8  C   LIG    1       25.883 -27.035  13.477  0.00  0.00    +0.149 C 
ATOM      9  C   LIG    1       22.790 -26.619  13.987  0.00  0.00    +0.026 C 
ATOM     10  C   LIG    1       21.393 -26.625  14.032  0.00  0.00    +0.002 C 
ATOM     11  C   LIG    1       20.659 -27.552  13.300  0.00  0.00    +0.001 C 
ATOM     12  C   LIG    1       21.306 -28.488  12.488  0.00  0.00    +0.010 C 
ATOM     13  C   LIG    1       24.923 -28.894  12.121  0.00  0.00    +0.030 C 
ATOM     14  C   LIG    1       26.217 -29.508  11.705  0.00  0.00    +0.055 C 
ATOM     15  C   LIG    1       25.936 -30.838  10.981  0.00  0.00    +0.019 C 
ENDROOT
BRANCH   1  16
ATOM     16  C   LIG    1       25.020 -29.736   8.815  0.00  0.00    +0.134 C 
BRANCH  16  19
ATOM     17  C   LIG    1       24.331 -28.574   5.959  0.00  0.00    +0.086 C 
ATOM     18  C   LIG    1       25.001 -29.862   6.265  0.00  0.00    +0.106 A 
ATOM     19  N   LIG    1       25.353 -30.310   7.523  0.00  0.00    -0.334 N 
ATOM     20  C   LIG    1       25.906 -31.557   7.369  0.00  0.00    +0.107 A 
ATOM     21  C   LIG    1       25.863 -31.815   6.023  0.00  0.00    +0.130 A 
ATOM     22  N   LIG    1       25.325 -30.755   5.350  0.00  0.00    -0.241 NA
ENDBRANCH  16  19
ENDBRANCH   1  16
TORSDOF 2
ENDMDL
MODEL 9
REMARK VINA RESULT:      -6.2      8.217     10.347
REMARK  Name = *****
REMARK                            x       y       z     vdW  Elec       q    Type
REMARK                         _______ _______ _______ _____ _____    ______ ____
ROOT
ATOM      1  C   LIG    1       26.012 -30.169  10.794  0.00  0.00    +0.080 C 
ATOM      2  C   LIG    1       26.283 -28.983   9.851  0.00  0.00    +0.170 C 
ATOM      3  O   LIG    1       26.812 -27.956  10.255  0.00  0.00    -0.292 OA
ATOM      4  C   LIG    1       25.750 -29.124   8.497  0.00  0.00    +0.046 C 
ATOM      5  C   LIG    1       25.627 -28.193   7.429  0.00  0.00    +0.011 C 
ATOM      6  C   LIG    1       24.925 -28.835   6.399  0.00  0.00    +0.050 C 
ATOM      7  N   LIG    1       24.672 -30.128   6.821  0.00  0.00    -0.346 NA
ATOM      8  C   LIG    1       23.899 -31.120   6.105  0.00  0.00    +0.149 C 
ATOM      9  C   LIG    1       24.592 -28.168   5.207  0.00  0.00    +0.026 C 
ATOM     10  C   LIG    1       24.999 -26.840   5.052  0.00  0.00    +0.002 C 
ATOM     11  C   LIG    1       25.714 -26.191   6.053  0.00  0.00    +0.001 C 
ATOM     12  C   LIG    1       26.024 -26.851   7.245  0.00  0.00    +0.010 C 
ATOM     13  C   LIG    1       25.237 -30.330   8.056  0.00  0.00    +0.030 C 
ATOM     14  C   LIG    1       25.249 -31.619   8.806  0.00  0.00    +0.055 C 
ATOM     15  C   LIG    1       26.194 -31.491  10.016  0.00  0.00    +0.019 C 
ENDROOT
BRANCH   1  16
ATOM     16  C   LIG    1       24.610 -29.959  11.389  0.00  0.00    +0.134 C 
BRANCH  16  19
ATOM     17  C   LIG    1       22.164 -28.387  12.625  0.00  0.00    +0.086 C 
ATOM     18  C   LIG    1       23.532 -28.503  13.188  0.00  0.00    +0.106 A 
ATOM     19  N   LIG    1       24.560 -29.258  12.661  0.00  0.00    -0.334 N 
ATOM     20  C   LIG    1       25.661 -29.054  13.455  0.00  0.00    +0.107 A 
ATOM     21  C   LIG    1       25.253 -28.181  14.432  0.00  0.00    +0.130 A 
ATOM     22  N   LIG    1       23.934 -27.867  14.271  0.00  0.00    -0.241 NA
ENDBRANCH  16  19
ENDBRANCH   1  16
TORSDOF 2
ENDMDL
