MODEL 1
REMARK VINA RESULT:      -5.6      0.000      0.000
REMARK  Name = *****
REMARK                            x       y       z     vdW  Elec       q    Type
REMARK                         _______ _______ _______ _____ _____    ______ ____
ROOT
ATOM      1  C   LIG    1       24.304 -30.885  10.589  0.00  0.00    +0.165 C 
ATOM      2  C   LIG    1       22.814 -31.057  11.044  0.00  0.00    +0.012 C 
ATOM      3  C   LIG    1       22.930 -31.766  12.426  0.00  0.00    +0.004 C 
ATOM      4  C   LIG    1       22.903 -30.849  13.665  0.00  0.00    -0.000 C 
ATOM      5  C   LIG    1       21.758 -29.817  13.609  0.00  0.00    +0.035 C 
ATOM      6  C   LIG    1       21.955 -28.942  12.354  0.00  0.00    +0.120 C 
ATOM      7  C   LIG    1       20.300 -30.379  13.883  0.00  0.00    +0.013 C 
ATOM      8  C   LIG    1       20.298 -31.416  15.039  0.00  0.00    -0.056 C 
ATOM      9  C   LIG    1       19.119 -32.007  15.356  0.00  0.00    +0.051 C 
ATOM     10  C   LIG    1       18.611 -32.784  14.163  0.00  0.00    +0.179 C 
ATOM     11  C   LIG    1       18.843 -32.164  12.827  0.00  0.00    +0.047 C 
ATOM     12  O   LIG    1       17.957 -33.809  14.290  0.00  0.00    -0.288 OA
ATOM     13  C   LIG    1       21.508 -32.319  15.188  0.00  0.00    +0.032 C 
ATOM     14  C   LIG    1       19.414 -29.163  14.277  0.00  0.00    +0.020 C 
ATOM     15  C   LIG    1       19.583 -31.045  12.710  0.00  0.00    -0.012 C 
ATOM     16  C   LIG    1       22.831 -31.601  15.000  0.00  0.00    +0.008 C 
ATOM     17  C   LIG    1       24.211 -32.630  12.317  0.00  0.00    +0.039 C 
ATOM     18  C   LIG    1       22.019 -32.042  10.134  0.00  0.00    +0.015 C 
ATOM     19  C   LIG    1       22.067 -29.702  11.033  0.00  0.00    +0.042 C 
ATOM     20  C   LIG    1       25.008 -32.132  11.099  0.00  0.00    +0.162 C 
ATOM     21  O   LIG    1       26.300 -31.670  11.493  0.00  0.00    -0.344 OA
ATOM     22  C   LIG    1       26.079 -30.350  11.982  0.00  0.00    +0.255 C 
ATOM     23  O   LIG    1       24.943 -29.802  11.296  0.00  0.00    -0.334 OA
ENDROOT
BRANCH  22  24
ATOM     24  C   LIG    1       27.344 -29.486  11.833  0.00  0.00    +0.045 C 
ATOM     25  C   LIG    1       27.039 -28.047  11.378  0.00  0.00    +0.008 C 
ATOM     26  C   LIG    1       26.374 -27.199  12.463  0.00  0.00    +0.000 C 
ATOM     27  C   LIG    1       27.157 -27.218  13.774  0.00  0.00    +0.000 C 
ATOM     28  C   LIG    1       27.473 -28.635  14.240  0.00  0.00    +0.000 C 
ATOM     29  C   LIG    1       28.158 -29.451  13.143  0.00  0.00    +0.008 C 
ENDBRANCH  22  24
BRANCH   1  30
ATOM     30  C   LIG    1       24.457 -30.723   9.054  0.00  0.00    +0.205 C 
ATOM     31  O   LIG    1       24.748 -31.676   8.321  0.00  0.00    -0.291 OA
BRANCH  30  32
ATOM     32  C   LIG    1       24.263 -29.329   8.457  0.00  0.00    +0.309 C 
BRANCH  32  33
ATOM     33  O   LIG    1       25.227 -29.053   7.434  0.00  0.00    -0.457 OA
BRANCH  33  34
ATOM     34  C   LIG    1       24.714 -28.455   6.315  0.00  0.00    +0.310 C 
ATOM     35  O   LIG    1       23.960 -28.987   5.521  0.00  0.00    -0.251 OA
BRANCH  34  37
ATOM     36  C   LIG    1       26.136 -27.042   4.870  0.00  0.00    +0.019 C 
ATOM     37  C   LIG    1       25.316 -27.071   6.157  0.00  0.00    +0.092 C 
ATOM     38  C   LIG    1       24.226 -26.004   6.146  0.00  0.00    +0.019 C 
ENDBRANCH  34  37
ENDBRANCH  33  34
ENDBRANCH  32  33
ENDBRANCH  30  32
ENDBRANCH   1  30
BRANCH   6  39
ATOM     39  O   LIG    1       23.136 -28.149  12.545  0.00  0.00    -0.391 OA
ATOM     40  H   LIG    1       22.990 -27.544  13.299  0.00  0.00    +0.210 HD
ENDBRANCH   6  39
TORSDOF 7
ENDMDL
MODEL 2
REMARK VINA RESULT:      -5.3      2.543      6.278
REMARK  Name = *****
REMARK                            x       y       z     vdW  Elec       q    Type
REMARK                         _______ _______ _______ _____ _____    ______ ____
ROOT
ATOM      1  C   LIG    1       23.123 -31.897  10.771  0.00  0.00    +0.165 C 
ATOM      2  C   LIG    1       24.191 -30.860  11.263  0.00  0.00    +0.012 C 
ATOM      3  C   LIG    1       23.335 -29.648  11.739  0.00  0.00    +0.004 C 
ATOM      4  C   LIG    1       23.007 -29.596  13.244  0.00  0.00    -0.000 C 
ATOM      5  C   LIG    1       24.248 -29.843  14.126  0.00  0.00    +0.035 C 
ATOM      6  C   LIG    1       24.808 -31.241  13.794  0.00  0.00    +0.120 C 
ATOM      7  C   LIG    1       25.285 -28.646  14.220  0.00  0.00    +0.013 C 
ATOM      8  C   LIG    1       24.564 -27.275  14.335  0.00  0.00    -0.056 C 
ATOM      9  C   LIG    1       25.332 -26.159  14.386  0.00  0.00    +0.051 C 
ATOM     10  C   LIG    1       26.138 -26.047  13.111  0.00  0.00    +0.179 C 
ATOM     11  C   LIG    1       26.649 -27.326  12.542  0.00  0.00    +0.047 C 
ATOM     12  O   LIG    1       26.440 -24.963  12.631  0.00  0.00    -0.288 OA
ATOM     13  C   LIG    1       23.252 -27.097  13.593  0.00  0.00    +0.032 C 
ATOM     14  C   LIG    1       26.140 -28.889  15.496  0.00  0.00    +0.020 C 
ATOM     15  C   LIG    1       26.287 -28.507  13.076  0.00  0.00    -0.012 C 
ATOM     16  C   LIG    1       22.328 -28.296  13.692  0.00  0.00    +0.008 C 
ATOM     17  C   LIG    1       22.083 -29.671  10.827  0.00  0.00    +0.039 C 
ATOM     18  C   LIG    1       25.079 -30.317  10.105  0.00  0.00    +0.015 C 
ATOM     19  C   LIG    1       25.131 -31.487  12.320  0.00  0.00    +0.042 C 
ATOM     20  C   LIG    1       22.024 -31.050  10.149  0.00  0.00    +0.162 C 
ATOM     21  O   LIG    1       20.818 -31.733  10.492  0.00  0.00    -0.344 OA
ATOM     22  C   LIG    1       21.072 -32.293  11.777  0.00  0.00    +0.255 C 
ATOM     23  O   LIG    1       22.480 -32.552  11.883  0.00  0.00    -0.334 OA
ENDROOT
BRANCH  22  24
ATOM     24  C   LIG    1       20.212 -33.547  12.014  0.00  0.00    +0.045 C 
ATOM     25  C   LIG    1       19.886 -33.781  13.500  0.00  0.00    +0.008 C 
ATOM     26  C   LIG    1       18.884 -32.772  14.064  0.00  0.00    +0.000 C 
ATOM     27  C   LIG    1       17.615 -32.682  13.219  0.00  0.00    +0.000 C 
ATOM     28  C   LIG    1       17.917 -32.454  11.742  0.00  0.00    +0.000 C 
ATOM     29  C   LIG    1       18.902 -33.492  11.201  0.00  0.00    +0.008 C 
ENDBRANCH  22  24
BRANCH   1  30
ATOM     30  C   LIG    1       23.696 -32.929   9.764  0.00  0.00    +0.205 C 
ATOM     31  O   LIG    1       24.476 -33.822  10.114  0.00  0.00    -0.291 OA
BRANCH  30  32
ATOM     32  C   LIG    1       23.289 -32.800   8.296  0.00  0.00    +0.309 C 
BRANCH  32  33
ATOM     33  O   LIG    1       24.431 -32.748   7.433  0.00  0.00    -0.457 OA
BRANCH  33  34
ATOM     34  C   LIG    1       24.456 -31.673   6.586  0.00  0.00    +0.310 C 
ATOM     35  O   LIG    1       23.486 -31.011   6.268  0.00  0.00    -0.251 OA
BRANCH  34  37
ATOM     36  C   LIG    1       26.841 -32.218   6.941  0.00  0.00    +0.019 C 
ATOM     37  C   LIG    1       25.855 -31.505   6.020  0.00  0.00    +0.092 C 
ATOM     38  C   LIG    1       25.931 -32.048   4.596  0.00  0.00    +0.019 C 
ENDBRANCH  34  37
ENDBRANCH  33  34
ENDBRANCH  32  33
ENDBRANCH  30  32
ENDBRANCH   1  30
BRANCH   6  39
ATOM     39  O   LIG    1       23.857 -32.220  14.239  0.00  0.00    -0.391 OA
ATOM     40  H   LIG    1       22.976 -31.986  13.884  0.00  0.00    +0.210 HD
ENDBRANCH   6  39
TORSDOF 7
ENDMDL
MODEL 3
REMARK VINA RESULT:      -4.9      7.565     12.299
REMARK  Name = *****
REMARK                            x       y       z     vdW  Elec       q    Type
REMARK                         _______ _______ _______ _____ _____    ______ ____
ROOT
ATOM      1  C   LIG    1       25.178 -22.007   7.291  0.00  0.00    +0.165 C 
ATOM      2  C   LIG    1       26.172 -20.861   7.686  0.00  0.00    +0.012 C 
ATOM      3  C   LIG    1       27.469 -21.622   8.091  0.00  0.00    +0.004 C 
ATOM      4  C   LIG    1       28.537 -21.782   6.992  0.00  0.00    -0.000 C 
ATOM      5  C   LIG    1       28.820 -20.459   6.249  0.00  0.00    +0.035 C 
ATOM      6  C   LIG    1       27.508 -19.981   5.595  0.00  0.00    +0.120 C 
ATOM      7  C   LIG    1       29.671 -19.383   7.045  0.00  0.00    +0.013 C 
ATOM      8  C   LIG    1       30.834 -20.045   7.833  0.00  0.00    -0.056 C 
ATOM      9  C   LIG    1       31.624 -19.243   8.589  0.00  0.00    +0.051 C 
ATOM     10  C   LIG    1       30.785 -18.579   9.658  0.00  0.00    +0.179 C 
ATOM     11  C   LIG    1       29.409 -18.172   9.256  0.00  0.00    +0.047 C 
ATOM     12  O   LIG    1       31.242 -18.300  10.757  0.00  0.00    -0.288 OA
ATOM     13  C   LIG    1       30.601 -21.425   8.420  0.00  0.00    +0.032 C 
ATOM     14  C   LIG    1       30.255 -18.400   5.990  0.00  0.00    +0.020 C 
ATOM     15  C   LIG    1       28.920 -18.508   8.047  0.00  0.00    -0.012 C 
ATOM     16  C   LIG    1       29.865 -22.368   7.488  0.00  0.00    +0.008 C 
ATOM     17  C   LIG    1       26.968 -22.967   8.674  0.00  0.00    +0.039 C 
ATOM     18  C   LIG    1       25.722 -20.089   8.962  0.00  0.00    +0.015 C 
ATOM     19  C   LIG    1       26.317 -19.829   6.542  0.00  0.00    +0.042 C 
ATOM     20  C   LIG    1       25.500 -23.141   8.250  0.00  0.00    +0.162 C 
ATOM     21  O   LIG    1       25.335 -24.322   7.464  0.00  0.00    -0.344 OA
ATOM     22  C   LIG    1       25.748 -23.946   6.153  0.00  0.00    +0.255 C 
ATOM     23  O   LIG    1       25.490 -22.543   5.989  0.00  0.00    -0.334 OA
ENDROOT
BRANCH  22  24
ATOM     24  C   LIG    1       25.056 -24.812   5.085  0.00  0.00    +0.045 C 
ATOM     25  C   LIG    1       26.006 -25.828   4.427  0.00  0.00    +0.008 C 
ATOM     26  C   LIG    1       26.399 -26.977   5.357  0.00  0.00    +0.000 C 
ATOM     27  C   LIG    1       25.183 -27.665   5.974  0.00  0.00    +0.000 C 
ATOM     28  C   LIG    1       24.227 -26.674   6.629  0.00  0.00    +0.000 C 
ATOM     29  C   LIG    1       23.833 -25.551   5.668  0.00  0.00    +0.008 C 
ENDBRANCH  22  24
BRANCH   1  30
ATOM     30  C   LIG    1       23.690 -21.579   7.381  0.00  0.00    +0.205 C 
ATOM     31  O   LIG    1       23.145 -21.330   8.463  0.00  0.00    -0.291 OA
BRANCH  30  32
ATOM     32  C   LIG    1       22.888 -21.495   6.082  0.00  0.00    +0.309 C 
BRANCH  32  33
ATOM     33  O   LIG    1       23.007 -20.206   5.469  0.00  0.00    -0.457 OA
BRANCH  33  34
ATOM     34  C   LIG    1       23.550 -20.222   4.213  0.00  0.00    +0.310 C 
ATOM     35  O   LIG    1       24.105 -21.177   3.703  0.00  0.00    -0.251 OA
BRANCH  34  37
ATOM     36  C   LIG    1       22.454 -18.015   4.410  0.00  0.00    +0.019 C 
ATOM     37  C   LIG    1       23.455 -18.835   3.601  0.00  0.00    +0.092 C 
ATOM     38  C   LIG    1       24.825 -18.164   3.566  0.00  0.00    +0.019 C 
ENDBRANCH  34  37
ENDBRANCH  33  34
ENDBRANCH  32  33
ENDBRANCH  30  32
ENDBRANCH   1  30
BRANCH   6  39
ATOM     39  O   LIG    1       27.168 -20.906   4.551  0.00  0.00    -0.391 OA
ATOM     40  H   LIG    1       27.267 -20.457   3.688  0.00  0.00    +0.210 HD
ENDBRANCH   6  39
TORSDOF 7
ENDMDL
MODEL 4
REMARK VINA RESULT:      -4.9      1.464      2.053
REMARK  Name = *****
REMARK                            x       y       z     vdW  Elec       q    Type
REMARK                         _______ _______ _______ _____ _____    ______ ____
ROOT
ATOM      1  C   LIG    1       24.525 -30.961  11.362  0.00  0.00    +0.165 C 
ATOM      2  C   LIG    1       22.973 -31.033  11.569  0.00  0.00    +0.012 C 
ATOM      3  C   LIG    1       22.819 -31.655  12.989  0.00  0.00    +0.004 C 
ATOM      4  C   LIG    1       22.642 -30.661  14.153  0.00  0.00    -0.000 C 
ATOM      5  C   LIG    1       21.583 -29.581  13.848  0.00  0.00    +0.035 C 
ATOM      6  C   LIG    1       22.033 -28.799  12.598  0.00  0.00    +0.120 C 
ATOM      7  C   LIG    1       20.070 -30.055  13.905  0.00  0.00    +0.013 C 
ATOM      8  C   LIG    1       19.817 -31.014  15.100  0.00  0.00    -0.056 C 
ATOM      9  C   LIG    1       18.570 -31.526  15.247  0.00  0.00    +0.051 C 
ATOM     10  C   LIG    1       18.221 -32.354  14.030  0.00  0.00    +0.179 C 
ATOM     11  C   LIG    1       18.706 -31.832  12.720  0.00  0.00    +0.047 C 
ATOM     12  O   LIG    1       17.498 -33.337  14.103  0.00  0.00    -0.288 OA
ATOM     13  C   LIG    1       20.933 -31.962  15.500  0.00  0.00    +0.032 C 
ATOM     14  C   LIG    1       19.203 -28.776  14.077  0.00  0.00    +0.020 C 
ATOM     15  C   LIG    1       19.517 -30.760  12.667  0.00  0.00    -0.012 C 
ATOM     16  C   LIG    1       22.307 -31.321  15.496  0.00  0.00    +0.008 C 
ATOM     17  C   LIG    1       24.048 -32.584  13.144  0.00  0.00    +0.039 C 
ATOM     18  C   LIG    1       22.283 -32.034  10.596  0.00  0.00    +0.015 C 
ATOM     19  C   LIG    1       22.317 -29.647  11.358  0.00  0.00    +0.042 C 
ATOM     20  C   LIG    1       25.062 -32.205  12.051  0.00  0.00    +0.162 C 
ATOM     21  O   LIG    1       26.296 -31.780  12.630  0.00  0.00    -0.344 OA
ATOM     22  C   LIG    1       26.075 -30.423  13.002  0.00  0.00    +0.255 C 
ATOM     23  O   LIG    1       25.100 -29.867  12.105  0.00  0.00    -0.334 OA
ENDROOT
BRANCH  22  24
ATOM     24  C   LIG    1       27.394 -29.631  13.019  0.00  0.00    +0.045 C 
ATOM     25  C   LIG    1       27.703 -28.948  11.674  0.00  0.00    +0.008 C 
ATOM     26  C   LIG    1       26.788 -27.758  11.377  0.00  0.00    +0.000 C 
ATOM     27  C   LIG    1       26.759 -26.750  12.524  0.00  0.00    +0.000 C 
ATOM     28  C   LIG    1       26.457 -27.408  13.867  0.00  0.00    +0.000 C 
ATOM     29  C   LIG    1       27.403 -28.578  14.146  0.00  0.00    +0.008 C 
ENDBRANCH  22  24
BRANCH   1  30
ATOM     30  C   LIG    1       24.937 -30.905   9.868  0.00  0.00    +0.205 C 
ATOM     31  O   LIG    1       24.635 -29.953   9.140  0.00  0.00    -0.291 OA
BRANCH  30  32
ATOM     32  C   LIG    1       25.718 -32.089   9.296  0.00  0.00    +0.309 C 
BRANCH  32  33
ATOM     33  O   LIG    1       25.178 -32.522   8.042  0.00  0.00    -0.457 OA
BRANCH  33  34
ATOM     34  C   LIG    1       25.972 -32.257   6.959  0.00  0.00    +0.310 C 
ATOM     35  O   LIG    1       27.186 -32.329   6.947  0.00  0.00    -0.251 OA
BRANCH  34  37
ATOM     36  C   LIG    1       23.658 -32.108   6.101  0.00  0.00    +0.019 C 
ATOM     37  C   LIG    1       25.114 -31.751   5.812  0.00  0.00    +0.092 C 
ATOM     38  C   LIG    1       25.291 -30.248   5.625  0.00  0.00    +0.019 C 
ENDBRANCH  34  37
ENDBRANCH  33  34
ENDBRANCH  32  33
ENDBRANCH  30  32
ENDBRANCH   1  30
BRANCH   6  39
ATOM     39  O   LIG    1       23.211 -28.052  12.940  0.00  0.00    -0.391 OA
ATOM     40  H   LIG    1       22.946 -27.272  13.466  0.00  0.00    +0.210 HD
ENDBRANCH   6  39
TORSDOF 7
ENDMDL
MODEL 5
REMARK VINA RESULT:      -4.8      2.216      7.180
REMARK  Name = *****
REMARK                            x       y       z     vdW  Elec       q    Type
REMARK                         _______ _______ _______ _____ _____    ______ ____
ROOT
ATOM      1  C   LIG    1       23.400 -31.252  11.965  0.00  0.00    +0.165 C 
ATOM      2  C   LIG    1       23.743 -32.061  10.667  0.00  0.00    +0.012 C 
ATOM      3  C   LIG    1       23.549 -31.021   9.523  0.00  0.00    +0.004 C 
ATOM      4  C   LIG    1       24.817 -30.281   9.054  0.00  0.00    -0.000 C 
ATOM      5  C   LIG    1       26.001 -31.240   8.807  0.00  0.00    +0.035 C 
ATOM      6  C   LIG    1       26.318 -31.970  10.127  0.00  0.00    +0.120 C 
ATOM      7  C   LIG    1       25.919 -32.120   7.489  0.00  0.00    +0.013 C 
ATOM      8  C   LIG    1       25.376 -31.298   6.288  0.00  0.00    -0.056 C 
ATOM      9  C   LIG    1       25.220 -31.939   5.103  0.00  0.00    +0.051 C 
ATOM     10  C   LIG    1       24.217 -33.059   5.268  0.00  0.00    +0.179 C 
ATOM     11  C   LIG    1       24.266 -33.801   6.560  0.00  0.00    +0.047 C 
ATOM     12  O   LIG    1       23.479 -33.405   4.356  0.00  0.00    -0.288 OA
ATOM     13  C   LIG    1       24.327 -30.237   6.567  0.00  0.00    +0.032 C 
ATOM     14  C   LIG    1       27.365 -32.598   7.176  0.00  0.00    +0.020 C 
ATOM     15  C   LIG    1       25.073 -33.390   7.555  0.00  0.00    -0.012 C 
ATOM     16  C   LIG    1       24.611 -29.412   7.808  0.00  0.00    +0.008 C 
ATOM     17  C   LIG    1       22.431 -30.080  10.034  0.00  0.00    +0.039 C 
ATOM     18  C   LIG    1       22.717 -33.197  10.379  0.00  0.00    +0.015 C 
ATOM     19  C   LIG    1       25.144 -32.710  10.768  0.00  0.00    +0.042 C 
ATOM     20  C   LIG    1       22.279 -30.313  11.547  0.00  0.00    +0.162 C 
ATOM     21  O   LIG    1       22.538 -29.112  12.274  0.00  0.00    -0.344 OA
ATOM     22  C   LIG    1       23.959 -29.035  12.352  0.00  0.00    +0.255 C 
ATOM     23  O   LIG    1       24.482 -30.372  12.333  0.00  0.00    -0.334 OA
ENDROOT
BRANCH  22  24
ATOM     24  C   LIG    1       24.402 -28.236  13.591  0.00  0.00    +0.045 C 
ATOM     25  C   LIG    1       25.346 -29.029  14.512  0.00  0.00    +0.008 C 
ATOM     26  C   LIG    1       26.743 -29.225  13.920  0.00  0.00    +0.000 C 
ATOM     27  C   LIG    1       27.373 -27.907  13.473  0.00  0.00    +0.000 C 
ATOM     28  C   LIG    1       26.451 -27.104  12.561  0.00  0.00    +0.000 C 
ATOM     29  C   LIG    1       25.071 -26.904  13.190  0.00  0.00    +0.008 C 
ENDBRANCH  22  24
BRANCH   1  30
ATOM     30  C   LIG    1       22.981 -32.157  13.153  0.00  0.00    +0.205 C 
ATOM     31  O   LIG    1       23.815 -32.722  13.871  0.00  0.00    -0.291 OA
BRANCH  30  32
ATOM     32  C   LIG    1       21.488 -32.360  13.408  0.00  0.00    +0.309 C 
BRANCH  32  33
ATOM     33  O   LIG    1       21.085 -31.806  14.666  0.00  0.00    -0.457 OA
BRANCH  33  34
ATOM     34  C   LIG    1       19.744 -31.561  14.776  0.00  0.00    +0.310 C 
ATOM     35  O   LIG    1       18.962 -32.226  15.431  0.00  0.00    -0.251 OA
BRANCH  34  37
ATOM     36  C   LIG    1       17.856 -30.449  13.632  0.00  0.00    +0.019 C 
ATOM     37  C   LIG    1       19.362 -30.404  13.869  0.00  0.00    +0.092 C 
ATOM     38  C   LIG    1       19.790 -29.073  14.479  0.00  0.00    +0.019 C 
ENDBRANCH  34  37
ENDBRANCH  33  34
ENDBRANCH  32  33
ENDBRANCH  30  32
ENDBRANCH   1  30
BRANCH   6  39
ATOM     39  O   LIG    1       26.833 -31.005  11.057  0.00  0.00    -0.391 OA
ATOM     40  H   LIG    1       27.540 -30.492  10.618  0.00  0.00    +0.210 HD
ENDBRANCH   6  39
TORSDOF 7
ENDMDL
MODEL 6
REMARK VINA RESULT:      -4.7      2.819      6.724
REMARK  Name = *****
REMARK                            x       y       z     vdW  Elec       q    Type
REMARK                         _______ _______ _______ _____ _____    ______ ____
ROOT
ATOM      1  C   LIG    1       26.199 -29.182  11.903  0.00  0.00    +0.165 C 
ATOM      2  C   LIG    1       25.701 -29.453  10.442  0.00  0.00    +0.012 C 
ATOM      3  C   LIG    1       26.571 -30.658   9.974  0.00  0.00    +0.004 C 
ATOM      4  C   LIG    1       25.945 -32.056  10.143  0.00  0.00    -0.000 C 
ATOM      5  C   LIG    1       24.494 -32.119   9.621  0.00  0.00    +0.035 C 
ATOM      6  C   LIG    1       23.649 -31.102  10.414  0.00  0.00    +0.120 C 
ATOM      7  C   LIG    1       24.323 -32.135   8.044  0.00  0.00    +0.013 C 
ATOM      8  C   LIG    1       25.388 -33.039   7.364  0.00  0.00    -0.056 C 
ATOM      9  C   LIG    1       25.381 -33.116   6.010  0.00  0.00    +0.051 C 
ATOM     10  C   LIG    1       25.637 -31.743   5.429  0.00  0.00    +0.179 C 
ATOM     11  C   LIG    1       25.017 -30.597   6.153  0.00  0.00    +0.047 C 
ATOM     12  O   LIG    1       26.230 -31.590   4.371  0.00  0.00    -0.288 OA
ATOM     13  C   LIG    1       26.771 -33.100   7.986  0.00  0.00    +0.032 C 
ATOM     14  C   LIG    1       22.904 -32.698   7.750  0.00  0.00    +0.020 C 
ATOM     15  C   LIG    1       24.386 -30.787   7.326  0.00  0.00    -0.012 C 
ATOM     16  C   LIG    1       26.755 -33.188   9.500  0.00  0.00    +0.008 C 
ATOM     17  C   LIG    1       27.916 -30.483  10.721  0.00  0.00    +0.039 C 
ATOM     18  C   LIG    1       26.040 -28.288   9.465  0.00  0.00    +0.015 C 
ATOM     19  C   LIG    1       24.168 -29.664  10.405  0.00  0.00    +0.042 C 
ATOM     20  C   LIG    1       27.690 -29.475  11.861  0.00  0.00    +0.162 C 
ATOM     21  O   LIG    1       27.966 -30.073  13.128  0.00  0.00    -0.344 OA
ATOM     22  C   LIG    1       26.789 -30.810  13.445  0.00  0.00    +0.255 C 
ATOM     23  O   LIG    1       25.670 -30.157  12.824  0.00  0.00    -0.334 OA
ENDROOT
BRANCH  22  24
ATOM     24  C   LIG    1       26.624 -30.963  14.968  0.00  0.00    +0.045 C 
ATOM     25  C   LIG    1       25.151 -31.019  15.411  0.00  0.00    +0.008 C 
ATOM     26  C   LIG    1       24.455 -32.325  15.028  0.00  0.00    +0.000 C 
ATOM     27  C   LIG    1       25.229 -33.554  15.500  0.00  0.00    +0.000 C 
ATOM     28  C   LIG    1       26.693 -33.516  15.074  0.00  0.00    +0.000 C 
ATOM     29  C   LIG    1       27.368 -32.209  15.491  0.00  0.00    +0.008 C 
ENDBRANCH  22  24
BRANCH   1  30
ATOM     30  C   LIG    1       25.909 -27.736  12.386  0.00  0.00    +0.205 C 
ATOM     31  O   LIG    1       26.560 -26.767  11.979  0.00  0.00    -0.291 OA
BRANCH  30  32
ATOM     32  C   LIG    1       24.797 -27.534  13.415  0.00  0.00    +0.309 C 
BRANCH  32  33
ATOM     33  O   LIG    1       23.499 -27.611  12.813  0.00  0.00    -0.457 OA
BRANCH  33  34
ATOM     34  C   LIG    1       22.536 -26.867  13.440  0.00  0.00    +0.310 C 
ATOM     35  O   LIG    1       22.741 -26.073  14.339  0.00  0.00    -0.251 OA
BRANCH  34  37
ATOM     36  C   LIG    1       21.201 -28.748  12.552  0.00  0.00    +0.019 C 
ATOM     37  C   LIG    1       21.167 -27.268  12.921  0.00  0.00    +0.092 C 
ATOM     38  C   LIG    1       20.088 -26.979  13.959  0.00  0.00    +0.019 C 
ENDBRANCH  34  37
ENDBRANCH  33  34
ENDBRANCH  32  33
ENDBRANCH  30  32
ENDBRANCH   1  30
BRANCH   6  39
ATOM     39  O   LIG    1       23.556 -31.563  11.771  0.00  0.00    -0.391 OA
ATOM     40  H   LIG    1       24.290 -31.174  12.286  0.00  0.00    +0.210 HD
ENDBRANCH   6  39
TORSDOF 7
ENDMDL
MODEL 7
REMARK VINA RESULT:      -4.5      2.534      5.358
REMARK  Name = *****
REMARK                            x       y       z     vdW  Elec       q    Type
REMARK                         _______ _______ _______ _____ _____    ______ ____
ROOT
ATOM      1  C   LIG    1       24.620 -30.742   7.892  0.00  0.00    +0.165 C 
ATOM      2  C   LIG    1       24.317 -30.485   9.409  0.00  0.00    +0.012 C 
ATOM      3  C   LIG    1       24.191 -31.917  10.008  0.00  0.00    +0.004 C 
ATOM      4  C   LIG    1       25.463 -32.499  10.654  0.00  0.00    -0.000 C 
ATOM      5  C   LIG    1       26.146 -31.500  11.612  0.00  0.00    +0.035 C 
ATOM      6  C   LIG    1       26.534 -30.243  10.808  0.00  0.00    +0.120 C 
ATOM      7  C   LIG    1       25.430 -31.277  13.010  0.00  0.00    +0.013 C 
ATOM      8  C   LIG    1       24.899 -32.613  13.598  0.00  0.00    -0.056 C 
ATOM      9  C   LIG    1       24.231 -32.564  14.777  0.00  0.00    +0.051 C 
ATOM     10  C   LIG    1       22.990 -31.714  14.615  0.00  0.00    +0.179 C 
ATOM     11  C   LIG    1       23.125 -30.515  13.739  0.00  0.00    +0.047 C 
ATOM     12  O   LIG    1       21.967 -31.937  15.245  0.00  0.00    -0.288 OA
ATOM     13  C   LIG    1       24.381 -33.661  12.630  0.00  0.00    +0.032 C 
ATOM     14  C   LIG    1       26.494 -30.676  13.971  0.00  0.00    +0.020 C 
ATOM     15  C   LIG    1       24.255 -30.301  13.039  0.00  0.00    -0.012 C 
ATOM     16  C   LIG    1       25.241 -33.825  11.392  0.00  0.00    +0.008 C 
ATOM     17  C   LIG    1       23.631 -32.778   8.849  0.00  0.00    +0.039 C 
ATOM     18  C   LIG    1       22.931 -29.811   9.638  0.00  0.00    +0.015 C 
ATOM     19  C   LIG    1       25.392 -29.572  10.045  0.00  0.00    +0.042 C 
ATOM     20  C   LIG    1       23.813 -31.983   7.545  0.00  0.00    +0.162 C 
ATOM     21  O   LIG    1       24.643 -32.696   6.627  0.00  0.00    -0.344 OA
ATOM     22  C   LIG    1       25.974 -32.433   7.062  0.00  0.00    +0.255 C 
ATOM     23  O   LIG    1       25.991 -31.144   7.695  0.00  0.00    -0.334 OA
ENDROOT
BRANCH  22  24
ATOM     24  C   LIG    1       26.969 -32.540   5.893  0.00  0.00    +0.045 C 
ATOM     25  C   LIG    1       26.788 -33.824   5.064  0.00  0.00    +0.008 C 
ATOM     26  C   LIG    1       25.517 -33.818   4.213  0.00  0.00    +0.000 C 
ATOM     27  C   LIG    1       25.410 -32.569   3.341  0.00  0.00    +0.000 C 
ATOM     28  C   LIG    1       25.591 -31.285   4.144  0.00  0.00    +0.000 C 
ATOM     29  C   LIG    1       26.881 -31.310   4.966  0.00  0.00    +0.008 C 
ENDBRANCH  22  24
BRANCH   1  30
ATOM     30  C   LIG    1       24.250 -29.540   6.985  0.00  0.00    +0.205 C 
ATOM     31  O   LIG    1       23.320 -29.595   6.172  0.00  0.00    -0.291 OA
BRANCH  30  32
ATOM     32  C   LIG    1       25.092 -28.269   7.100  0.00  0.00    +0.309 C 
BRANCH  32  33
ATOM     33  O   LIG    1       24.727 -27.301   6.108  0.00  0.00    -0.457 OA
BRANCH  33  34
ATOM     34  C   LIG    1       25.718 -26.414   5.788  0.00  0.00    +0.310 C 
ATOM     35  O   LIG    1       26.866 -26.713   5.521  0.00  0.00    -0.251 OA
BRANCH  34  37
ATOM     36  C   LIG    1       23.716 -25.059   6.304  0.00  0.00    +0.019 C 
ATOM     37  C   LIG    1       25.194 -24.995   5.929  0.00  0.00    +0.092 C 
ATOM     38  C   LIG    1       25.998 -24.222   6.969  0.00  0.00    +0.019 C 
ENDBRANCH  34  37
ENDBRANCH  33  34
ENDBRANCH  32  33
ENDBRANCH  30  32
ENDBRANCH   1  30
BRANCH   6  39
ATOM     39  O   LIG    1       27.569 -30.610   9.882  0.00  0.00    -0.391 OA
ATOM     40  H   LIG    1       27.412 -31.526   9.581  0.00  0.00    +0.210 HD
ENDBRANCH   6  39
TORSDOF 7
ENDMDL
MODEL 8
REMARK VINA RESULT:      -4.5      1.648      2.372
REMARK  Name = *****
REMARK                            x       y       z     vdW  Elec       q    Type
REMARK                         _______ _______ _______ _____ _____    ______ ____
ROOT
ATOM      1  C   LIG    1       24.677 -30.370  11.894  0.00  0.00    +0.165 C 
ATOM      2  C   LIG    1       23.177 -30.515  11.463  0.00  0.00    +0.012 C 
ATOM      3  C   LIG    1       22.785 -31.936  11.966  0.00  0.00    +0.004 C 
ATOM      4  C   LIG    1       22.099 -32.005  13.344  0.00  0.00    -0.000 C 
ATOM      5  C   LIG    1       20.957 -30.977  13.486  0.00  0.00    +0.035 C 
ATOM      6  C   LIG    1       21.550 -29.565  13.302  0.00  0.00    +0.120 C 
ATOM      7  C   LIG    1       19.618 -31.312  12.703  0.00  0.00    +0.013 C 
ATOM      8  C   LIG    1       19.264 -32.822  12.801  0.00  0.00    -0.056 C 
ATOM      9  C   LIG    1       18.159 -33.255  12.145  0.00  0.00    +0.051 C 
ATOM     10  C   LIG    1       18.329 -33.011  10.662  0.00  0.00    +0.179 C 
ATOM     11  C   LIG    1       19.024 -31.749  10.278  0.00  0.00    +0.047 C 
ATOM     12  O   LIG    1       17.836 -33.753   9.824  0.00  0.00    -0.288 OA
ATOM     13  C   LIG    1       20.406 -33.820  12.829  0.00  0.00    +0.032 C 
ATOM     14  C   LIG    1       18.488 -30.472  13.362  0.00  0.00    +0.020 C 
ATOM     15  C   LIG    1       19.577 -30.959  11.217  0.00  0.00    -0.012 C 
ATOM     16  C   LIG    1       21.565 -33.396  13.710  0.00  0.00    +0.008 C 
ATOM     17  C   LIG    1       24.095 -32.757  11.879  0.00  0.00    +0.039 C 
ATOM     18  C   LIG    1       22.998 -30.554   9.916  0.00  0.00    +0.015 C 
ATOM     19  C   LIG    1       22.325 -29.341  12.004  0.00  0.00    +0.042 C 
ATOM     20  C   LIG    1       25.260 -31.764  11.730  0.00  0.00    +0.162 C 
ATOM     21  O   LIG    1       26.178 -31.891  12.816  0.00  0.00    -0.344 OA
ATOM     22  C   LIG    1       25.585 -31.152  13.880  0.00  0.00    +0.255 C 
ATOM     23  O   LIG    1       24.790 -30.102  13.307  0.00  0.00    -0.334 OA
ENDROOT
BRANCH  22  24
ATOM     24  C   LIG    1       26.655 -30.630  14.855  0.00  0.00    +0.045 C 
ATOM     25  C   LIG    1       28.037 -30.460  14.197  0.00  0.00    +0.008 C 
ATOM     26  C   LIG    1       28.100 -29.285  13.220  0.00  0.00    +0.000 C 
ATOM     27  C   LIG    1       27.616 -27.981  13.851  0.00  0.00    +0.000 C 
ATOM     28  C   LIG    1       26.250 -28.129  14.512  0.00  0.00    +0.000 C 
ATOM     29  C   LIG    1       26.224 -29.296  15.500  0.00  0.00    +0.008 C 
ENDBRANCH  22  24
BRANCH   1  30
ATOM     30  C   LIG    1       25.452 -29.318  11.058  0.00  0.00    +0.205 C 
ATOM     31  O   LIG    1       25.480 -28.123  11.372  0.00  0.00    -0.291 OA
BRANCH  30  32
ATOM     32  C   LIG    1       26.173 -29.796   9.797  0.00  0.00    +0.309 C 
BRANCH  32  33
ATOM     33  O   LIG    1       26.071 -28.839   8.735  0.00  0.00    -0.457 OA
BRANCH  33  34
ATOM     34  C   LIG    1       25.417 -29.294   7.622  0.00  0.00    +0.310 C 
ATOM     35  O   LIG    1       25.394 -30.451   7.247  0.00  0.00    -0.251 OA
BRANCH  34  37
ATOM     36  C   LIG    1       25.825 -26.967   6.892  0.00  0.00    +0.019 C 
ATOM     37  C   LIG    1       24.823 -28.118   6.867  0.00  0.00    +0.092 C 
ATOM     38  C   LIG    1       24.469 -28.515   5.437  0.00  0.00    +0.019 C 
ENDBRANCH  34  37
ENDBRANCH  33  34
ENDBRANCH  32  33
ENDBRANCH  30  32
ENDBRANCH   1  30
BRANCH   6  39
ATOM     39  O   LIG    1       22.410 -29.295  14.419  0.00  0.00    -0.391 OA
ATOM     40  H   LIG    1       23.022 -30.048  14.535  0.00  0.00    +0.210 HD
ENDBRANCH   6  39
TORSDOF 7
ENDMDL
MODEL 9
REMARK VINA RESULT:      -4.5      2.159      6.294
REMARK  Name = *****
REMARK                            x       y       z     vdW  Elec       q    Type
REMARK                         _______ _______ _______ _____ _____    ______ ____
ROOT
ATOM      1  C   LIG    1       24.666 -31.379   8.832  0.00  0.00    +0.165 C 
ATOM      2  C   LIG    1       25.011 -31.571  10.349  0.00  0.00    +0.012 C 
ATOM      3  C   LIG    1       26.299 -30.717  10.545  0.00  0.00    +0.004 C 
ATOM      4  C   LIG    1       26.091 -29.282  11.068  0.00  0.00    -0.000 C 
ATOM      5  C   LIG    1       25.139 -29.230  12.281  0.00  0.00    +0.035 C 
ATOM      6  C   LIG    1       23.773 -29.799  11.851  0.00  0.00    +0.120 C 
ATOM      7  C   LIG    1       25.740 -29.739  13.658  0.00  0.00    +0.013 C 
ATOM      8  C   LIG    1       27.205 -29.262  13.853  0.00  0.00    -0.056 C 
ATOM      9  C   LIG    1       27.855 -29.657  14.975  0.00  0.00    +0.051 C 
ATOM     10  C   LIG    1       27.954 -31.166  14.992  0.00  0.00    +0.179 C 
ATOM     11  C   LIG    1       26.772 -31.908  14.467  0.00  0.00    +0.047 C 
ATOM     12  O   LIG    1       28.903 -31.747  15.499  0.00  0.00    -0.288 OA
ATOM     13  C   LIG    1       28.088 -29.157  12.624  0.00  0.00    +0.032 C 
ATOM     14  C   LIG    1       24.849 -29.146  14.786  0.00  0.00    +0.020 C 
ATOM     15  C   LIG    1       25.748 -31.249  13.895  0.00  0.00    -0.012 C 
ATOM     16  C   LIG    1       27.391 -28.549  11.422  0.00  0.00    +0.008 C 
ATOM     17  C   LIG    1       27.025 -30.785   9.179  0.00  0.00    +0.039 C 
ATOM     18  C   LIG    1       25.423 -33.035  10.691  0.00  0.00    +0.015 C 
ATOM     19  C   LIG    1       23.805 -31.203  11.246  0.00  0.00    +0.042 C 
ATOM     20  C   LIG    1       26.017 -31.301   8.139  0.00  0.00    +0.162 C 
ATOM     21  O   LIG    1       25.823 -30.340   7.100  0.00  0.00    -0.344 OA
ATOM     22  C   LIG    1       24.898 -29.402   7.643  0.00  0.00    +0.255 C 
ATOM     23  O   LIG    1       24.068 -30.089   8.592  0.00  0.00    -0.334 OA
ENDROOT
BRANCH  22  24
ATOM     24  C   LIG    1       24.090 -28.714   6.528  0.00  0.00    +0.045 C 
ATOM     25  C   LIG    1       24.109 -27.178   6.631  0.00  0.00    +0.008 C 
ATOM     26  C   LIG    1       25.464 -26.566   6.270  0.00  0.00    +0.000 C 
ATOM     27  C   LIG    1       25.970 -27.043   4.910  0.00  0.00    +0.000 C 
ATOM     28  C   LIG    1       25.955 -28.563   4.786  0.00  0.00    +0.000 C 
ATOM     29  C   LIG    1       24.583 -29.143   5.131  0.00  0.00    +0.008 C 
ENDBRANCH  22  24
BRANCH   1  30
ATOM     30  C   LIG    1       23.789 -32.522   8.258  0.00  0.00    +0.205 C 
ATOM     31  O   LIG    1       23.960 -32.969   7.118  0.00  0.00    -0.291 OA
BRANCH  30  32
ATOM     32  C   LIG    1       22.669 -33.077   9.138  0.00  0.00    +0.309 C 
BRANCH  32  33
ATOM     33  O   LIG    1       21.498 -32.253   9.087  0.00  0.00    -0.457 OA
BRANCH  33  34
ATOM     34  C   LIG    1       20.625 -32.441  10.124  0.00  0.00    +0.310 C 
ATOM     35  O   LIG    1       20.384 -33.512  10.650  0.00  0.00    -0.251 OA
BRANCH  34  37
ATOM     36  C   LIG    1       18.440 -31.286  10.100  0.00  0.00    +0.019 C 
ATOM     37  C   LIG    1       19.920 -31.134  10.438  0.00  0.00    +0.092 C 
ATOM     38  C   LIG    1       20.119 -30.749  11.901  0.00  0.00    +0.019 C 
ENDBRANCH  34  37
ENDBRANCH  33  34
ENDBRANCH  32  33
ENDBRANCH  30  32
ENDBRANCH   1  30
BRANCH   6  39
ATOM     39  O   LIG    1       23.189 -28.890  10.905  0.00  0.00    -0.391 OA
ATOM     40  H   LIG    1       23.883 -28.277  10.590  0.00  0.00    +0.210 HD
ENDBRANCH   6  39
TORSDOF 7
ENDMDL
