MODEL 1
REMARK VINA RESULT:      -2.5      0.000      0.000
REMARK  Name = *****
REMARK                            x       y       z     vdW  Elec       q    Type
REMARK                         _______ _______ _______ _____ _____    ______ ____
ROOT
ATOM      1  C   LIG    1       25.972 -16.435   3.284  0.00  0.00    +0.076 C 
ATOM      2  C   LIG    1       27.288 -15.753   3.693  0.00  0.00    +0.137 C 
ATOM      3  C   LIG    1       26.953 -14.774   4.821  0.00  0.00    +0.130 C 
ATOM      4  C   LIG    1       25.471 -14.393   4.602  0.00  0.00    +0.058 C 
ATOM      5  C   LIG    1       24.972 -15.243   3.415  0.00  0.00    +0.153 C 
ENDROOT
BRANCH   2   6
ATOM      6  O   LIG    1       28.279 -16.663   4.132  0.00  0.00    -0.391 OA
ATOM      7  H   LIG    1       28.791 -16.922   3.343  0.00  0.00    +0.210 HD
ENDBRANCH   2   6
BRANCH   3   8
ATOM      8  C   LIG    1       27.860 -13.571   4.758  0.00  0.00    +0.310 C 
ATOM      9  O   LIG    1       28.658 -13.348   3.872  0.00  0.00    -0.251 OA
BRANCH   8  10
ATOM     10  O   LIG    1       27.712 -12.744   5.825  0.00  0.00    -0.480 OA
ATOM     11  H   LIG    1       28.543 -12.342   6.141  0.00  0.00    +0.295 HD
ENDBRANCH   8  10
ENDBRANCH   3   8
BRANCH   5  12
ATOM     12  N   LIG    1       24.961 -14.410   2.211  0.00  0.00    -0.273 N 
ATOM     13  H   LIG    1       24.685 -14.867   1.343  0.00  0.00    +0.258 HD
BRANCH  12  14
ATOM     14  C   LIG    1       24.941 -13.062   2.170  0.00  0.00    +0.376 C 
ATOM     15  N   LIG    1       23.922 -12.288   2.215  0.00  0.00    -0.130 NA
ATOM     16  H   LIG    1       23.077 -12.845   2.318  0.00  0.00    +0.306 HD
BRANCH  14  17
ATOM     17  N   LIG    1       26.164 -12.515   2.048  0.00  0.00    -0.289 N 
ATOM     18  H   LIG    1       26.762 -13.166   1.546  0.00  0.00    +0.255 HD
ATOM     19  H   LIG    1       26.165 -11.620   1.575  0.00  0.00    +0.255 HD
ENDBRANCH  14  17
ENDBRANCH  12  14
ENDBRANCH   5  12
BRANCH   1  20
ATOM     20  C   LIG    1       25.545 -17.751   4.047  0.00  0.00    +0.085 C 
BRANCH  20  21
ATOM     21  N   LIG    1       26.720 -18.603   4.224  0.00  0.00    -0.312 N 
ATOM     22  H   LIG    1       27.468 -18.486   3.548  0.00  0.00    +0.149 HD
ATOM     23  C   LIG    1       26.997 -19.568   5.144  0.00  0.00    +0.210 C 
ATOM     24  O   LIG    1       28.084 -20.142   5.077  0.00  0.00    -0.276 OA
ATOM     25  C   LIG    1       25.986 -19.938   6.194  0.00  0.00    +0.109 C 
ENDBRANCH  20  21
BRANCH  20  26
ATOM     26  C   LIG    1       24.340 -18.605   3.431  0.00  0.00    +0.009 C 
BRANCH  26  28
ATOM     27  C   LIG    1       22.094 -17.708   4.498  0.00  0.00    +0.004 C 
ATOM     28  C   LIG    1       23.169 -18.807   4.446  0.00  0.00    +0.002 C 
ENDBRANCH  26  28
BRANCH  26  29
ATOM     29  C   LIG    1       24.763 -20.039   2.975  0.00  0.00    +0.002 C 
ATOM     30  C   LIG    1       24.052 -21.256   3.534  0.00  0.00    +0.004 C 
ENDBRANCH  26  29
ENDBRANCH  20  26
ENDBRANCH   1  20
TORSDOF 11
ENDMDL
MODEL 2
REMARK VINA RESULT:      -2.5      1.499      2.406
REMARK  Name = *****
REMARK                            x       y       z     vdW  Elec       q    Type
REMARK                         _______ _______ _______ _____ _____    ______ ____
ROOT
ATOM      1  C   LIG    1       24.915 -15.910   3.331  0.00  0.00    +0.076 C 
ATOM      2  C   LIG    1       26.387 -15.471   3.275  0.00  0.00    +0.137 C 
ATOM      3  C   LIG    1       26.626 -14.552   4.476  0.00  0.00    +0.130 C 
ATOM      4  C   LIG    1       25.246 -13.934   4.797  0.00  0.00    +0.058 C 
ATOM      5  C   LIG    1       24.238 -14.596   3.835  0.00  0.00    +0.153 C 
ENDROOT
BRANCH   2   6
ATOM      6  O   LIG    1       27.298 -16.553   3.318  0.00  0.00    -0.391 OA
ATOM      7  H   LIG    1       26.772 -17.356   3.498  0.00  0.00    +0.210 HD
ENDBRANCH   2   6
BRANCH   3   8
ATOM      8  C   LIG    1       27.650 -13.497   4.134  0.00  0.00    +0.310 C 
ATOM      9  O   LIG    1       28.179 -12.757   4.935  0.00  0.00    -0.251 OA
BRANCH   8  10
ATOM     10  O   LIG    1       27.919 -13.437   2.804  0.00  0.00    -0.480 OA
ATOM     11  H   LIG    1       27.130 -13.342   2.237  0.00  0.00    +0.295 HD
ENDBRANCH   8  10
ENDBRANCH   3   8
BRANCH   5  12
ATOM     12  N   LIG    1       23.962 -13.673   2.733  0.00  0.00    -0.273 N 
ATOM     13  H   LIG    1       23.336 -14.007   2.002  0.00  0.00    +0.258 HD
BRANCH  12  14
ATOM     14  C   LIG    1       24.158 -12.338   2.739  0.00  0.00    +0.376 C 
ATOM     15  N   LIG    1       23.490 -11.447   3.372  0.00  0.00    -0.130 NA
ATOM     16  H   LIG    1       22.766 -11.896   3.927  0.00  0.00    +0.306 HD
BRANCH  14  17
ATOM     17  N   LIG    1       25.177 -11.946   1.954  0.00  0.00    -0.289 N 
ATOM     18  H   LIG    1       25.978 -12.545   2.139  0.00  0.00    +0.255 HD
ATOM     19  H   LIG    1       24.962 -11.964   0.965  0.00  0.00    +0.255 HD
ENDBRANCH  14  17
ENDBRANCH  12  14
ENDBRANCH   5  12
BRANCH   1  20
ATOM     20  C   LIG    1       24.554 -17.206   4.159  0.00  0.00    +0.085 C 
BRANCH  20  21
ATOM     21  N   LIG    1       24.799 -18.386   3.331  0.00  0.00    -0.312 N 
ATOM     22  H   LIG    1       24.563 -18.303   2.347  0.00  0.00    +0.149 HD
ATOM     23  C   LIG    1       25.281 -19.619   3.647  0.00  0.00    +0.210 C 
ATOM     24  O   LIG    1       25.403 -20.447   2.745  0.00  0.00    -0.276 OA
ATOM     25  C   LIG    1       25.628 -19.964   5.070  0.00  0.00    +0.109 C 
ENDBRANCH  20  21
BRANCH  20  26
ATOM     26  C   LIG    1       23.092 -17.288   4.804  0.00  0.00    +0.009 C 
BRANCH  26  28
ATOM     27  C   LIG    1       21.951 -19.670   4.717  0.00  0.00    +0.004 C 
ATOM     28  C   LIG    1       22.162 -18.297   4.056  0.00  0.00    +0.002 C 
ENDBRANCH  26  28
BRANCH  26  29
ATOM     29  C   LIG    1       22.332 -15.922   4.800  0.00  0.00    +0.002 C 
ATOM     30  C   LIG    1       21.919 -15.277   6.109  0.00  0.00    +0.004 C 
ENDBRANCH  26  29
ENDBRANCH  20  26
ENDBRANCH   1  20
TORSDOF 11
ENDMDL
MODEL 3
REMARK VINA RESULT:      -2.0      2.595      5.048
REMARK  Name = *****
REMARK                            x       y       z     vdW  Elec       q    Type
REMARK                         _______ _______ _______ _____ _____    ______ ____
ROOT
ATOM      1  C   LIG    1       25.776 -15.243   4.451  0.00  0.00    +0.076 C 
ATOM      2  C   LIG    1       26.602 -14.045   4.948  0.00  0.00    +0.137 C 
ATOM      3  C   LIG    1       27.164 -13.344   3.710  0.00  0.00    +0.130 C 
ATOM      4  C   LIG    1       27.256 -14.443   2.627  0.00  0.00    +0.058 C 
ATOM      5  C   LIG    1       26.649 -15.719   3.246  0.00  0.00    +0.153 C 
ENDROOT
BRANCH   2   6
ATOM      6  O   LIG    1       25.848 -13.124   5.714  0.00  0.00    -0.391 OA
ATOM      7  H   LIG    1       26.038 -12.237   5.352  0.00  0.00    +0.210 HD
ENDBRANCH   2   6
BRANCH   3   8
ATOM      8  C   LIG    1       28.512 -12.739   4.016  0.00  0.00    +0.310 C 
ATOM      9  O   LIG    1       28.737 -11.969   4.925  0.00  0.00    -0.251 OA
BRANCH   8  10
ATOM     10  O   LIG    1       29.475 -13.131   3.142  0.00  0.00    -0.480 OA
ATOM     11  H   LIG    1       30.361 -12.769   3.330  0.00  0.00    +0.295 HD
ENDBRANCH   8  10
ENDBRANCH   3   8
BRANCH   5  12
ATOM     12  N   LIG    1       27.737 -16.597   3.680  0.00  0.00    -0.273 N 
ATOM     13  H   LIG    1       28.636 -16.153   3.864  0.00  0.00    +0.258 HD
BRANCH  12  14
ATOM     14  C   LIG    1       27.609 -17.841   4.185  0.00  0.00    +0.376 C 
ATOM     15  N   LIG    1       26.593 -18.618   4.116  0.00  0.00    -0.130 NA
ATOM     16  H   LIG    1       25.857 -18.167   3.577  0.00  0.00    +0.306 HD
BRANCH  14  17
ATOM     17  N   LIG    1       28.701 -18.261   4.848  0.00  0.00    -0.289 N 
ATOM     18  H   LIG    1       29.116 -19.034   4.333  0.00  0.00    +0.255 HD
ATOM     19  H   LIG    1       29.394 -17.538   4.992  0.00  0.00    +0.255 HD
ENDBRANCH  14  17
ENDBRANCH  12  14
ENDBRANCH   5  12
BRANCH   1  20
ATOM     20  C   LIG    1       24.250 -15.012   4.118  0.00  0.00    +0.085 C 
BRANCH  20  21
ATOM     21  N   LIG    1       23.932 -13.595   4.294  0.00  0.00    -0.312 N 
ATOM     22  H   LIG    1       23.692 -13.299   5.235  0.00  0.00    +0.149 HD
ATOM     23  C   LIG    1       23.877 -12.571   3.399  0.00  0.00    +0.210 C 
ATOM     24  O   LIG    1       23.589 -11.448   3.813  0.00  0.00    -0.276 OA
ATOM     25  C   LIG    1       24.136 -12.817   1.937  0.00  0.00    +0.109 C 
ENDBRANCH  20  21
BRANCH  20  26
ATOM     26  C   LIG    1       23.179 -15.910   4.896  0.00  0.00    +0.009 C 
BRANCH  26  28
ATOM     27  C   LIG    1       22.265 -18.380   4.672  0.00  0.00    +0.004 C 
ATOM     28  C   LIG    1       22.572 -17.034   3.994  0.00  0.00    +0.002 C 
ENDBRANCH  26  28
BRANCH  26  29
ATOM     29  C   LIG    1       21.960 -15.096   5.441  0.00  0.00    +0.002 C 
ATOM     30  C   LIG    1       21.656 -15.086   6.927  0.00  0.00    +0.004 C 
ENDBRANCH  26  29
ENDBRANCH  20  26
ENDBRANCH   1  20
TORSDOF 11
ENDMDL
MODEL 4
REMARK VINA RESULT:      -1.9      2.827      3.799
REMARK  Name = *****
REMARK                            x       y       z     vdW  Elec       q    Type
REMARK                         _______ _______ _______ _____ _____    ______ ____
ROOT
ATOM      1  C   LIG    1       25.200 -16.312   4.150  0.00  0.00    +0.076 C 
ATOM      2  C   LIG    1       24.265 -15.108   4.351  0.00  0.00    +0.137 C 
ATOM      3  C   LIG    1       24.353 -14.257   3.082  0.00  0.00    +0.130 C 
ATOM      4  C   LIG    1       25.750 -14.550   2.490  0.00  0.00    +0.058 C 
ATOM      5  C   LIG    1       26.382 -15.638   3.383  0.00  0.00    +0.153 C 
ENDROOT
BRANCH   2   6
ATOM      6  O   LIG    1       22.919 -15.475   4.585  0.00  0.00    -0.391 OA
ATOM      7  H   LIG    1       22.600 -15.905   3.768  0.00  0.00    +0.210 HD
ENDBRANCH   2   6
BRANCH   3   8
ATOM      8  C   LIG    1       24.178 -12.796   3.417  0.00  0.00    +0.310 C 
ATOM      9  O   LIG    1       24.284 -12.321   4.528  0.00  0.00    -0.251 OA
BRANCH   8  10
ATOM     10  O   LIG    1       23.862 -12.042   2.332  0.00  0.00    -0.480 OA
ATOM     11  H   LIG    1       24.631 -11.740   1.813  0.00  0.00    +0.295 HD
ENDBRANCH   8  10
ENDBRANCH   3   8
BRANCH   5  12
ATOM     12  N   LIG    1       27.331 -15.004   4.300  0.00  0.00    -0.273 N 
ATOM     13  H   LIG    1       27.946 -15.625   4.822  0.00  0.00    +0.258 HD
BRANCH  12  14
ATOM     14  C   LIG    1       27.717 -13.711   4.283  0.00  0.00    +0.376 C 
ATOM     15  N   LIG    1       28.479 -13.128   3.435  0.00  0.00    -0.130 NA
ATOM     16  H   LIG    1       28.755 -13.791   2.715  0.00  0.00    +0.306 HD
BRANCH  14  17
ATOM     17  N   LIG    1       27.230 -12.997   5.313  0.00  0.00    -0.289 N 
ATOM     18  H   LIG    1       27.552 -12.036   5.223  0.00  0.00    +0.255 HD
ATOM     19  H   LIG    1       26.220 -13.010   5.377  0.00  0.00    +0.255 HD
ENDBRANCH  14  17
ENDBRANCH  12  14
ENDBRANCH   5  12
BRANCH   1  20
ATOM     20  C   LIG    1       24.612 -17.607   3.465  0.00  0.00    +0.085 C 
BRANCH  20  21
ATOM     21  N   LIG    1       23.151 -17.559   3.527  0.00  0.00    -0.312 N 
ATOM     22  H   LIG    1       22.695 -16.901   2.903  0.00  0.00    +0.149 HD
ATOM     23  C   LIG    1       22.264 -18.238   4.305  0.00  0.00    +0.210 C 
ATOM     24  O   LIG    1       21.063 -18.015   4.150  0.00  0.00    -0.276 OA
ATOM     25  C   LIG    1       22.746 -19.214   5.343  0.00  0.00    +0.109 C 
ENDBRANCH  20  21
BRANCH  20  26
ATOM     26  C   LIG    1       25.133 -19.025   3.992  0.00  0.00    +0.009 C 
BRANCH  26  28
ATOM     27  C   LIG    1       27.116 -19.939   5.481  0.00  0.00    +0.004 C 
ATOM     28  C   LIG    1       26.655 -19.010   4.345  0.00  0.00    +0.002 C 
ENDBRANCH  26  28
BRANCH  26  29
ATOM     29  C   LIG    1       24.944 -20.182   2.958  0.00  0.00    +0.002 C 
ATOM     30  C   LIG    1       24.211 -21.448   3.358  0.00  0.00    +0.004 C 
ENDBRANCH  26  29
ENDBRANCH  20  26
ENDBRANCH   1  20
TORSDOF 11
ENDMDL
MODEL 5
REMARK VINA RESULT:      -1.9      2.784      4.024
REMARK  Name = *****
REMARK                            x       y       z     vdW  Elec       q    Type
REMARK                         _______ _______ _______ _____ _____    ______ ____
ROOT
ATOM      1  C   LIG    1       25.746 -15.523   4.113  0.00  0.00    +0.076 C 
ATOM      2  C   LIG    1       24.602 -14.505   3.977  0.00  0.00    +0.137 C 
ATOM      3  C   LIG    1       24.783 -13.806   2.627  0.00  0.00    +0.130 C 
ATOM      4  C   LIG    1       26.295 -13.893   2.323  0.00  0.00    +0.058 C 
ATOM      5  C   LIG    1       26.921 -14.729   3.459  0.00  0.00    +0.153 C 
ENDROOT
BRANCH   2   6
ATOM      6  O   LIG    1       23.316 -15.094   4.037  0.00  0.00    -0.391 OA
ATOM      7  H   LIG    1       23.319 -15.694   4.808  0.00  0.00    +0.210 HD
ENDBRANCH   2   6
BRANCH   3   8
ATOM      8  C   LIG    1       24.305 -12.377   2.709  0.00  0.00    +0.310 C 
ATOM      9  O   LIG    1       24.445 -11.548   1.835  0.00  0.00    -0.251 OA
BRANCH   8  10
ATOM     10  O   LIG    1       23.705 -12.089   3.892  0.00  0.00    -0.480 OA
ATOM     11  H   LIG    1       23.422 -11.160   3.985  0.00  0.00    +0.295 HD
ENDBRANCH   8  10
ENDBRANCH   3   8
BRANCH   5  12
ATOM     12  N   LIG    1       27.560 -13.822   4.414  0.00  0.00    -0.273 N 
ATOM     13  H   LIG    1       27.350 -13.975   5.399  0.00  0.00    +0.258 HD
BRANCH  12  14
ATOM     14  C   LIG    1       28.638 -13.045   4.182  0.00  0.00    +0.376 C 
ATOM     15  N   LIG    1       29.471 -13.123   3.213  0.00  0.00    -0.130 NA
ATOM     16  H   LIG    1       29.191 -13.871   2.584  0.00  0.00    +0.306 HD
BRANCH  14  17
ATOM     17  N   LIG    1       28.826 -12.102   5.122  0.00  0.00    -0.289 N 
ATOM     18  H   LIG    1       29.185 -11.263   4.673  0.00  0.00    +0.255 HD
ATOM     19  H   LIG    1       27.989 -11.874   5.644  0.00  0.00    +0.255 HD
ENDBRANCH  14  17
ENDBRANCH  12  14
ENDBRANCH   5  12
BRANCH   1  20
ATOM     20  C   LIG    1       25.523 -16.978   3.539  0.00  0.00    +0.085 C 
BRANCH  20  21
ATOM     21  N   LIG    1       24.218 -17.469   3.978  0.00  0.00    -0.312 N 
ATOM     22  H   LIG    1       23.745 -16.921   4.690  0.00  0.00    +0.149 HD
ATOM     23  C   LIG    1       23.506 -18.571   3.614  0.00  0.00    +0.210 C 
ATOM     24  O   LIG    1       22.406 -18.754   4.137  0.00  0.00    -0.276 OA
ATOM     25  C   LIG    1       24.065 -19.549   2.618  0.00  0.00    +0.109 C 
ENDBRANCH  20  21
BRANCH  20  26
ATOM     26  C   LIG    1       26.648 -18.073   3.844  0.00  0.00    +0.009 C 
BRANCH  26  28
ATOM     27  C   LIG    1       26.270 -20.542   4.708  0.00  0.00    +0.004 C 
ATOM     28  C   LIG    1       26.249 -19.034   5.010  0.00  0.00    +0.002 C 
ENDBRANCH  26  28
BRANCH  26  29
ATOM     29  C   LIG    1       28.026 -17.455   4.251  0.00  0.00    +0.002 C 
ATOM     30  C   LIG    1       28.949 -18.207   5.190  0.00  0.00    +0.004 C 
ENDBRANCH  26  29
ENDBRANCH  20  26
ENDBRANCH   1  20
TORSDOF 11
ENDMDL
MODEL 6
REMARK VINA RESULT:      -1.8      2.920      5.254
REMARK  Name = *****
REMARK                            x       y       z     vdW  Elec       q    Type
REMARK                         _______ _______ _______ _____ _____    ______ ____
ROOT
ATOM      1  C   LIG    1       25.710 -14.730   4.638  0.00  0.00    +0.076 C 
ATOM      2  C   LIG    1       26.756 -13.727   5.152  0.00  0.00    +0.137 C 
ATOM      3  C   LIG    1       27.231 -12.917   3.943  0.00  0.00    +0.130 C 
ATOM      4  C   LIG    1       27.016 -13.842   2.724  0.00  0.00    +0.058 C 
ATOM      5  C   LIG    1       26.330 -15.116   3.258  0.00  0.00    +0.153 C 
ENDROOT
BRANCH   2   6
ATOM      6  O   LIG    1       26.254 -12.850   6.143  0.00  0.00    -0.391 OA
ATOM      7  H   LIG    1       25.818 -13.407   6.816  0.00  0.00    +0.210 HD
ENDBRANCH   2   6
BRANCH   3   8
ATOM      8  C   LIG    1       28.680 -12.529   4.108  0.00  0.00    +0.310 C 
ATOM      9  O   LIG    1       29.113 -11.829   4.998  0.00  0.00    -0.251 OA
BRANCH   8  10
ATOM     10  O   LIG    1       29.474 -13.034   3.129  0.00  0.00    -0.480 OA
ATOM     11  H   LIG    1       29.725 -12.389   2.441  0.00  0.00    +0.295 HD
ENDBRANCH   8  10
ENDBRANCH   3   8
BRANCH   5  12
ATOM     12  N   LIG    1       27.335 -16.172   3.392  0.00  0.00    -0.273 N 
ATOM     13  H   LIG    1       28.297 -15.871   3.533  0.00  0.00    +0.258 HD
BRANCH  12  14
ATOM     14  C   LIG    1       27.100 -17.467   3.690  0.00  0.00    +0.376 C 
ATOM     15  N   LIG    1       26.099 -18.186   3.343  0.00  0.00    -0.130 NA
ATOM     16  H   LIG    1       25.475 -17.637   2.756  0.00  0.00    +0.306 HD
BRANCH  14  17
ATOM     17  N   LIG    1       28.054 -18.016   4.463  0.00  0.00    -0.289 N 
ATOM     18  H   LIG    1       28.392 -17.311   5.112  0.00  0.00    +0.255 HD
ATOM     19  H   LIG    1       27.742 -18.830   4.979  0.00  0.00    +0.255 HD
ENDBRANCH  14  17
ENDBRANCH  12  14
ENDBRANCH   5  12
BRANCH   1  20
ATOM     20  C   LIG    1       24.199 -14.271   4.586  0.00  0.00    +0.085 C 
BRANCH  20  21
ATOM     21  N   LIG    1       23.362 -15.422   4.248  0.00  0.00    -0.312 N 
ATOM     22  H   LIG    1       23.507 -15.832   3.331  0.00  0.00    +0.149 HD
ATOM     23  C   LIG    1       22.379 -16.053   4.949  0.00  0.00    +0.210 C 
ATOM     24  O   LIG    1       21.825 -17.023   4.432  0.00  0.00    -0.276 OA
ATOM     25  C   LIG    1       21.968 -15.555   6.307  0.00  0.00    +0.109 C 
ENDBRANCH  20  21
BRANCH  20  26
ATOM     26  C   LIG    1       23.833 -13.035   3.639  0.00  0.00    +0.009 C 
BRANCH  26  28
ATOM     27  C   LIG    1       25.007 -11.528   1.813  0.00  0.00    +0.004 C 
ATOM     28  C   LIG    1       24.777 -12.932   2.397  0.00  0.00    +0.002 C 
ENDBRANCH  26  28
BRANCH  26  29
ATOM     29  C   LIG    1       23.922 -11.651   4.360  0.00  0.00    +0.002 C 
ATOM     30  C   LIG    1       23.245 -11.447   5.701  0.00  0.00    +0.004 C 
ENDBRANCH  26  29
ENDBRANCH  20  26
ENDBRANCH   1  20
TORSDOF 11
ENDMDL
