MODEL 1
REMARK VINA RESULT:      14.8      0.000      0.000
REMARK  Name = *****
REMARK                            x       y       z     vdW  Elec       q    Type
REMARK                         _______ _______ _______ _____ _____    ______ ____
ROOT
ATOM      1  C   LIG    1       26.303 -14.866   2.981  0.00  0.00    +0.106 C 
ATOM      2  C   LIG    1       25.707 -15.951   3.902  0.00  0.00    +0.172 C 
ATOM      3  C   LIG    1       24.560 -15.361   4.749  0.00  0.00    +0.175 C 
ATOM      4  C   LIG    1       23.385 -14.812   3.907  0.00  0.00    +0.169 C 
ATOM      5  C   LIG    1       23.826 -14.158   2.519  0.00  0.00    +0.084 C 
ATOM      6  C   LIG    1       25.233 -14.486   1.954  0.00  0.00    +0.046 C 
ENDROOT
BRANCH   1   8
ATOM      7  C   LIG    1       27.894 -13.904   4.607  0.00  0.00    +0.242 C 
ATOM      8  N   LIG    1       26.890 -13.726   3.670  0.00  0.00    -0.308 N 
ATOM      9  H   LIG    1       26.345 -12.858   3.709  0.00  0.00    +0.149 HD
ATOM     10  O   LIG    1       28.432 -14.972   4.811  0.00  0.00    -0.273 OA
BRANCH   7  11
ATOM     11  C   LIG    1       28.276 -12.619   5.380  0.00  0.00    +0.201 C 
BRANCH  11  12
ATOM     12  O   LIG    1       29.457 -12.007   4.875  0.00  0.00    -0.383 OA
ATOM     13  H   LIG    1       29.646 -11.240   5.449  0.00  0.00    +0.210 HD
ENDBRANCH  11  12
BRANCH  11  14
ATOM     14  C   LIG    1       27.101 -11.644   5.297  0.00  0.00    +0.056 C 
BRANCH  14  15
ATOM     15  C   LIG    1       25.868 -12.177   6.016  0.00  0.00    +0.080 C 
BRANCH  15  16
ATOM     16  N   LIG    1       24.665 -11.603   5.422  0.00  0.00    -0.330 NA
ATOM     17  H   LIG    1       24.215 -12.287   4.815  0.00  0.00    +0.118 HD
ATOM     18  H   LIG    1       23.999 -11.380   6.159  0.00  0.00    +0.118 HD
ENDBRANCH  15  16
ENDBRANCH  14  15
ENDBRANCH  11  14
ENDBRANCH   7  11
ENDBRANCH   1   8
BRANCH   5  19
ATOM     19  N   LIG    1       23.720 -12.677   2.535  0.00  0.00    -0.325 NA
ATOM     20  H   LIG    1       23.414 -12.393   3.468  0.00  0.00    +0.118 HD
ATOM     21  H   LIG    1       22.953 -12.385   1.923  0.00  0.00    +0.118 HD
ENDBRANCH   5  19
BRANCH   3  22
ATOM     22  O   LIG    1       25.027 -14.344   5.643  0.00  0.00    -0.387 OA
ATOM     23  H   LIG    1       25.276 -14.776   6.477  0.00  0.00    +0.210 HD
ENDBRANCH   3  22
BRANCH   2  24
ATOM     24  O   LIG    1       25.169 -17.074   3.166  0.00  0.00    -0.341 OA
BRANCH  24  25
ATOM     25  C   LIG    1       25.324 -18.349   3.815  0.00  0.00    +0.281 C 
ATOM     26  C   LIG    1       26.485 -18.185   4.815  0.00  0.00    +0.189 C 
ATOM     27  C   LIG    1       26.810 -19.508   5.537  0.00  0.00    +0.116 C 
ATOM     28  C   LIG    1       26.968 -20.633   4.486  0.00  0.00    +0.165 C 
ATOM     29  C   LIG    1       25.859 -20.657   3.412  0.00  0.00    +0.177 C 
ATOM     30  O   LIG    1       25.617 -19.353   2.854  0.00  0.00    -0.341 OA
BRANCH  27  31
ATOM     31  N   LIG    1       25.850 -19.854   6.599  0.00  0.00    -0.323 NA
ATOM     32  H   LIG    1       25.056 -19.217   6.579  0.00  0.00    +0.119 HD
ATOM     33  H   LIG    1       25.481 -20.801   6.443  0.00  0.00    +0.119 HD
ENDBRANCH  27  31
BRANCH  26  34
ATOM     34  O   LIG    1       27.656 -17.741   4.093  0.00  0.00    -0.385 OA
ATOM     35  H   LIG    1       27.437 -17.915   3.153  0.00  0.00    +0.210 HD
ENDBRANCH  26  34
BRANCH  28  36
ATOM     36  O   LIG    1       28.233 -20.452   3.813  0.00  0.00    -0.388 OA
ATOM     37  H   LIG    1       28.433 -21.301   3.361  0.00  0.00    +0.210 HD
ENDBRANCH  28  36
BRANCH  29  38
ATOM     38  C   LIG    1       24.551 -21.355   3.836  0.00  0.00    +0.190 C 
BRANCH  38  39
ATOM     39  O   LIG    1       23.633 -21.570   2.763  0.00  0.00    -0.392 OA
ATOM     40  H   LIG    1       22.868 -22.033   3.151  0.00  0.00    +0.209 HD
ENDBRANCH  38  39
ENDBRANCH  29  38
ENDBRANCH  24  25
ENDBRANCH   2  24
BRANCH   4  41
ATOM     41  O   LIG    1       22.363 -15.818   3.676  0.00  0.00    -0.342 OA
BRANCH  41  42
ATOM     42  C   LIG    1       22.628 -17.184   4.124  0.00  0.00    +0.268 C 
ATOM     43  C   LIG    1       22.123 -18.161   2.989  0.00  0.00    +0.107 C 
ATOM     44  C   LIG    1       22.130 -19.631   3.431  0.00  0.00    +0.026 C 
ATOM     45  C   LIG    1       21.356 -19.782   4.730  0.00  0.00    +0.035 C 
ATOM     46  C   LIG    1       21.933 -18.847   5.794  0.00  0.00    +0.135 C 
ATOM     47  O   LIG    1       21.964 -17.467   5.367  0.00  0.00    -0.345 OA
BRANCH  43  48
ATOM     48  N   LIG    1       20.740 -17.810   2.587  0.00  0.00    -0.323 NA
ATOM     49  H   LIG    1       20.640 -17.835   1.574  0.00  0.00    +0.119 HD
ATOM     50  H   LIG    1       20.133 -18.549   2.952  0.00  0.00    +0.119 HD
ENDBRANCH  43  48
BRANCH  46  51
ATOM     51  C   LIG    1       23.306 -19.366   6.289  0.00  0.00    +0.109 C 
BRANCH  51  52
ATOM     52  N   LIG    1       23.225 -20.724   6.822  0.00  0.00    -0.328 NA
ATOM     53  H   LIG    1       23.969 -20.842   7.510  0.00  0.00    +0.118 HD
ATOM     54  H   LIG    1       22.357 -20.827   7.349  0.00  0.00    +0.118 HD
ENDBRANCH  51  52
ENDBRANCH  46  51
ENDBRANCH  41  42
ENDBRANCH   4  41
TORSDOF 20
ENDMDL
MODEL 2
REMARK VINA RESULT:      15.2      1.824      2.117
REMARK  Name = *****
REMARK                            x       y       z     vdW  Elec       q    Type
REMARK                         _______ _______ _______ _____ _____    ______ ____
ROOT
ATOM      1  C   LIG    1       26.719 -15.174   2.935  0.00  0.00    +0.106 C 
ATOM      2  C   LIG    1       26.486 -15.738   4.353  0.00  0.00    +0.172 C 
ATOM      3  C   LIG    1       25.547 -14.808   5.150  0.00  0.00    +0.175 C 
ATOM      4  C   LIG    1       24.148 -14.644   4.513  0.00  0.00    +0.169 C 
ATOM      5  C   LIG    1       24.151 -14.665   2.916  0.00  0.00    +0.084 C 
ATOM      6  C   LIG    1       25.389 -15.244   2.181  0.00  0.00    +0.046 C 
ENDROOT
BRANCH   1   8
ATOM      7  C   LIG    1       28.606 -13.665   3.445  0.00  0.00    +0.242 C 
ATOM      8  N   LIG    1       27.354 -13.865   2.889  0.00  0.00    -0.308 N 
ATOM      9  H   LIG    1       26.752 -13.046   2.752  0.00  0.00    +0.149 HD
ATOM     10  O   LIG    1       29.297 -14.566   3.872  0.00  0.00    -0.273 OA
BRANCH   7  11
ATOM     11  C   LIG    1       29.056 -12.185   3.479  0.00  0.00    +0.201 C 
BRANCH  11  12
ATOM     12  O   LIG    1       28.597 -11.447   2.352  0.00  0.00    -0.383 OA
ATOM     13  H   LIG    1       27.640 -11.620   2.271  0.00  0.00    +0.210 HD
ENDBRANCH  11  12
BRANCH  11  14
ATOM     14  C   LIG    1       28.530 -11.555   4.769  0.00  0.00    +0.056 C 
BRANCH  14  15
ATOM     15  C   LIG    1       29.153 -12.189   6.007  0.00  0.00    +0.080 C 
BRANCH  15  16
ATOM     16  N   LIG    1       28.240 -13.183   6.562  0.00  0.00    -0.330 NA
ATOM     17  H   LIG    1       28.292 -13.175   7.579  0.00  0.00    +0.118 HD
ATOM     18  H   LIG    1       27.283 -12.938   6.314  0.00  0.00    +0.118 HD
ENDBRANCH  15  16
ENDBRANCH  14  15
ENDBRANCH  11  14
ENDBRANCH   7  11
ENDBRANCH   1   8
BRANCH   5  19
ATOM     19  N   LIG    1       23.914 -13.320   2.334  0.00  0.00    -0.325 NA
ATOM     20  H   LIG    1       23.626 -13.444   1.361  0.00  0.00    +0.118 HD
ATOM     21  H   LIG    1       24.803 -12.818   2.268  0.00  0.00    +0.118 HD
ENDBRANCH   5  19
BRANCH   3  22
ATOM     22  O   LIG    1       26.132 -13.519   5.365  0.00  0.00    -0.387 OA
ATOM     23  H   LIG    1       26.799 -13.378   4.673  0.00  0.00    +0.210 HD
ENDBRANCH   3  22
BRANCH   2  24
ATOM     24  O   LIG    1       25.884 -17.053   4.338  0.00  0.00    -0.341 OA
BRANCH  24  25
ATOM     25  C   LIG    1       26.558 -18.033   5.149  0.00  0.00    +0.281 C 
ATOM     26  C   LIG    1       28.064 -17.859   4.871  0.00  0.00    +0.189 C 
ATOM     27  C   LIG    1       28.909 -18.903   5.628  0.00  0.00    +0.116 C 
ATOM     28  C   LIG    1       28.325 -20.312   5.368  0.00  0.00    +0.165 C 
ATOM     29  C   LIG    1       26.789 -20.398   5.508  0.00  0.00    +0.177 C 
ATOM     30  O   LIG    1       26.122 -19.338   4.799  0.00  0.00    -0.341 OA
BRANCH  27  31
ATOM     31  N   LIG    1       29.068 -18.610   7.062  0.00  0.00    -0.323 NA
ATOM     32  H   LIG    1       29.750 -17.868   7.198  0.00  0.00    +0.119 HD
ATOM     33  H   LIG    1       28.177 -18.276   7.452  0.00  0.00    +0.119 HD
ENDBRANCH  27  31
BRANCH  26  34
ATOM     34  O   LIG    1       28.291 -18.007   3.451  0.00  0.00    -0.385 OA
ATOM     35  H   LIG    1       29.129 -18.513   3.395  0.00  0.00    +0.210 HD
ENDBRANCH  26  34
BRANCH  28  36
ATOM     36  O   LIG    1       28.670 -20.707   4.022  0.00  0.00    -0.388 OA
ATOM     37  H   LIG    1       27.895 -21.193   3.666  0.00  0.00    +0.210 HD
ENDBRANCH  28  36
BRANCH  29  38
ATOM     38  C   LIG    1       26.270 -20.542   6.952  0.00  0.00    +0.190 C 
BRANCH  38  39
ATOM     39  O   LIG    1       24.846 -20.528   7.061  0.00  0.00    -0.392 OA
ATOM     40  H   LIG    1       24.547 -19.733   6.583  0.00  0.00    +0.209 HD
ENDBRANCH  38  39
ENDBRANCH  29  38
ENDBRANCH  24  25
ENDBRANCH   2  24
BRANCH   4  41
ATOM     41  O   LIG    1       23.200 -15.622   5.017  0.00  0.00    -0.342 OA
BRANCH  41  42
ATOM     42  C   LIG    1       22.995 -16.845   4.241  0.00  0.00    +0.268 C 
ATOM     43  C   LIG    1       21.482 -16.868   3.786  0.00  0.00    +0.107 C 
ATOM     44  C   LIG    1       21.075 -18.210   3.161  0.00  0.00    +0.026 C 
ATOM     45  C   LIG    1       21.427 -19.346   4.107  0.00  0.00    +0.035 C 
ATOM     46  C   LIG    1       22.914 -19.291   4.461  0.00  0.00    +0.135 C 
ATOM     47  O   LIG    1       23.308 -18.016   5.014  0.00  0.00    -0.345 OA
BRANCH  43  48
ATOM     48  N   LIG    1       20.592 -16.614   4.945  0.00  0.00    -0.323 NA
ATOM     49  H   LIG    1       21.047 -16.880   5.815  0.00  0.00    +0.119 HD
ATOM     50  H   LIG    1       20.455 -15.601   4.991  0.00  0.00    +0.119 HD
ENDBRANCH  43  48
BRANCH  46  51
ATOM     51  C   LIG    1       23.778 -19.729   3.253  0.00  0.00    +0.109 C 
BRANCH  51  52
ATOM     52  N   LIG    1       24.080 -21.158   3.276  0.00  0.00    -0.328 NA
ATOM     53  H   LIG    1       23.251 -21.665   2.968  0.00  0.00    +0.118 HD
ATOM     54  H   LIG    1       24.793 -21.362   2.575  0.00  0.00    +0.118 HD
ENDBRANCH  51  52
ENDBRANCH  46  51
ENDBRANCH  41  42
ENDBRANCH   4  41
TORSDOF 20
ENDMDL
MODEL 3
REMARK VINA RESULT:      16.3      1.134      1.954
REMARK  Name = *****
REMARK                            x       y       z     vdW  Elec       q    Type
REMARK                         _______ _______ _______ _____ _____    ______ ____
ROOT
ATOM      1  C   LIG    1       26.113 -14.818   3.056  0.00  0.00    +0.106 C 
ATOM      2  C   LIG    1       25.558 -15.947   3.950  0.00  0.00    +0.172 C 
ATOM      3  C   LIG    1       24.459 -15.396   4.883  0.00  0.00    +0.175 C 
ATOM      4  C   LIG    1       23.245 -14.802   4.132  0.00  0.00    +0.169 C 
ATOM      5  C   LIG    1       23.619 -14.079   2.757  0.00  0.00    +0.084 C 
ATOM      6  C   LIG    1       24.994 -14.383   2.106  0.00  0.00    +0.046 C 
ENDROOT
BRANCH   1   8
ATOM      7  C   LIG    1       27.946 -13.892   4.428  0.00  0.00    +0.242 C 
ATOM      8  N   LIG    1       26.740 -13.716   3.771  0.00  0.00    -0.308 N 
ATOM      9  H   LIG    1       26.144 -12.934   4.062  0.00  0.00    +0.149 HD
ATOM     10  O   LIG    1       28.610 -14.904   4.341  0.00  0.00    -0.273 OA
BRANCH   7  11
ATOM     11  C   LIG    1       28.381 -12.684   5.291  0.00  0.00    +0.201 C 
BRANCH  11  12
ATOM     12  O   LIG    1       29.055 -11.684   4.533  0.00  0.00    -0.383 OA
ATOM     13  H   LIG    1       29.861 -12.099   4.172  0.00  0.00    +0.210 HD
ENDBRANCH  11  12
BRANCH  11  14
ATOM     14  C   LIG    1       27.135 -12.093   5.950  0.00  0.00    +0.056 C 
BRANCH  14  15
ATOM     15  C   LIG    1       26.050 -11.772   4.929  0.00  0.00    +0.080 C 
BRANCH  15  16
ATOM     16  N   LIG    1       24.763 -11.639   5.603  0.00  0.00    -0.330 NA
ATOM     17  H   LIG    1       24.156 -12.418   5.353  0.00  0.00    +0.118 HD
ATOM     18  H   LIG    1       24.904 -11.687   6.611  0.00  0.00    +0.118 HD
ENDBRANCH  15  16
ENDBRANCH  14  15
ENDBRANCH  11  14
ENDBRANCH   7  11
ENDBRANCH   1   8
BRANCH   5  19
ATOM     19  N   LIG    1       23.523 -12.602   2.853  0.00  0.00    -0.325 NA
ATOM     20  H   LIG    1       24.426 -12.246   3.174  0.00  0.00    +0.118 HD
ATOM     21  H   LIG    1       22.877 -12.351   3.607  0.00  0.00    +0.118 HD
ENDBRANCH   5  19
BRANCH   3  22
ATOM     22  O   LIG    1       24.976 -14.427   5.802  0.00  0.00    -0.387 OA
ATOM     23  H   LIG    1       24.350 -14.359   6.542  0.00  0.00    +0.210 HD
ENDBRANCH   3  22
BRANCH   2  24
ATOM     24  O   LIG    1       24.977 -17.029   3.187  0.00  0.00    -0.341 OA
BRANCH  24  25
ATOM     25  C   LIG    1       25.642 -18.297   3.339  0.00  0.00    +0.281 C 
ATOM     26  C   LIG    1       24.998 -19.245   2.310  0.00  0.00    +0.189 C 
ATOM     27  C   LIG    1       25.571 -20.673   2.410  0.00  0.00    +0.116 C 
ATOM     28  C   LIG    1       25.525 -21.134   3.887  0.00  0.00    +0.165 C 
ATOM     29  C   LIG    1       26.039 -20.084   4.895  0.00  0.00    +0.177 C 
ATOM     30  O   LIG    1       25.468 -18.784   4.661  0.00  0.00    -0.341 OA
BRANCH  27  31
ATOM     31  N   LIG    1       26.909 -20.818   1.812  0.00  0.00    -0.323 NA
ATOM     32  H   LIG    1       26.989 -20.236   0.981  0.00  0.00    +0.119 HD
ATOM     33  H   LIG    1       27.626 -20.498   2.475  0.00  0.00    +0.119 HD
ENDBRANCH  27  31
BRANCH  26  34
ATOM     34  O   LIG    1       23.574 -19.290   2.552  0.00  0.00    -0.385 OA
ATOM     35  H   LIG    1       23.287 -20.131   2.137  0.00  0.00    +0.210 HD
ENDBRANCH  26  34
BRANCH  28  36
ATOM     36  O   LIG    1       24.154 -21.440   4.225  0.00  0.00    -0.388 OA
ATOM     37  H   LIG    1       23.607 -21.152   3.462  0.00  0.00    +0.210 HD
ENDBRANCH  28  36
BRANCH  29  38
ATOM     38  C   LIG    1       27.572 -20.021   5.052  0.00  0.00    +0.190 C 
BRANCH  38  39
ATOM     39  O   LIG    1       28.126 -18.724   4.825  0.00  0.00    -0.392 OA
ATOM     40  H   LIG    1       27.689 -18.380   4.024  0.00  0.00    +0.209 HD
ENDBRANCH  38  39
ENDBRANCH  29  38
ENDBRANCH  24  25
ENDBRANCH   2  24
BRANCH   4  41
ATOM     41  O   LIG    1       22.208 -15.791   3.902  0.00  0.00    -0.342 OA
BRANCH  41  42
ATOM     42  C   LIG    1       22.496 -17.184   4.245  0.00  0.00    +0.268 C 
ATOM     43  C   LIG    1       21.755 -18.094   3.188  0.00  0.00    +0.107 C 
ATOM     44  C   LIG    1       21.784 -19.582   3.568  0.00  0.00    +0.026 C 
ATOM     45  C   LIG    1       21.254 -19.762   4.981  0.00  0.00    +0.035 C 
ATOM     46  C   LIG    1       22.052 -18.892   5.954  0.00  0.00    +0.135 C 
ATOM     47  O   LIG    1       22.059 -17.497   5.578  0.00  0.00    -0.345 OA
BRANCH  43  48
ATOM     48  N   LIG    1       20.336 -17.683   3.059  0.00  0.00    -0.323 NA
ATOM     49  H   LIG    1       19.989 -17.869   2.121  0.00  0.00    +0.119 HD
ATOM     50  H   LIG    1       19.799 -18.286   3.688  0.00  0.00    +0.119 HD
ENDBRANCH  43  48
BRANCH  46  51
ATOM     51  C   LIG    1       23.471 -19.476   6.169  0.00  0.00    +0.109 C 
BRANCH  51  52
ATOM     52  N   LIG    1       23.442 -20.760   6.865  0.00  0.00    -0.328 NA
ATOM     53  H   LIG    1       22.880 -20.654   7.709  0.00  0.00    +0.118 HD
ATOM     54  H   LIG    1       22.940 -21.440   6.294  0.00  0.00    +0.118 HD
ENDBRANCH  51  52
ENDBRANCH  46  51
ENDBRANCH  41  42
ENDBRANCH   4  41
TORSDOF 20
ENDMDL
MODEL 4
REMARK VINA RESULT:      17.4      2.056      6.256
REMARK  Name = *****
REMARK                            x       y       z     vdW  Elec       q    Type
REMARK                         _______ _______ _______ _____ _____    ______ ____
ROOT
ATOM      1  C   LIG    1       23.455 -18.933   5.244  0.00  0.00    +0.106 C 
ATOM      2  C   LIG    1       24.235 -18.771   3.923  0.00  0.00    +0.172 C 
ATOM      3  C   LIG    1       23.375 -18.019   2.885  0.00  0.00    +0.175 C 
ATOM      4  C   LIG    1       22.970 -16.594   3.329  0.00  0.00    +0.169 C 
ATOM      5  C   LIG    1       22.711 -16.448   4.898  0.00  0.00    +0.084 C 
ATOM      6  C   LIG    1       23.266 -17.540   5.850  0.00  0.00    +0.046 C 
ENDROOT
BRANCH   1   8
ATOM      7  C   LIG    1       22.204 -20.925   4.490  0.00  0.00    +0.242 C 
ATOM      8  N   LIG    1       22.224 -19.704   5.143  0.00  0.00    -0.308 N 
ATOM      9  H   LIG    1       21.336 -19.203   5.254  0.00  0.00    +0.149 HD
ATOM     10  O   LIG    1       23.204 -21.484   4.092  0.00  0.00    -0.273 OA
BRANCH   7  11
ATOM     11  C   LIG    1       20.789 -21.524   4.308  0.00  0.00    +0.201 C 
BRANCH  11  12
ATOM     12  O   LIG    1       20.053 -21.571   5.526  0.00  0.00    -0.383 OA
ATOM     13  H   LIG    1       20.365 -22.357   6.014  0.00  0.00    +0.210 HD
ENDBRANCH  11  12
BRANCH  11  14
ATOM     14  C   LIG    1       20.041 -20.679   3.276  0.00  0.00    +0.056 C 
BRANCH  14  15
ATOM     15  C   LIG    1       19.440 -19.424   3.897  0.00  0.00    +0.080 C 
BRANCH  15  16
ATOM     16  N   LIG    1       19.744 -18.267   3.060  0.00  0.00    -0.330 NA
ATOM     17  H   LIG    1       20.063 -18.574   2.143  0.00  0.00    +0.118 HD
ATOM     18  H   LIG    1       18.893 -17.728   2.910  0.00  0.00    +0.118 HD
ENDBRANCH  15  16
ENDBRANCH  14  15
ENDBRANCH  11  14
ENDBRANCH   7  11
ENDBRANCH   1   8
BRANCH   5  19
ATOM     19  N   LIG    1       21.269 -16.310   5.220  0.00  0.00    -0.325 NA
ATOM     20  H   LIG    1       20.869 -17.249   5.286  0.00  0.00    +0.118 HD
ATOM     21  H   LIG    1       20.781 -15.889   4.425  0.00  0.00    +0.118 HD
ENDBRANCH   5  19
BRANCH   3  22
ATOM     22  O   LIG    1       22.204 -18.761   2.525  0.00  0.00    -0.387 OA
ATOM     23  H   LIG    1       22.363 -19.156   1.652  0.00  0.00    +0.210 HD
ENDBRANCH   3  22
BRANCH   2  24
ATOM     24  O   LIG    1       25.464 -18.027   4.088  0.00  0.00    -0.341 OA
BRANCH  24  25
ATOM     25  C   LIG    1       26.405 -18.614   5.005  0.00  0.00    +0.281 C 
ATOM     26  C   LIG    1       27.743 -17.886   4.775  0.00  0.00    +0.189 C 
ATOM     27  C   LIG    1       28.870 -18.468   5.651  0.00  0.00    +0.116 C 
ATOM     28  C   LIG    1       28.894 -20.007   5.487  0.00  0.00    +0.165 C 
ATOM     29  C   LIG    1       27.504 -20.675   5.572  0.00  0.00    +0.177 C 
ATOM     30  O   LIG    1       26.531 -20.006   4.749  0.00  0.00    -0.341 OA
BRANCH  27  31
ATOM     31  N   LIG    1       28.803 -18.048   7.060  0.00  0.00    -0.323 NA
ATOM     32  H   LIG    1       29.295 -17.167   7.190  0.00  0.00    +0.119 HD
ATOM     33  H   LIG    1       27.824 -17.889   7.332  0.00  0.00    +0.119 HD
ENDBRANCH  27  31
BRANCH  26  34
ATOM     34  O   LIG    1       28.108 -18.021   3.383  0.00  0.00    -0.385 OA
ATOM     35  H   LIG    1       28.553 -18.894   3.337  0.00  0.00    +0.210 HD
ENDBRANCH  26  34
BRANCH  28  36
ATOM     36  O   LIG    1       29.458 -20.319   4.194  0.00  0.00    -0.388 OA
ATOM     37  H   LIG    1       30.427 -20.409   4.327  0.00  0.00    +0.210 HD
ENDBRANCH  28  36
BRANCH  29  38
ATOM     38  C   LIG    1       26.981 -20.920   7.001  0.00  0.00    +0.190 C 
BRANCH  38  39
ATOM     39  O   LIG    1       25.617 -21.342   7.056  0.00  0.00    -0.392 OA
ATOM     40  H   LIG    1       25.615 -22.186   7.543  0.00  0.00    +0.209 HD
ENDBRANCH  38  39
ENDBRANCH  29  38
ENDBRANCH  24  25
ENDBRANCH   2  24
BRANCH   4  41
ATOM     41  O   LIG    1       23.928 -15.593   2.892  0.00  0.00    -0.342 OA
BRANCH  41  42
ATOM     42  C   LIG    1       24.577 -14.771   3.912  0.00  0.00    +0.268 C 
ATOM     43  C   LIG    1       24.003 -13.305   3.775  0.00  0.00    +0.107 C 
ATOM     44  C   LIG    1       24.769 -12.289   4.634  0.00  0.00    +0.026 C 
ATOM     45  C   LIG    1       26.256 -12.374   4.327  0.00  0.00    +0.035 C 
ATOM     46  C   LIG    1       26.751 -13.806   4.532  0.00  0.00    +0.135 C 
ATOM     47  O   LIG    1       26.006 -14.770   3.755  0.00  0.00    -0.345 OA
BRANCH  43  48
ATOM     48  N   LIG    1       24.071 -12.856   2.364  0.00  0.00    -0.323 NA
ATOM     49  H   LIG    1       24.512 -11.942   2.296  0.00  0.00    +0.119 HD
ATOM     50  H   LIG    1       24.690 -13.510   1.879  0.00  0.00    +0.119 HD
ENDBRANCH  43  48
BRANCH  46  51
ATOM     51  C   LIG    1       26.812 -14.151   6.041  0.00  0.00    +0.109 C 
BRANCH  51  52
ATOM     52  N   LIG    1       27.760 -13.308   6.764  0.00  0.00    -0.328 NA
ATOM     53  H   LIG    1       27.389 -13.137   7.698  0.00  0.00    +0.118 HD
ATOM     54  H   LIG    1       28.626 -13.827   6.913  0.00  0.00    +0.118 HD
ENDBRANCH  51  52
ENDBRANCH  46  51
ENDBRANCH  41  42
ENDBRANCH   4  41
TORSDOF 20
ENDMDL
