MODEL 1
REMARK VINA RESULT:      -9.1      0.000      0.000
REMARK  Name = *****
REMARK                            x       y       z     vdW  Elec       q    Type
REMARK                         _______ _______ _______ _____ _____    ______ ____
ROOT
ATOM      1  C   LIG    1       30.557 -19.426   6.138  0.00  0.00    +0.044 C 
ATOM      2  C   LIG    1       29.753 -19.112   7.380  0.00  0.00    -0.050 C 
ATOM      3  C   LIG    1       30.385 -18.500   8.410  0.00  0.00    +0.003 C 
ENDROOT
BRANCH   3   4
ATOM      4  C   LIG    1       29.855 -18.056   9.687  0.00  0.00    +0.001 C 
ATOM      5  C   LIG    1       30.454 -17.257  10.592  0.00  0.00    +0.003 C 
BRANCH   5   6
ATOM      6  C   LIG    1       31.781 -16.648  10.598  0.00  0.00    -0.044 C 
ATOM      7  C   LIG    1       32.499 -16.253  11.657  0.00  0.00    +0.094 C 
ATOM      8  C   LIG    1       32.344 -16.315   9.227  0.00  0.00    +0.044 C 
BRANCH   7   9
ATOM      9  C   LIG    1       32.283 -16.307  13.117  0.00  0.00    +0.330 C 
ATOM     10  O   LIG    1       32.547 -17.278  13.782  0.00  0.00    -0.246 OA
BRANCH   9  11
ATOM     11  O   LIG    1       31.781 -15.202  13.670  0.00  0.00    -0.477 OA
ATOM     12  H   LIG    1       32.424 -14.509  13.418  0.00  0.00    +0.295 HD
ENDBRANCH   9  11
ENDBRANCH   7   9
ENDBRANCH   5   6
ENDBRANCH   3   4
BRANCH   2  13
ATOM     13  C   LIG    1       28.327 -19.467   7.365  0.00  0.00    +0.003 C 
ATOM     14  C   LIG    1       27.664 -20.198   6.443  0.00  0.00    +0.004 C 
BRANCH  14  15
ATOM     15  C   LIG    1       26.231 -20.581   6.466  0.00  0.00    -0.043 C 
ATOM     16  C   LIG    1       25.760 -21.442   7.696  0.00  0.00    -0.010 C 
ATOM     17  C   LIG    1       26.717 -22.618   8.018  0.00  0.00    +0.016 C 
ATOM     18  C   LIG    1       25.619 -20.577   8.971  0.00  0.00    +0.016 C 
ATOM     19  C   LIG    1       24.378 -22.108   7.417  0.00  0.00    +0.011 C 
ATOM     20  C   LIG    1       23.376 -21.111   6.872  0.00  0.00    +0.005 C 
ATOM     21  C   LIG    1       23.869 -20.584   5.541  0.00  0.00    +0.031 C 
ATOM     22  C   LIG    1       25.352 -20.275   5.469  0.00  0.00    -0.069 C 
ATOM     23  C   LIG    1       25.672 -19.611   4.147  0.00  0.00    +0.039 C 
ENDBRANCH  14  15
ENDBRANCH   2  13
TORSDOF 6
ENDMDL
MODEL 2
REMARK VINA RESULT:      -8.8      6.362      9.969
REMARK  Name = *****
REMARK                            x       y       z     vdW  Elec       q    Type
REMARK                         _______ _______ _______ _____ _____    ______ ____
ROOT
ATOM      1  C   LIG    1       22.667 -23.699   6.873  0.00  0.00    +0.044 C 
ATOM      2  C   LIG    1       23.964 -24.205   6.280  0.00  0.00    -0.050 C 
ATOM      3  C   LIG    1       24.008 -25.487   5.846  0.00  0.00    +0.003 C 
ENDROOT
BRANCH   3   4
ATOM      4  C   LIG    1       25.096 -26.211   5.212  0.00  0.00    +0.001 C 
ATOM      5  C   LIG    1       25.710 -27.325   5.656  0.00  0.00    +0.003 C 
BRANCH   5   6
ATOM      6  C   LIG    1       25.519 -28.097   6.881  0.00  0.00    -0.044 C 
ATOM      7  C   LIG    1       24.724 -29.159   7.067  0.00  0.00    +0.094 C 
ATOM      8  C   LIG    1       26.214 -27.539   8.111  0.00  0.00    +0.044 C 
BRANCH   7   9
ATOM      9  C   LIG    1       23.834 -29.938   6.183  0.00  0.00    +0.330 C 
ATOM     10  O   LIG    1       23.664 -31.125   6.307  0.00  0.00    -0.246 OA
BRANCH   9  11
ATOM     11  O   LIG    1       23.210 -29.243   5.230  0.00  0.00    -0.477 OA
ATOM     12  H   LIG    1       23.348 -28.313   5.499  0.00  0.00    +0.295 HD
ENDBRANCH   9  11
ENDBRANCH   7   9
ENDBRANCH   5   6
ENDBRANCH   3   4
BRANCH   2  13
ATOM     13  C   LIG    1       25.077 -23.251   6.189  0.00  0.00    +0.003 C 
ATOM     14  C   LIG    1       25.022 -21.903   6.255  0.00  0.00    +0.004 C 
BRANCH  14  15
ATOM     15  C   LIG    1       26.164 -20.957   6.202  0.00  0.00    -0.043 C 
ATOM     16  C   LIG    1       27.079 -20.896   7.481  0.00  0.00    -0.010 C 
ATOM     17  C   LIG    1       26.273 -20.815   8.803  0.00  0.00    +0.016 C 
ATOM     18  C   LIG    1       28.014 -22.126   7.566  0.00  0.00    +0.016 C 
ATOM     19  C   LIG    1       27.972 -19.618   7.471  0.00  0.00    +0.011 C 
ATOM     20  C   LIG    1       28.668 -19.431   6.138  0.00  0.00    +0.005 C 
ATOM     21  C   LIG    1       27.628 -19.231   5.056  0.00  0.00    +0.031 C 
ATOM     22  C   LIG    1       26.407 -20.127   5.147  0.00  0.00    -0.069 C 
ATOM     23  C   LIG    1       25.538 -19.932   3.925  0.00  0.00    +0.039 C 
ENDBRANCH  14  15
ENDBRANCH   2  13
TORSDOF 6
ENDMDL
MODEL 3
REMARK VINA RESULT:      -8.5      2.928      4.309
REMARK  Name = *****
REMARK                            x       y       z     vdW  Elec       q    Type
REMARK                         _______ _______ _______ _____ _____    ______ ____
ROOT
ATOM      1  C   LIG    1       26.704 -22.680   8.666  0.00  0.00    +0.044 C 
ATOM      2  C   LIG    1       27.167 -21.615   7.697  0.00  0.00    -0.050 C 
ATOM      3  C   LIG    1       28.498 -21.477   7.490  0.00  0.00    +0.003 C 
ENDROOT
BRANCH   3   4
ATOM      4  C   LIG    1       29.207 -20.574   6.601  0.00  0.00    +0.001 C 
ATOM      5  C   LIG    1       30.173 -19.692   6.924  0.00  0.00    +0.003 C 
BRANCH   5   6
ATOM      6  C   LIG    1       30.754 -19.345   8.218  0.00  0.00    -0.044 C 
ATOM      7  C   LIG    1       31.225 -20.176   9.156  0.00  0.00    +0.094 C 
ATOM      8  C   LIG    1       30.693 -17.870   8.579  0.00  0.00    +0.044 C 
BRANCH   7   9
ATOM      9  C   LIG    1       31.378 -21.643   9.240  0.00  0.00    +0.330 C 
ATOM     10  O   LIG    1       30.798 -22.315  10.055  0.00  0.00    -0.246 OA
BRANCH   9  11
ATOM     11  O   LIG    1       32.198 -22.193   8.343  0.00  0.00    -0.477 OA
ATOM     12  H   LIG    1       33.067 -21.800   8.558  0.00  0.00    +0.295 HD
ENDBRANCH   9  11
ENDBRANCH   7   9
ENDBRANCH   5   6
ENDBRANCH   3   4
BRANCH   2  13
ATOM     13  C   LIG    1       26.129 -20.826   7.019  0.00  0.00    +0.003 C 
ATOM     14  C   LIG    1       25.535 -21.080   5.833  0.00  0.00    +0.004 C 
BRANCH  14  15
ATOM     15  C   LIG    1       24.458 -20.293   5.184  0.00  0.00    -0.043 C 
ATOM     16  C   LIG    1       22.993 -20.564   5.693  0.00  0.00    -0.010 C 
ATOM     17  C   LIG    1       22.663 -22.074   5.819  0.00  0.00    +0.016 C 
ATOM     18  C   LIG    1       22.741 -19.903   7.068  0.00  0.00    +0.016 C 
ATOM     19  C   LIG    1       21.939 -20.000   4.692  0.00  0.00    +0.011 C 
ATOM     20  C   LIG    1       22.256 -18.574   4.289  0.00  0.00    +0.005 C 
ATOM     21  C   LIG    1       23.586 -18.544   3.566  0.00  0.00    +0.031 C 
ATOM     22  C   LIG    1       24.675 -19.417   4.161  0.00  0.00    -0.069 C 
ATOM     23  C   LIG    1       25.981 -19.167   3.440  0.00  0.00    +0.039 C 
ENDBRANCH  14  15
ENDBRANCH   2  13
TORSDOF 6
ENDMDL
MODEL 4
REMARK VINA RESULT:      -8.2      1.986      3.504
REMARK  Name = *****
REMARK                            x       y       z     vdW  Elec       q    Type
REMARK                         _______ _______ _______ _____ _____    ______ ____
ROOT
ATOM      1  C   LIG    1       27.336 -22.684   7.592  0.00  0.00    +0.044 C 
ATOM      2  C   LIG    1       27.577 -21.271   7.108  0.00  0.00    -0.050 C 
ATOM      3  C   LIG    1       28.842 -20.790   7.151  0.00  0.00    +0.003 C 
ENDROOT
BRANCH   3   4
ATOM      4  C   LIG    1       29.356 -19.501   6.722  0.00  0.00    +0.001 C 
ATOM      5  C   LIG    1       30.357 -18.790   7.277  0.00  0.00    +0.003 C 
BRANCH   5   6
ATOM      6  C   LIG    1       31.175 -19.053   8.457  0.00  0.00    -0.044 C 
ATOM      7  C   LIG    1       31.675 -18.165   9.325  0.00  0.00    +0.094 C 
ATOM      8  C   LIG    1       31.604 -20.500   8.635  0.00  0.00    +0.044 C 
BRANCH   7   9
ATOM      9  C   LIG    1       31.577 -16.697   9.458  0.00  0.00    +0.330 C 
ATOM     10  O   LIG    1       30.702 -16.154  10.086  0.00  0.00    -0.246 OA
BRANCH   9  11
ATOM     11  O   LIG    1       32.530 -15.994   8.843  0.00  0.00    -0.477 OA
ATOM     12  H   LIG    1       33.096 -15.686   9.578  0.00  0.00    +0.295 HD
ENDBRANCH   9  11
ENDBRANCH   7   9
ENDBRANCH   5   6
ENDBRANCH   3   4
BRANCH   2  13
ATOM     13  C   LIG    1       26.417 -20.532   6.590  0.00  0.00    +0.003 C 
ATOM     14  C   LIG    1       25.691 -20.798   5.483  0.00  0.00    +0.004 C 
BRANCH  14  15
ATOM     15  C   LIG    1       24.496 -20.064   4.998  0.00  0.00    -0.043 C 
ATOM     16  C   LIG    1       23.106 -20.549   5.556  0.00  0.00    -0.010 C 
ATOM     17  C   LIG    1       22.940 -22.090   5.518  0.00  0.00    +0.016 C 
ATOM     18  C   LIG    1       22.887 -20.080   7.014  0.00  0.00    +0.016 C 
ATOM     19  C   LIG    1       21.932 -19.993   4.695  0.00  0.00    +0.011 C 
ATOM     20  C   LIG    1       22.074 -18.504   4.449  0.00  0.00    +0.005 C 
ATOM     21  C   LIG    1       23.339 -18.248   3.657  0.00  0.00    +0.031 C 
ATOM     22  C   LIG    1       24.550 -19.059   4.078  0.00  0.00    -0.069 C 
ATOM     23  C   LIG    1       25.770 -18.588   3.316  0.00  0.00    +0.039 C 
ENDBRANCH  14  15
ENDBRANCH   2  13
TORSDOF 6
ENDMDL
MODEL 5
REMARK VINA RESULT:      -8.1      5.403      9.315
REMARK  Name = *****
REMARK                            x       y       z     vdW  Elec       q    Type
REMARK                         _______ _______ _______ _____ _____    ______ ____
ROOT
ATOM      1  C   LIG    1       22.896 -23.651   6.855  0.00  0.00    +0.044 C 
ATOM      2  C   LIG    1       24.272 -24.173   6.505  0.00  0.00    -0.050 C 
ATOM      3  C   LIG    1       24.411 -25.501   6.281  0.00  0.00    +0.003 C 
ENDROOT
BRANCH   3   4
ATOM      4  C   LIG    1       25.591 -26.256   5.898  0.00  0.00    +0.001 C 
ATOM      5  C   LIG    1       25.841 -27.561   6.123  0.00  0.00    +0.003 C 
BRANCH   5   6
ATOM      6  C   LIG    1       25.062 -28.573   6.830  0.00  0.00    -0.044 C 
ATOM      7  C   LIG    1       25.325 -29.131   8.019  0.00  0.00    +0.094 C 
ATOM      8  C   LIG    1       23.885 -29.141   6.054  0.00  0.00    +0.044 C 
BRANCH   7   9
ATOM      9  C   LIG    1       26.386 -28.936   9.028  0.00  0.00    +0.330 C 
ATOM     10  O   LIG    1       26.464 -27.947   9.712  0.00  0.00    -0.246 OA
BRANCH   9  11
ATOM     11  O   LIG    1       27.261 -29.936   9.149  0.00  0.00    -0.477 OA
ATOM     12  H   LIG    1       28.127 -29.481   9.159  0.00  0.00    +0.295 HD
ENDBRANCH   9  11
ENDBRANCH   7   9
ENDBRANCH   5   6
ENDBRANCH   3   4
BRANCH   2  13
ATOM     13  C   LIG    1       25.358 -23.189   6.401  0.00  0.00    +0.003 C 
ATOM     14  C   LIG    1       25.253 -21.853   6.229  0.00  0.00    +0.004 C 
BRANCH  14  15
ATOM     15  C   LIG    1       26.361 -20.869   6.168  0.00  0.00    -0.043 C 
ATOM     16  C   LIG    1       27.294 -20.789   7.433  0.00  0.00    -0.010 C 
ATOM     17  C   LIG    1       26.507 -20.748   8.768  0.00  0.00    +0.016 C 
ATOM     18  C   LIG    1       28.271 -21.988   7.491  0.00  0.00    +0.016 C 
ATOM     19  C   LIG    1       28.144 -19.482   7.422  0.00  0.00    +0.011 C 
ATOM     20  C   LIG    1       28.812 -19.260   6.081  0.00  0.00    +0.005 C 
ATOM     21  C   LIG    1       27.749 -19.084   5.017  0.00  0.00    +0.031 C 
ATOM     22  C   LIG    1       26.561 -20.021   5.118  0.00  0.00    -0.069 C 
ATOM     23  C   LIG    1       25.666 -19.844   3.911  0.00  0.00    +0.039 C 
ENDBRANCH  14  15
ENDBRANCH   2  13
TORSDOF 6
ENDMDL
MODEL 6
REMARK VINA RESULT:      -7.9      2.900      4.655
REMARK  Name = *****
REMARK                            x       y       z     vdW  Elec       q    Type
REMARK                         _______ _______ _______ _____ _____    ______ ____
ROOT
ATOM      1  C   LIG    1       26.834 -22.778   8.470  0.00  0.00    +0.044 C 
ATOM      2  C   LIG    1       27.286 -21.641   7.580  0.00  0.00    -0.050 C 
ATOM      3  C   LIG    1       28.616 -21.474   7.386  0.00  0.00    +0.003 C 
ENDROOT
BRANCH   3   4
ATOM      4  C   LIG    1       29.315 -20.502   6.564  0.00  0.00    +0.001 C 
ATOM      5  C   LIG    1       30.235 -19.600   6.961  0.00  0.00    +0.003 C 
BRANCH   5   6
ATOM      6  C   LIG    1       30.762 -19.296   8.288  0.00  0.00    -0.044 C 
ATOM      7  C   LIG    1       31.199 -20.158   9.216  0.00  0.00    +0.094 C 
ATOM      8  C   LIG    1       30.680 -17.835   8.697  0.00  0.00    +0.044 C 
BRANCH   7   9
ATOM      9  C   LIG    1       31.354 -21.626   9.256  0.00  0.00    +0.330 C 
ATOM     10  O   LIG    1       30.779 -22.324  10.053  0.00  0.00    -0.246 OA
BRANCH   9  11
ATOM     11  O   LIG    1       32.171 -22.148   8.339  0.00  0.00    -0.477 OA
ATOM     12  H   LIG    1       32.512 -22.956   8.771  0.00  0.00    +0.295 HD
ENDBRANCH   9  11
ENDBRANCH   7   9
ENDBRANCH   5   6
ENDBRANCH   3   4
BRANCH   2  13
ATOM     13  C   LIG    1       26.239 -20.817   6.960  0.00  0.00    +0.003 C 
ATOM     14  C   LIG    1       25.577 -21.047   5.806  0.00  0.00    +0.004 C 
BRANCH  14  15
ATOM     15  C   LIG    1       24.493 -20.223   5.216  0.00  0.00    -0.043 C 
ATOM     16  C   LIG    1       24.831 -19.492   3.864  0.00  0.00    -0.010 C 
ATOM     17  C   LIG    1       26.205 -18.776   3.885  0.00  0.00    +0.016 C 
ATOM     18  C   LIG    1       24.823 -20.478   2.671  0.00  0.00    +0.016 C 
ATOM     19  C   LIG    1       23.793 -18.369   3.560  0.00  0.00    +0.011 C 
ATOM     20  C   LIG    1       22.370 -18.863   3.719  0.00  0.00    +0.005 C 
ATOM     21  C   LIG    1       22.141 -19.273   5.158  0.00  0.00    +0.031 C 
ATOM     22  C   LIG    1       23.279 -20.037   5.809  0.00  0.00    -0.069 C 
ATOM     23  C   LIG    1       22.854 -20.518   7.179  0.00  0.00    +0.039 C 
ENDBRANCH  14  15
ENDBRANCH   2  13
TORSDOF 6
ENDMDL
MODEL 7
REMARK VINA RESULT:      -7.9      5.479      9.119
REMARK  Name = *****
REMARK                            x       y       z     vdW  Elec       q    Type
REMARK                         _______ _______ _______ _____ _____    ______ ____
ROOT
ATOM      1  C   LIG    1       22.135 -20.874   5.054  0.00  0.00    +0.044 C 
ATOM      2  C   LIG    1       23.192 -21.528   5.917  0.00  0.00    -0.050 C 
ATOM      3  C   LIG    1       22.951 -22.776   6.383  0.00  0.00    +0.003 C 
ENDROOT
BRANCH   3   4
ATOM      4  C   LIG    1       23.794 -23.640   7.190  0.00  0.00    +0.001 C 
ATOM      5  C   LIG    1       24.491 -24.720   6.784  0.00  0.00    +0.003 C 
BRANCH   5   6
ATOM      6  C   LIG    1       24.579 -25.362   5.476  0.00  0.00    -0.044 C 
ATOM      7  C   LIG    1       24.538 -26.672   5.199  0.00  0.00    +0.094 C 
ATOM      8  C   LIG    1       24.881 -24.428   4.317  0.00  0.00    +0.044 C 
BRANCH   7   9
ATOM      9  C   LIG    1       24.357 -27.886   6.021  0.00  0.00    +0.330 C 
ATOM     10  O   LIG    1       24.904 -28.044   7.083  0.00  0.00    -0.246 OA
BRANCH   9  11
ATOM     11  O   LIG    1       23.533 -28.808   5.520  0.00  0.00    -0.477 OA
ATOM     12  H   LIG    1       22.784 -28.281   5.176  0.00  0.00    +0.295 HD
ENDBRANCH   9  11
ENDBRANCH   7   9
ENDBRANCH   5   6
ENDBRANCH   3   4
BRANCH   2  13
ATOM     13  C   LIG    1       24.425 -20.767   6.159  0.00  0.00    +0.003 C 
ATOM     14  C   LIG    1       25.695 -21.134   5.878  0.00  0.00    +0.004 C 
BRANCH  14  15
ATOM     15  C   LIG    1       26.926 -20.335   6.092  0.00  0.00    -0.043 C 
ATOM     16  C   LIG    1       27.685 -20.575   7.450  0.00  0.00    -0.010 C 
ATOM     17  C   LIG    1       26.742 -20.595   8.680  0.00  0.00    +0.016 C 
ATOM     18  C   LIG    1       28.472 -21.907   7.430  0.00  0.00    +0.016 C 
ATOM     19  C   LIG    1       28.700 -19.426   7.736  0.00  0.00    +0.011 C 
ATOM     20  C   LIG    1       29.564 -19.129   6.527  0.00  0.00    +0.005 C 
ATOM     21  C   LIG    1       28.685 -18.646   5.392  0.00  0.00    +0.031 C 
ATOM     22  C   LIG    1       27.377 -19.392   5.215  0.00  0.00    -0.069 C 
ATOM     23  C   LIG    1       26.682 -18.915   3.958  0.00  0.00    +0.039 C 
ENDBRANCH  14  15
ENDBRANCH   2  13
TORSDOF 6
ENDMDL
MODEL 8
REMARK VINA RESULT:      -7.8      6.646      9.827
REMARK  Name = *****
REMARK                            x       y       z     vdW  Elec       q    Type
REMARK                         _______ _______ _______ _____ _____    ______ ____
ROOT
ATOM      1  C   LIG    1       22.575 -23.681   6.850  0.00  0.00    +0.044 C 
ATOM      2  C   LIG    1       24.004 -23.906   6.408  0.00  0.00    -0.050 C 
ATOM      3  C   LIG    1       24.590 -25.086   6.723  0.00  0.00    +0.003 C 
ENDROOT
BRANCH   3   4
ATOM      4  C   LIG    1       25.918 -25.574   6.398  0.00  0.00    +0.001 C 
ATOM      5  C   LIG    1       26.432 -26.793   6.659  0.00  0.00    +0.003 C 
BRANCH   5   6
ATOM      6  C   LIG    1       25.860 -27.940   7.358  0.00  0.00    -0.044 C 
ATOM      7  C   LIG    1       24.903 -28.771   6.926  0.00  0.00    +0.094 C 
ATOM      8  C   LIG    1       26.328 -28.121   8.792  0.00  0.00    +0.044 C 
BRANCH   7   9
ATOM      9  C   LIG    1       24.138 -28.885   5.668  0.00  0.00    +0.330 C 
ATOM     10  O   LIG    1       24.361 -28.198   4.702  0.00  0.00    -0.246 OA
BRANCH   9  11
ATOM     11  O   LIG    1       23.179 -29.812   5.654  0.00  0.00    -0.477 OA
ATOM     12  H   LIG    1       22.356 -29.289   5.719  0.00  0.00    +0.295 HD
ENDBRANCH   9  11
ENDBRANCH   7   9
ENDBRANCH   5   6
ENDBRANCH   3   4
BRANCH   2  13
ATOM     13  C   LIG    1       24.646 -22.833   5.636  0.00  0.00    +0.003 C 
ATOM     14  C   LIG    1       24.517 -21.499   5.804  0.00  0.00    +0.004 C 
BRANCH  14  15
ATOM     15  C   LIG    1       25.205 -20.430   5.040  0.00  0.00    -0.043 C 
ATOM     16  C   LIG    1       24.422 -19.838   3.809  0.00  0.00    -0.010 C 
ATOM     17  C   LIG    1       23.789 -20.929   2.908  0.00  0.00    +0.016 C 
ATOM     18  C   LIG    1       23.294 -18.881   4.264  0.00  0.00    +0.016 C 
ATOM     19  C   LIG    1       25.375 -19.038   2.870  0.00  0.00    +0.011 C 
ATOM     20  C   LIG    1       26.240 -18.066   3.646  0.00  0.00    +0.005 C 
ATOM     21  C   LIG    1       27.130 -18.838   4.596  0.00  0.00    +0.031 C 
ATOM     22  C   LIG    1       26.468 -19.996   5.318  0.00  0.00    -0.069 C 
ATOM     23  C   LIG    1       27.420 -20.571   6.344  0.00  0.00    +0.039 C 
ENDBRANCH  14  15
ENDBRANCH   2  13
TORSDOF 6
ENDMDL
MODEL 9
REMARK VINA RESULT:      -7.7      2.053      4.077
REMARK  Name = *****
REMARK                            x       y       z     vdW  Elec       q    Type
REMARK                         _______ _______ _______ _____ _____    ______ ____
ROOT
ATOM      1  C   LIG    1       27.120 -22.778   7.970  0.00  0.00    +0.044 C 
ATOM      2  C   LIG    1       27.476 -21.452   7.335  0.00  0.00    -0.050 C 
ATOM      3  C   LIG    1       28.781 -21.093   7.301  0.00  0.00    +0.003 C 
ENDROOT
BRANCH   3   4
ATOM      4  C   LIG    1       29.401 -19.910   6.728  0.00  0.00    +0.001 C 
ATOM      5  C   LIG    1       30.429 -19.197   7.228  0.00  0.00    +0.003 C 
BRANCH   5   6
ATOM      6  C   LIG    1       31.182 -19.351   8.468  0.00  0.00    -0.044 C 
ATOM      7  C   LIG    1       31.615 -18.387   9.292  0.00  0.00    +0.094 C 
ATOM      8  C   LIG    1       31.629 -20.769   8.781  0.00  0.00    +0.044 C 
BRANCH   7   9
ATOM      9  C   LIG    1       31.480 -16.916   9.305  0.00  0.00    +0.330 C 
ATOM     10  O   LIG    1       30.525 -16.351   9.775  0.00  0.00    -0.246 OA
BRANCH   9  11
ATOM     11  O   LIG    1       32.495 -16.236   8.768  0.00  0.00    -0.477 OA
ATOM     12  H   LIG    1       32.224 -16.122   7.835  0.00  0.00    +0.295 HD
ENDBRANCH   9  11
ENDBRANCH   7   9
ENDBRANCH   5   6
ENDBRANCH   3   4
BRANCH   2  13
ATOM     13  C   LIG    1       26.375 -20.661   6.768  0.00  0.00    +0.003 C 
ATOM     14  C   LIG    1       25.615 -20.952   5.690  0.00  0.00    +0.004 C 
BRANCH  14  15
ATOM     15  C   LIG    1       24.479 -20.161   5.156  0.00  0.00    -0.043 C 
ATOM     16  C   LIG    1       24.739 -19.392   3.807  0.00  0.00    -0.010 C 
ATOM     17  C   LIG    1       26.085 -18.624   3.793  0.00  0.00    +0.016 C 
ATOM     18  C   LIG    1       24.726 -20.355   2.596  0.00  0.00    +0.016 C 
ATOM     19  C   LIG    1       23.649 -18.305   3.562  0.00  0.00    +0.011 C 
ATOM     20  C   LIG    1       22.252 -18.857   3.762  0.00  0.00    +0.005 C 
ATOM     21  C   LIG    1       22.093 -19.302   5.201  0.00  0.00    +0.031 C 
ATOM     22  C   LIG    1       23.281 -20.032   5.795  0.00  0.00    -0.069 C 
ATOM     23  C   LIG    1       22.925 -20.555   7.170  0.00  0.00    +0.039 C 
ENDBRANCH  14  15
ENDBRANCH   2  13
TORSDOF 6
ENDMDL
