MODEL 1
REMARK VINA RESULT:     108.5      0.000      0.000
REMARK  Name = *****
REMARK                            x       y       z     vdW  Elec       q    Type
REMARK                         _______ _______ _______ _____ _____    ______ ____
ROOT
ATOM      1  C   LIG    1       26.276 -13.998   5.780  0.00  0.00    +0.176 C 
ATOM      2  O   LIG    1       25.198 -14.965   5.887  0.00  0.00    -0.461 OA
ATOM      3  C   LIG    1       24.506 -15.185   4.745  0.00  0.00    +0.308 C 
ATOM      4  O   LIG    1       24.694 -14.583   3.676  0.00  0.00    -0.251 OA
ATOM      5  C   LIG    1       23.444 -16.265   4.873  0.00  0.00    +0.129 C 
ATOM      6  C   LIG    1       23.950 -17.728   4.817  0.00  0.00    +0.040 C 
ATOM      7  C   LIG    1       25.069 -17.717   3.824  0.00  0.00    -0.004 C 
ATOM      8  C   LIG    1       24.596 -17.865   2.566  0.00  0.00    -0.015 C 
ATOM      9  C   LIG    1       23.261 -18.573   2.612  0.00  0.00    +0.023 C 
ATOM     10  C   LIG    1       21.848 -18.159   2.137  0.00  0.00    +0.006 C 
ATOM     11  C   LIG    1       20.984 -19.449   2.224  0.00  0.00    +0.021 C 
ATOM     12  C   LIG    1       19.561 -18.890   2.110  0.00  0.00    +0.040 C 
ATOM     13  C   LIG    1       19.550 -17.714   3.080  0.00  0.00    +0.122 C 
ATOM     14  C   LIG    1       21.207 -20.209   3.538  0.00  0.00    -0.073 C 
ATOM     15  C   LIG    1       20.574 -21.567   3.620  0.00  0.00    +0.039 C 
ATOM     16  C   LIG    1       22.053 -19.772   4.500  0.00  0.00    -0.023 C 
ATOM     17  C   LIG    1       20.975 -17.138   2.924  0.00  0.00    +0.036 C 
ATOM     18  C   LIG    1       26.496 -17.717   4.203  0.00  0.00    +0.165 C 
ATOM     19  O   LIG    1       27.256 -17.008   3.542  0.00  0.00    -0.292 OA
ATOM     20  C   LIG    1       27.029 -18.745   5.240  0.00  0.00    +0.086 C 
ATOM     21  C   LIG    1       26.106 -19.461   6.233  0.00  0.00    +0.018 C 
ATOM     22  C   LIG    1       28.228 -18.159   6.038  0.00  0.00    +0.132 C 
ATOM     23  C   LIG    1       27.805 -16.897   6.843  0.00  0.00    +0.032 C 
ATOM     24  C   LIG    1       28.258 -15.549   6.289  0.00  0.00    +0.006 C 
ATOM     25  C   LIG    1       23.230 -18.923   4.108  0.00  0.00    +0.027 C 
ATOM     26  C   LIG    1       27.386 -14.381   6.777  0.00  0.00    +0.045 C 
ENDROOT
BRANCH   1  28
ATOM     27  C   LIG    1       26.839 -11.654   6.719  0.00  0.00    +0.007 C 
ATOM     28  C   LIG    1       25.792 -12.568   6.101  0.00  0.00    +0.041 C 
ENDBRANCH   1  28
BRANCH  13  29
ATOM     29  O   LIG    1       19.411 -18.065   4.468  0.00  0.00    -0.345 OA
BRANCH  29  30
ATOM     30  C   LIG    1       19.932 -17.129   5.416  0.00  0.00    +0.282 C 
ATOM     31  C   LIG    1       21.485 -17.171   5.306  0.00  0.00    +0.205 C 
ATOM     32  C   LIG    1       21.913 -16.109   4.274  0.00  0.00    +0.182 C 
ATOM     33  C   LIG    1       21.502 -14.697   4.783  0.00  0.00    +0.178 C 
ATOM     34  C   LIG    1       20.148 -14.726   5.540  0.00  0.00    +0.150 C 
ATOM     35  C   LIG    1       20.233 -14.555   7.059  0.00  0.00    +0.040 C 
ATOM     36  O   LIG    1       19.353 -15.854   5.176  0.00  0.00    -0.343 OA
BRANCH  31  37
ATOM     37  O   LIG    1       22.180 -16.871   6.539  0.00  0.00    -0.372 OA
ATOM     38  C   LIG    1       22.126 -15.511   6.940  0.00  0.00    +0.194 C 
ENDBRANCH  31  37
BRANCH  32  39
ATOM     39  O   LIG    1       23.343 -16.104   4.033  0.00  0.00    -0.374 OA
ATOM     40  C   LIG    1       23.830 -14.913   3.429  0.00  0.00    +0.194 C 
ENDBRANCH  32  39
BRANCH  33  41
ATOM     41  O   LIG    1       21.297 -13.772   3.684  0.00  0.00    -0.375 OA
ATOM     42  C   LIG    1       22.360 -12.860   3.460  0.00  0.00    +0.194 C 
ENDBRANCH  33  41
ENDBRANCH  29  30
ENDBRANCH  13  29
BRANCH  22  43
ATOM     43  O   LIG    1       29.412 -17.946   5.253  0.00  0.00    -0.347 OA
BRANCH  43  44
ATOM     44  C   LIG    1       29.445 -16.663   4.618  0.00  0.00    +0.251 C 
ATOM     45  O   LIG    1       29.273 -15.638   5.579  0.00  0.00    -0.347 OA
ATOM     46  C   LIG    1       29.462 -14.306   5.085  0.00  0.00    +0.135 C 
ATOM     47  C   LIG    1       29.015 -13.445   6.277  0.00  0.00    +0.039 C 
ATOM     48  C   LIG    1       28.670 -13.975   3.763  0.00  0.00    +0.085 C 
ATOM     49  C   LIG    1       28.542 -15.225   2.846  0.00  0.00    +0.026 C 
ATOM     50  C   LIG    1       28.334 -16.534   3.603  0.00  0.00    +0.063 C 
BRANCH  48  51
ATOM     51  N   LIG    1       29.239 -12.831   2.974  0.00  0.00    -0.303 NA
ATOM     52  C   LIG    1       28.415 -12.472   1.813  0.00  0.00    +0.105 C 
ATOM     53  C   LIG    1       29.469 -11.621   3.768  0.00  0.00    +0.105 C 
ENDBRANCH  48  51
ENDBRANCH  43  44
ENDBRANCH  22  43
TORSDOF 9
ENDMDL
MODEL 2
REMARK VINA RESULT:     108.6      1.172      1.591
REMARK  Name = *****
REMARK                            x       y       z     vdW  Elec       q    Type
REMARK                         _______ _______ _______ _____ _____    ______ ____
ROOT
ATOM      1  C   LIG    1       25.697 -13.487   5.952  0.00  0.00    +0.176 C 
ATOM      2  O   LIG    1       24.819 -14.643   5.951  0.00  0.00    -0.461 OA
ATOM      3  C   LIG    1       24.070 -14.798   4.834  0.00  0.00    +0.308 C 
ATOM      4  O   LIG    1       24.049 -14.003   3.880  0.00  0.00    -0.251 OA
ATOM      5  C   LIG    1       23.230 -16.064   4.832  0.00  0.00    +0.129 C 
ATOM      6  C   LIG    1       23.976 -17.376   4.482  0.00  0.00    +0.040 C 
ATOM      7  C   LIG    1       24.977 -16.991   3.439  0.00  0.00    -0.004 C 
ATOM      8  C   LIG    1       24.421 -17.016   2.207  0.00  0.00    -0.015 C 
ATOM      9  C   LIG    1       23.239 -17.960   2.209  0.00  0.00    +0.023 C 
ATOM     10  C   LIG    1       21.738 -17.747   1.905  0.00  0.00    +0.006 C 
ATOM     11  C   LIG    1       21.124 -19.172   1.813  0.00  0.00    +0.021 C 
ATOM     12  C   LIG    1       19.621 -18.879   1.890  0.00  0.00    +0.040 C 
ATOM     13  C   LIG    1       19.496 -17.903   3.054  0.00  0.00    +0.122 C 
ATOM     14  C   LIG    1       21.599 -20.083   2.952  0.00  0.00    -0.073 C 
ATOM     15  C   LIG    1       21.222 -21.530   2.829  0.00  0.00    +0.039 C 
ATOM     16  C   LIG    1       22.442 -19.659   3.923  0.00  0.00    -0.023 C 
ATOM     17  C   LIG    1       20.778 -17.052   2.915  0.00  0.00    +0.036 C 
ATOM     18  C   LIG    1       26.411 -16.786   3.723  0.00  0.00    +0.165 C 
ATOM     19  O   LIG    1       26.971 -15.848   3.154  0.00  0.00    -0.292 OA
ATOM     20  C   LIG    1       27.211 -17.853   4.523  0.00  0.00    +0.086 C 
ATOM     21  C   LIG    1       26.524 -18.883   5.427  0.00  0.00    +0.018 C 
ATOM     22  C   LIG    1       28.359 -17.191   5.337  0.00  0.00    +0.132 C 
ATOM     23  C   LIG    1       27.800 -16.182   6.380  0.00  0.00    +0.032 C 
ATOM     24  C   LIG    1       27.957 -14.701   6.050  0.00  0.00    +0.006 C 
ATOM     25  C   LIG    1       23.412 -18.552   3.617  0.00  0.00    +0.027 C 
ATOM     26  C   LIG    1       26.945 -13.813   6.793  0.00  0.00    +0.045 C 
ENDROOT
BRANCH   1  28
ATOM     27  C   LIG    1       23.544 -12.066   6.164  0.00  0.00    +0.007 C 
ATOM     28  C   LIG    1       25.004 -12.246   6.554  0.00  0.00    +0.041 C 
ENDBRANCH   1  28
BRANCH  13  29
ATOM     29  O   LIG    1       19.552 -18.498   4.363  0.00  0.00    -0.345 OA
BRANCH  29  30
ATOM     30  C   LIG    1       20.260 -17.763   5.366  0.00  0.00    +0.282 C 
ATOM     31  C   LIG    1       21.657 -18.431   5.534  0.00  0.00    +0.205 C 
ATOM     32  C   LIG    1       22.633 -17.729   4.569  0.00  0.00    +0.182 C 
ATOM     33  C   LIG    1       22.763 -16.230   4.964  0.00  0.00    +0.178 C 
ATOM     34  C   LIG    1       21.418 -15.645   5.470  0.00  0.00    +0.150 C 
ATOM     35  C   LIG    1       21.332 -15.382   6.976  0.00  0.00    +0.040 C 
ATOM     36  O   LIG    1       20.296 -16.392   4.997  0.00  0.00    -0.343 OA
BRANCH  31  37
ATOM     37  O   LIG    1       22.217 -18.320   6.863  0.00  0.00    -0.372 OA
ATOM     38  C   LIG    1       23.445 -19.003   7.052  0.00  0.00    +0.194 C 
ENDBRANCH  31  37
BRANCH  32  39
ATOM     39  O   LIG    1       23.958 -18.317   4.585  0.00  0.00    -0.374 OA
ATOM     40  C   LIG    1       23.967 -19.739   4.624  0.00  0.00    +0.194 C 
ENDBRANCH  32  39
BRANCH  33  41
ATOM     41  O   LIG    1       23.125 -15.407   3.825  0.00  0.00    -0.375 OA
ATOM     42  C   LIG    1       22.052 -14.690   3.237  0.00  0.00    +0.194 C 
ENDBRANCH  33  41
ENDBRANCH  29  30
ENDBRANCH  13  29
BRANCH  22  43
ATOM     43  O   LIG    1       29.408 -16.633   4.531  0.00  0.00    -0.347 OA
BRANCH  43  44
ATOM     44  C   LIG    1       29.077 -15.355   3.978  0.00  0.00    +0.251 C 
ATOM     45  O   LIG    1       29.377 -14.329   4.907  0.00  0.00    -0.347 OA
ATOM     46  C   LIG    1       29.250 -12.995   4.399  0.00  0.00    +0.135 C 
ATOM     47  C   LIG    1       29.434 -12.141   5.663  0.00  0.00    +0.039 C 
ATOM     48  C   LIG    1       27.891 -12.699   3.657  0.00  0.00    +0.085 C 
ATOM     49  C   LIG    1       27.360 -13.960   2.915  0.00  0.00    +0.026 C 
ATOM     50  C   LIG    1       27.602 -15.270   3.660  0.00  0.00    +0.063 C 
BRANCH  48  51
ATOM     51  N   LIG    1       27.950 -11.543   2.701  0.00  0.00    -0.303 NA
ATOM     52  C   LIG    1       29.164 -11.545   1.875  0.00  0.00    +0.105 C 
ATOM     53  C   LIG    1       26.789 -11.450   1.813  0.00  0.00    +0.105 C 
ENDBRANCH  48  51
ENDBRANCH  43  44
ENDBRANCH  22  43
TORSDOF 9
ENDMDL
MODEL 3
REMARK VINA RESULT:     111.3      2.268      7.918
REMARK  Name = *****
REMARK                            x       y       z     vdW  Elec       q    Type
REMARK                         _______ _______ _______ _____ _____    ______ ____
ROOT
ATOM      1  C   LIG    1       23.071 -19.646   5.790  0.00  0.00    +0.176 C 
ATOM      2  O   LIG    1       24.028 -18.557   5.850  0.00  0.00    -0.461 OA
ATOM      3  C   LIG    1       24.634 -18.256   4.677  0.00  0.00    +0.308 C 
ATOM      4  O   LIG    1       24.468 -18.878   3.615  0.00  0.00    -0.251 OA
ATOM      5  C   LIG    1       25.562 -17.056   4.758  0.00  0.00    +0.129 C 
ATOM      6  C   LIG    1       24.881 -15.665   4.733  0.00  0.00    +0.040 C 
ATOM      7  C   LIG    1       23.726 -15.812   3.795  0.00  0.00    -0.004 C 
ATOM      8  C   LIG    1       24.116 -15.610   2.516  0.00  0.00    -0.015 C 
ATOM      9  C   LIG    1       25.357 -14.745   2.502  0.00  0.00    +0.023 C 
ATOM     10  C   LIG    1       26.785 -14.987   1.957  0.00  0.00    +0.006 C 
ATOM     11  C   LIG    1       27.491 -13.602   2.008  0.00  0.00    +0.021 C 
ATOM     12  C   LIG    1       28.963 -13.986   1.824  0.00  0.00    +0.040 C 
ATOM     13  C   LIG    1       29.163 -15.150   2.786  0.00  0.00    +0.122 C 
ATOM     14  C   LIG    1       27.241 -12.873   3.335  0.00  0.00    -0.073 C 
ATOM     15  C   LIG    1       27.709 -11.448   3.393  0.00  0.00    +0.039 C 
ATOM     16  C   LIG    1       26.502 -13.408   4.335  0.00  0.00    -0.023 C 
ATOM     17  C   LIG    1       27.812 -15.894   2.696  0.00  0.00    +0.036 C 
ATOM     18  C   LIG    1       22.329 -15.983   4.243  0.00  0.00    +0.165 C 
ATOM     19  O   LIG    1       21.628 -16.779   3.616  0.00  0.00    -0.292 OA
ATOM     20  C   LIG    1       21.726 -15.025   5.309  0.00  0.00    +0.086 C 
ATOM     21  C   LIG    1       22.604 -14.202   6.260  0.00  0.00    +0.018 C 
ATOM     22  C   LIG    1       20.647 -15.751   6.161  0.00  0.00    +0.132 C 
ATOM     23  C   LIG    1       21.257 -16.951   6.939  0.00  0.00    +0.032 C 
ATOM     24  C   LIG    1       20.944 -18.344   6.401  0.00  0.00    +0.006 C 
ATOM     25  C   LIG    1       25.417 -14.392   3.996  0.00  0.00    +0.027 C 
ATOM     26  C   LIG    1       21.972 -19.399   6.841  0.00  0.00    +0.045 C 
ENDROOT
BRANCH   1  28
ATOM     27  C   LIG    1       25.084 -20.931   6.786  0.00  0.00    +0.007 C 
ATOM     28  C   LIG    1       23.738 -21.007   6.081  0.00  0.00    +0.041 C 
ENDBRANCH   1  28
BRANCH  13  29
ATOM     29  O   LIG    1       29.325 -14.783   4.168  0.00  0.00    -0.345 OA
BRANCH  29  30
ATOM     30  C   LIG    1       28.724 -15.654   5.132  0.00  0.00    +0.282 C 
ATOM     31  C   LIG    1       27.232 -15.836   4.728  0.00  0.00    +0.205 C 
ATOM     32  C   LIG    1       27.141 -17.069   3.806  0.00  0.00    +0.182 C 
ATOM     33  C   LIG    1       27.587 -18.335   4.591  0.00  0.00    +0.178 C 
ATOM     34  C   LIG    1       28.747 -18.028   5.576  0.00  0.00    +0.150 C 
ATOM     35  C   LIG    1       28.371 -18.014   7.060  0.00  0.00    +0.040 C 
ATOM     36  O   LIG    1       29.474 -16.858   5.201  0.00  0.00    -0.343 OA
BRANCH  31  37
ATOM     37  O   LIG    1       26.335 -16.067   5.839  0.00  0.00    -0.372 OA
ATOM     38  C   LIG    1       25.215 -15.197   5.894  0.00  0.00    +0.194 C 
ENDBRANCH  31  37
BRANCH  32  39
ATOM     39  O   LIG    1       25.799 -17.297   3.304  0.00  0.00    -0.374 OA
ATOM     40  C   LIG    1       25.712 -17.383   1.888  0.00  0.00    +0.194 C 
ENDBRANCH  32  39
BRANCH  33  41
ATOM     41  O   LIG    1       28.111 -19.357   3.703  0.00  0.00    -0.375 OA
ATOM     42  C   LIG    1       27.797 -20.690   4.070  0.00  0.00    +0.194 C 
ENDBRANCH  33  41
ENDBRANCH  29  30
ENDBRANCH  13  29
BRANCH  22  43
ATOM     43  O   LIG    1       19.461 -16.105   5.433  0.00  0.00    -0.347 OA
BRANCH  43  44
ATOM     44  C   LIG    1       19.596 -17.323   4.692  0.00  0.00    +0.251 C 
ATOM     45  O   LIG    1       20.902 -17.848   4.849  0.00  0.00    -0.347 OA
ATOM     46  C   LIG    1       21.101 -19.155   4.295  0.00  0.00    +0.135 C 
ATOM     47  C   LIG    1       22.618 -19.348   4.440  0.00  0.00    +0.039 C 
ATOM     48  C   LIG    1       20.605 -19.322   2.808  0.00  0.00    +0.085 C 
ATOM     49  C   LIG    1       19.352 -18.444   2.521  0.00  0.00    +0.026 C 
ATOM     50  C   LIG    1       19.372 -17.085   3.217  0.00  0.00    +0.063 C 
BRANCH  48  51
ATOM     51  N   LIG    1       20.325 -20.741   2.408  0.00  0.00    -0.303 NA
ATOM     52  C   LIG    1       21.537 -21.567   2.342  0.00  0.00    +0.105 C 
ATOM     53  C   LIG    1       19.353 -21.418   3.270  0.00  0.00    +0.105 C 
ENDBRANCH  48  51
ENDBRANCH  43  44
ENDBRANCH  22  43
TORSDOF 9
ENDMDL
