MODEL 1
REMARK VINA RESULT:      -5.6      0.000      0.000
REMARK  Name = *****
REMARK                            x       y       z     vdW  Elec       q    Type
REMARK                         _______ _______ _______ _____ _____    ______ ____
ROOT
ATOM      1  C   LIG    1       24.394 -33.119  10.802  0.00  0.00    +0.166 C 
ATOM      2  N   LIG    1       24.624 -32.139   9.724  0.00  0.00    -0.285 N 
ATOM      3  C   LIG    1       24.242 -32.325   8.403  0.00  0.00    +0.237 C 
ATOM      4  O   LIG    1       23.575 -33.326   8.124  0.00  0.00    -0.274 OA
ATOM      5  C   LIG    1       25.443 -31.049  10.201  0.00  0.00    +0.153 C 
ATOM      6  C   LIG    1       25.578 -31.237  11.723  0.00  0.00    +0.195 C 
ATOM      7  C   LIG    1       25.466 -32.761  11.843  0.00  0.00    +0.078 C 
ENDROOT
BRANCH   1  10
ATOM      8  N   LIG    1       22.023 -32.419  10.675  0.00  0.00    -0.299 N 
ATOM      9  H   LIG    1       22.225 -32.216   9.700  0.00  0.00    +0.150 HD
ATOM     10  C   LIG    1       22.996 -32.998  11.459  0.00  0.00    +0.234 C 
ATOM     11  O   LIG    1       22.765 -33.299  12.632  0.00  0.00    -0.274 OA
BRANCH   8  13
ATOM     12  C   LIG    1       19.585 -32.103  10.076  0.00  0.00    +0.046 C 
ATOM     13  C   LIG    1       20.670 -32.156  11.155  0.00  0.00    +0.118 C 
ATOM     14  C   LIG    1       19.632 -33.265  11.023  0.00  0.00    +0.046 C 
BRANCH  12  16
ATOM     15  C   LIG    1       17.435 -31.186   9.215  0.00  0.00    +0.004 C 
ATOM     16  C   LIG    1       18.415 -31.222  10.126  0.00  0.00    -0.028 C 
ENDBRANCH  12  16
BRANCH  13  17
ATOM     17  C   LIG    1       20.594 -31.319  12.417  0.00  0.00    +0.231 C 
ATOM     18  N   LIG    1       21.004 -30.105  12.432  0.00  0.00    -0.098 NA
BRANCH  18  19
ATOM     19  S   LIG    1       20.947 -29.222  13.777  0.00  0.00    +0.075 S 
ATOM     20  O   LIG    1       21.905 -29.794  14.718  0.00  0.00    -0.151 OA
ATOM     21  O   LIG    1       19.576 -29.031  14.185  0.00  0.00    -0.151 OA
BRANCH  19  22
ATOM     22  C   LIG    1       21.665 -27.586  13.375  0.00  0.00    +0.155 C 
ATOM     23  C   LIG    1       20.668 -26.491  13.103  0.00  0.00    +0.030 C 
ATOM     24  C   LIG    1       21.393 -26.529  14.419  0.00  0.00    +0.030 C 
ENDBRANCH  19  22
ENDBRANCH  18  19
BRANCH  17  25
ATOM     25  O   LIG    1       20.066 -31.959  13.482  0.00  0.00    -0.493 OA
ATOM     26  H   LIG    1       19.409 -31.400  13.946  0.00  0.00    +0.293 HD
ENDBRANCH  17  25
ENDBRANCH  13  17
ENDBRANCH   8  13
ENDBRANCH   1  10
BRANCH   3  27
ATOM     27  C   LIG    1       24.824 -31.337   7.287  0.00  0.00    +0.168 C 
BRANCH  27  28
ATOM     28  C   LIG    1       25.714 -31.990   6.161  0.00  0.00    -0.011 C 
ATOM     29  C   LIG    1       27.036 -32.421   6.821  0.00  0.00    +0.013 C 
ATOM     30  C   LIG    1       25.994 -31.075   4.953  0.00  0.00    +0.013 C 
ATOM     31  C   LIG    1       25.086 -33.274   5.548  0.00  0.00    +0.013 C 
ENDBRANCH  27  28
BRANCH  27  32
ATOM     32  N   LIG    1       25.564 -30.272   8.005  0.00  0.00    -0.269 N 
ATOM     33  H   LIG    1       26.314 -30.559   8.621  0.00  0.00    +0.153 HD
ATOM     34  C   LIG    1       25.449 -28.940   7.842  0.00  0.00    +0.401 C 
ATOM     35  O   LIG    1       26.164 -28.187   8.516  0.00  0.00    -0.226 OA
BRANCH  34  36
ATOM     36  O   LIG    1       24.516 -28.553   6.875  0.00  0.00    -0.445 OA
BRANCH  36  37
ATOM     37  C   LIG    1       24.894 -27.529   5.911  0.00  0.00    +0.107 C 
ATOM     38  C   LIG    1       24.328 -27.983   4.553  0.00  0.00    +0.055 C 
ATOM     39  C   LIG    1       26.413 -27.370   5.729  0.00  0.00    +0.055 C 
ATOM     40  C   LIG    1       24.237 -26.202   6.304  0.00  0.00    +0.055 C 
ENDBRANCH  36  37
ENDBRANCH  34  36
ENDBRANCH  27  32
ENDBRANCH   3  27
BRANCH   6  41
ATOM     41  O   LIG    1       26.834 -30.796  12.258  0.00  0.00    -0.471 OA
BRANCH  41  42
ATOM     42  C   LIG    1       26.696 -29.629  12.991  0.00  0.00    +0.223 A 
ATOM     43  C   LIG    1       27.782 -29.136  13.714  0.00  0.00    +0.049 A 
ATOM     44  C   LIG    1       27.574 -27.970  14.501  0.00  0.00    +0.030 A 
ATOM     45  C   LIG    1       28.668 -27.504  15.271  0.00  0.00    +0.014 A 
ATOM     46  C   LIG    1       29.905 -28.167  15.259  0.00  0.00    +0.021 A 
ATOM     47  C   LIG    1       30.090 -29.286  14.455  0.00  0.00    +0.042 A 
ATOM     48 CL   LIG    1       31.616 -30.079  14.406  0.00  0.00    -0.084 Cl
ATOM     49  C   LIG    1       26.300 -27.341  14.460  0.00  0.00    +0.146 A 
ATOM     50  C   LIG    1       25.320 -27.921  13.670  0.00  0.00    +0.160 A 
ATOM     51  C   LIG    1       29.042 -29.767  13.682  0.00  0.00    +0.034 A 
ATOM     52  N   LIG    1       25.496 -29.029  12.947  0.00  0.00    -0.217 NA
BRANCH  49  53
ATOM     53  O   LIG    1       26.059 -26.200  15.187  0.00  0.00    -0.493 OA
ATOM     54  C   LIG    1       25.932 -25.015  14.386  0.00  0.00    +0.277 C 
ENDBRANCH  49  53
ENDBRANCH  41  42
ENDBRANCH   6  41
TORSDOF 15
ENDMDL
MODEL 2
REMARK VINA RESULT:      -5.4      3.086      8.107
REMARK  Name = *****
REMARK                            x       y       z     vdW  Elec       q    Type
REMARK                         _______ _______ _______ _____ _____    ______ ____
ROOT
ATOM      1  C   LIG    1       24.627 -32.902  10.284  0.00  0.00    +0.166 C 
ATOM      2  N   LIG    1       24.624 -31.787  11.248  0.00  0.00    -0.285 N 
ATOM      3  C   LIG    1       25.711 -30.957  11.487  0.00  0.00    +0.237 C 
ATOM      4  O   LIG    1       26.712 -31.089  10.778  0.00  0.00    -0.274 OA
ATOM      5  C   LIG    1       23.402 -31.790  12.019  0.00  0.00    +0.153 C 
ATOM      6  C   LIG    1       22.482 -32.844  11.375  0.00  0.00    +0.195 C 
ATOM      7  C   LIG    1       23.512 -33.824  10.803  0.00  0.00    +0.078 C 
ENDROOT
BRANCH   1  10
ATOM      8  N   LIG    1       25.155 -32.915   7.866  0.00  0.00    -0.299 N 
ATOM      9  H   LIG    1       25.881 -33.581   8.116  0.00  0.00    +0.150 HD
ATOM     10  C   LIG    1       24.286 -32.468   8.836  0.00  0.00    +0.234 C 
ATOM     11  O   LIG    1       23.367 -31.696   8.553  0.00  0.00    -0.274 OA
BRANCH   8  13
ATOM     12  C   LIG    1       26.023 -33.221   5.509  0.00  0.00    +0.046 C 
ATOM     13  C   LIG    1       25.034 -32.542   6.460  0.00  0.00    +0.118 C 
ATOM     14  C   LIG    1       24.574 -33.608   5.471  0.00  0.00    +0.046 C 
BRANCH  12  16
ATOM     15  C   LIG    1       26.254 -32.855   3.055  0.00  0.00    +0.004 C 
ATOM     16  C   LIG    1       26.596 -32.581   4.321  0.00  0.00    -0.028 C 
ENDBRANCH  12  16
BRANCH  13  17
ATOM     17  C   LIG    1       24.514 -31.139   6.217  0.00  0.00    +0.231 C 
ATOM     18  N   LIG    1       25.251 -30.112   6.436  0.00  0.00    -0.098 NA
BRANCH  18  19
ATOM     19  S   LIG    1       24.693 -28.621   6.200  0.00  0.00    +0.075 S 
ATOM     20  O   LIG    1       23.581 -28.418   7.123  0.00  0.00    -0.151 OA
ATOM     21  O   LIG    1       24.501 -28.380   4.791  0.00  0.00    -0.151 OA
BRANCH  19  22
ATOM     22  C   LIG    1       25.976 -27.466   6.814  0.00  0.00    +0.155 C 
ATOM     23  C   LIG    1       26.603 -26.581   5.771  0.00  0.00    +0.030 C 
ATOM     24  C   LIG    1       25.583 -26.012   6.716  0.00  0.00    +0.030 C 
ENDBRANCH  19  22
ENDBRANCH  18  19
BRANCH  17  25
ATOM     25  O   LIG    1       23.246 -31.083   5.757  0.00  0.00    -0.493 OA
ATOM     26  H   LIG    1       23.217 -31.115   4.779  0.00  0.00    +0.293 HD
ENDBRANCH  17  25
ENDBRANCH  13  17
ENDBRANCH   8  13
ENDBRANCH   1  10
BRANCH   3  27
ATOM     27  C   LIG    1       25.679 -29.997  12.769  0.00  0.00    +0.168 C 
BRANCH  27  28
ATOM     28  C   LIG    1       25.698 -30.703  14.179  0.00  0.00    -0.011 C 
ATOM     29  C   LIG    1       26.268 -32.118  13.969  0.00  0.00    +0.013 C 
ATOM     30  C   LIG    1       24.326 -30.779  14.876  0.00  0.00    +0.013 C 
ATOM     31  C   LIG    1       26.627 -29.999  15.207  0.00  0.00    +0.013 C 
ENDBRANCH  27  28
BRANCH  27  32
ATOM     32  N   LIG    1       24.489 -29.127  12.620  0.00  0.00    -0.269 N 
ATOM     33  H   LIG    1       23.698 -29.501  12.110  0.00  0.00    +0.153 HD
ATOM     34  C   LIG    1       24.271 -27.929  13.195  0.00  0.00    +0.401 C 
ATOM     35  O   LIG    1       23.204 -27.341  12.977  0.00  0.00    -0.226 OA
BRANCH  34  36
ATOM     36  O   LIG    1       25.308 -27.487  14.023  0.00  0.00    -0.445 OA
BRANCH  36  37
ATOM     37  C   LIG    1       26.130 -26.371  13.576  0.00  0.00    +0.107 C 
ATOM     38  C   LIG    1       27.330 -26.305  14.539  0.00  0.00    +0.055 C 
ATOM     39  C   LIG    1       25.426 -25.006  13.648  0.00  0.00    +0.055 C 
ATOM     40  C   LIG    1       26.644 -26.661  12.163  0.00  0.00    +0.055 C 
ENDBRANCH  36  37
ENDBRANCH  34  36
ENDBRANCH  27  32
ENDBRANCH   3  27
BRANCH   6  41
ATOM     41  O   LIG    1       21.628 -33.521  12.306  0.00  0.00    -0.471 OA
BRANCH  41  42
ATOM     42  C   LIG    1       20.639 -32.684  12.795  0.00  0.00    +0.223 A 
ATOM     43  C   LIG    1       19.505 -32.430  12.023  0.00  0.00    +0.049 A 
ATOM     44  C   LIG    1       18.547 -31.515  12.541  0.00  0.00    +0.030 A 
ATOM     45  C   LIG    1       17.424 -31.224  11.729  0.00  0.00    +0.014 A 
ATOM     46  C   LIG    1       17.264 -31.813  10.465  0.00  0.00    +0.021 A 
ATOM     47  C   LIG    1       18.199 -32.729   9.998  0.00  0.00    +0.042 A 
ATOM     48 CL   LIG    1       17.987 -33.484   8.466  0.00  0.00    -0.084 Cl
ATOM     49  C   LIG    1       18.765 -30.963  13.832  0.00  0.00    +0.146 A 
ATOM     50  C   LIG    1       19.920 -31.330  14.505  0.00  0.00    +0.160 A 
ATOM     51  C   LIG    1       19.310 -33.043  10.769  0.00  0.00    +0.034 A 
ATOM     52  N   LIG    1       20.838 -32.168  14.018  0.00  0.00    -0.217 NA
BRANCH  49  53
ATOM     53  O   LIG    1       17.856 -30.091  14.382  0.00  0.00    -0.493 OA
ATOM     54  C   LIG    1       18.351 -28.750  14.529  0.00  0.00    +0.277 C 
ENDBRANCH  49  53
ENDBRANCH  41  42
ENDBRANCH   6  41
TORSDOF 15
ENDMDL
MODEL 3
REMARK VINA RESULT:      -5.4      3.235      8.011
REMARK  Name = *****
REMARK                            x       y       z     vdW  Elec       q    Type
REMARK                         _______ _______ _______ _____ _____    ______ ____
ROOT
ATOM      1  C   LIG    1       24.144 -32.146  11.127  0.00  0.00    +0.166 C 
ATOM      2  N   LIG    1       24.425 -30.911  11.884  0.00  0.00    -0.285 N 
ATOM      3  C   LIG    1       25.669 -30.300  11.948  0.00  0.00    +0.237 C 
ATOM      4  O   LIG    1       26.579 -30.752  11.247  0.00  0.00    -0.274 OA
ATOM      5  C   LIG    1       23.276 -30.532  12.674  0.00  0.00    +0.153 C 
ATOM      6  C   LIG    1       22.126 -31.462  12.246  0.00  0.00    +0.195 C 
ATOM      7  C   LIG    1       22.900 -32.716  11.826  0.00  0.00    +0.078 C 
ENDROOT
BRANCH   1  10
ATOM      8  N   LIG    1       24.599 -32.570   8.731  0.00  0.00    -0.299 N 
ATOM      9  H   LIG    1       25.255 -33.268   9.068  0.00  0.00    +0.150 HD
ATOM     10  C   LIG    1       23.811 -31.893   9.635  0.00  0.00    +0.234 C 
ATOM     11  O   LIG    1       22.972 -31.075   9.252  0.00  0.00    -0.274 OA
BRANCH   8  13
ATOM     12  C   LIG    1       24.554 -33.681   6.458  0.00  0.00    +0.046 C 
ATOM     13  C   LIG    1       24.478 -32.396   7.287  0.00  0.00    +0.118 C 
ATOM     14  C   LIG    1       23.244 -32.964   6.596  0.00  0.00    +0.046 C 
BRANCH  12  16
ATOM     15  C   LIG    1       24.511 -33.547   3.971  0.00  0.00    +0.004 C 
ATOM     16  C   LIG    1       25.155 -33.767   5.124  0.00  0.00    -0.028 C 
ENDBRANCH  12  16
BRANCH  13  17
ATOM     17  C   LIG    1       24.983 -31.066   6.763  0.00  0.00    +0.231 C 
ATOM     18  N   LIG    1       24.197 -30.249   6.163  0.00  0.00    -0.098 NA
BRANCH  18  19
ATOM     19  S   LIG    1       24.736 -28.847   5.585  0.00  0.00    +0.075 S 
ATOM     20  O   LIG    1       23.678 -28.280   4.755  0.00  0.00    -0.151 OA
ATOM     21  O   LIG    1       26.060 -29.013   5.036  0.00  0.00    -0.151 OA
BRANCH  19  22
ATOM     22  C   LIG    1       24.838 -27.688   6.999  0.00  0.00    +0.155 C 
ATOM     23  C   LIG    1       26.166 -27.644   7.706  0.00  0.00    +0.030 C 
ATOM     24  C   LIG    1       25.781 -26.532   6.772  0.00  0.00    +0.030 C 
ENDBRANCH  19  22
ENDBRANCH  18  19
BRANCH  17  25
ATOM     25  O   LIG    1       26.294 -30.836   6.988  0.00  0.00    -0.493 OA
ATOM     26  H   LIG    1       26.436 -30.372   7.838  0.00  0.00    +0.293 HD
ENDBRANCH  17  25
ENDBRANCH  13  17
ENDBRANCH   8  13
ENDBRANCH   1  10
BRANCH   3  27
ATOM     27  C   LIG    1       25.910 -29.158  13.044  0.00  0.00    +0.168 C 
BRANCH  27  28
ATOM     28  C   LIG    1       26.428 -29.633  14.455  0.00  0.00    -0.011 C 
ATOM     29  C   LIG    1       25.244 -29.522  15.433  0.00  0.00    +0.013 C 
ATOM     30  C   LIG    1       27.639 -28.847  14.993  0.00  0.00    +0.013 C 
ATOM     31  C   LIG    1       26.880 -31.121  14.476  0.00  0.00    +0.013 C 
ENDBRANCH  27  28
BRANCH  27  32
ATOM     32  N   LIG    1       24.637 -28.408  13.164  0.00  0.00    -0.269 N 
ATOM     33  H   LIG    1       23.794 -28.943  13.330  0.00  0.00    +0.153 HD
ATOM     34  C   LIG    1       24.473 -27.072  13.210  0.00  0.00    +0.401 C 
ATOM     35  O   LIG    1       23.332 -26.610  13.334  0.00  0.00    -0.226 OA
BRANCH  34  36
ATOM     36  O   LIG    1       25.662 -26.339  13.135  0.00  0.00    -0.445 OA
BRANCH  36  37
ATOM     37  C   LIG    1       25.943 -25.357  14.172  0.00  0.00    +0.107 C 
ATOM     38  C   LIG    1       25.237 -24.058  13.740  0.00  0.00    +0.055 C 
ATOM     39  C   LIG    1       27.435 -25.021  14.331  0.00  0.00    +0.055 C 
ATOM     40  C   LIG    1       25.334 -25.835  15.494  0.00  0.00    +0.055 C 
ENDBRANCH  36  37
ENDBRANCH  34  36
ENDBRANCH  27  32
ENDBRANCH   3  27
BRANCH   6  41
ATOM     41  O   LIG    1       21.210 -31.783  13.302  0.00  0.00    -0.471 OA
BRANCH  41  42
ATOM     42  C   LIG    1       20.495 -30.672  13.715  0.00  0.00    +0.223 A 
ATOM     43  C   LIG    1       19.104 -30.665  13.603  0.00  0.00    +0.049 A 
ATOM     44  C   LIG    1       18.419 -29.477  13.982  0.00  0.00    +0.030 A 
ATOM     45  C   LIG    1       17.013 -29.461  13.819  0.00  0.00    +0.014 A 
ATOM     46  C   LIG    1       16.323 -30.570  13.303  0.00  0.00    +0.021 A 
ATOM     47  C   LIG    1       17.015 -31.729  12.972  0.00  0.00    +0.042 A 
ATOM     48 CL   LIG    1       16.171 -33.105  12.378  0.00  0.00    -0.084 Cl
ATOM     49  C   LIG    1       19.176 -28.395  14.506  0.00  0.00    +0.146 A 
ATOM     50  C   LIG    1       20.550 -28.551  14.594  0.00  0.00    +0.160 A 
ATOM     51  C   LIG    1       18.393 -31.784  13.124  0.00  0.00    +0.034 A 
ATOM     52  N   LIG    1       21.206 -29.651  14.218  0.00  0.00    -0.217 NA
BRANCH  49  53
ATOM     53  O   LIG    1       18.555 -27.235  14.905  0.00  0.00    -0.493 OA
ATOM     54  C   LIG    1       18.533 -26.211  13.897  0.00  0.00    +0.277 C 
ENDBRANCH  49  53
ENDBRANCH  41  42
ENDBRANCH   6  41
TORSDOF 15
ENDMDL
MODEL 4
REMARK VINA RESULT:      -5.0      2.097      3.051
REMARK  Name = *****
REMARK                            x       y       z     vdW  Elec       q    Type
REMARK                         _______ _______ _______ _____ _____    ______ ____
ROOT
ATOM      1  C   LIG    1       24.182 -33.370  12.818  0.00  0.00    +0.166 C 
ATOM      2  N   LIG    1       24.337 -32.525  11.620  0.00  0.00    -0.285 N 
ATOM      3  C   LIG    1       23.758 -32.800  10.389  0.00  0.00    +0.237 C 
ATOM      4  O   LIG    1       22.979 -33.754  10.311  0.00  0.00    -0.274 OA
ATOM      5  C   LIG    1       25.302 -31.478  11.863  0.00  0.00    +0.153 C 
ATOM      6  C   LIG    1       25.636 -31.531  13.365  0.00  0.00    +0.195 C 
ATOM      7  C   LIG    1       25.416 -33.018  13.664  0.00  0.00    +0.078 C 
ENDROOT
BRANCH   1  10
ATOM      8  N   LIG    1       21.741 -32.972  12.907  0.00  0.00    -0.299 N 
ATOM      9  H   LIG    1       21.749 -33.233  11.926  0.00  0.00    +0.150 HD
ATOM     10  C   LIG    1       22.906 -33.053  13.637  0.00  0.00    +0.234 C 
ATOM     11  O   LIG    1       22.915 -32.787  14.841  0.00  0.00    -0.274 OA
BRANCH   8  13
ATOM     12  C   LIG    1       19.226 -33.251  12.854  0.00  0.00    +0.046 C 
ATOM     13  C   LIG    1       20.457 -32.608  13.499  0.00  0.00    +0.118 C 
ATOM     14  C   LIG    1       19.664 -33.694  14.219  0.00  0.00    +0.046 C 
BRANCH  12  16
ATOM     15  C   LIG    1       16.753 -33.221  12.557  0.00  0.00    +0.004 C 
ATOM     16  C   LIG    1       17.923 -32.592  12.730  0.00  0.00    -0.028 C 
ENDBRANCH  12  16
BRANCH  13  17
ATOM     17  C   LIG    1       20.413 -31.227  14.123  0.00  0.00    +0.231 C 
ATOM     18  N   LIG    1       20.444 -30.171  13.397  0.00  0.00    -0.098 NA
BRANCH  18  19
ATOM     19  S   LIG    1       20.421 -28.704  14.058  0.00  0.00    +0.075 S 
ATOM     20  O   LIG    1       21.356 -28.713  15.178  0.00  0.00    -0.151 OA
ATOM     21  O   LIG    1       19.059 -28.278  14.272  0.00  0.00    -0.151 OA
BRANCH  19  22
ATOM     22  C   LIG    1       21.203 -27.563  12.857  0.00  0.00    +0.155 C 
ATOM     23  C   LIG    1       22.007 -26.442  13.459  0.00  0.00    +0.030 C 
ATOM     24  C   LIG    1       22.711 -27.624  12.853  0.00  0.00    +0.030 C 
ENDBRANCH  19  22
ENDBRANCH  18  19
BRANCH  17  25
ATOM     25  O   LIG    1       20.336 -31.223  15.471  0.00  0.00    -0.493 OA
ATOM     26  H   LIG    1       21.224 -31.262  15.881  0.00  0.00    +0.293 HD
ENDBRANCH  17  25
ENDBRANCH  13  17
ENDBRANCH   8  13
ENDBRANCH   1  10
BRANCH   3  27
ATOM     27  C   LIG    1       24.256 -31.984   9.104  0.00  0.00    +0.168 C 
BRANCH  27  28
ATOM     28  C   LIG    1       24.042 -30.422   9.135  0.00  0.00    -0.011 C 
ATOM     29  C   LIG    1       22.765 -30.156   9.953  0.00  0.00    +0.013 C 
ATOM     30  C   LIG    1       23.934 -29.762   7.747  0.00  0.00    +0.013 C 
ATOM     31  C   LIG    1       25.192 -29.658   9.849  0.00  0.00    +0.013 C 
ENDBRANCH  27  28
BRANCH  27  32
ATOM     32  N   LIG    1       23.590 -32.594   7.928  0.00  0.00    -0.269 N 
ATOM     33  H   LIG    1       22.601 -32.417   7.808  0.00  0.00    +0.153 HD
ATOM     34  C   LIG    1       24.170 -33.259   6.911  0.00  0.00    +0.401 C 
ATOM     35  O   LIG    1       23.462 -33.689   5.992  0.00  0.00    -0.226 OA
BRANCH  34  36
ATOM     36  O   LIG    1       25.561 -33.368   7.008  0.00  0.00    -0.445 OA
BRANCH  36  37
ATOM     37  C   LIG    1       26.376 -32.897   5.897  0.00  0.00    +0.107 C 
ATOM     38  C   LIG    1       27.841 -32.999   6.360  0.00  0.00    +0.055 C 
ATOM     39  C   LIG    1       26.131 -31.426   5.518  0.00  0.00    +0.055 C 
ATOM     40  C   LIG    1       26.170 -33.824   4.695  0.00  0.00    +0.055 C 
ENDBRANCH  36  37
ENDBRANCH  34  36
ENDBRANCH  27  32
ENDBRANCH   3  27
BRANCH   6  41
ATOM     41  O   LIG    1       26.986 -31.163  13.678  0.00  0.00    -0.471 OA
BRANCH  41  42
ATOM     42  C   LIG    1       27.070 -29.854  14.119  0.00  0.00    +0.223 A 
ATOM     43  C   LIG    1       28.307 -29.330  14.497  0.00  0.00    +0.049 A 
ATOM     44  C   LIG    1       28.333 -28.001  15.003  0.00  0.00    +0.030 A 
ATOM     45  C   LIG    1       29.585 -27.496  15.431  0.00  0.00    +0.014 A 
ATOM     46  C   LIG    1       30.751 -28.275  15.360  0.00  0.00    +0.021 A 
ATOM     47  C   LIG    1       30.702 -29.559  14.830  0.00  0.00    +0.042 A 
ATOM     48 CL   LIG    1       32.134 -30.502  14.704  0.00  0.00    -0.084 Cl
ATOM     49  C   LIG    1       27.119 -27.265  15.038  0.00  0.00    +0.146 A 
ATOM     50  C   LIG    1       25.967 -27.898  14.598  0.00  0.00    +0.160 A 
ATOM     51  C   LIG    1       29.493 -30.085  14.396  0.00  0.00    +0.034 A 
ATOM     52  N   LIG    1       25.926 -29.153  14.145  0.00  0.00    -0.217 NA
BRANCH  49  53
ATOM     53  O   LIG    1       27.099 -25.970  15.499  0.00  0.00    -0.493 OA
ATOM     54  C   LIG    1       26.736 -25.002  14.501  0.00  0.00    +0.277 C 
ENDBRANCH  49  53
ENDBRANCH  41  42
ENDBRANCH   6  41
TORSDOF 15
ENDMDL
MODEL 5
REMARK VINA RESULT:      -4.7      4.477      9.566
REMARK  Name = *****
REMARK                            x       y       z     vdW  Elec       q    Type
REMARK                         _______ _______ _______ _____ _____    ______ ____
ROOT
ATOM      1  C   LIG    1       25.811 -27.166   6.644  0.00  0.00    +0.166 C 
ATOM      2  N   LIG    1       25.524 -27.910   7.885  0.00  0.00    -0.285 N 
ATOM      3  C   LIG    1       26.235 -27.762   9.068  0.00  0.00    +0.237 C 
ATOM      4  O   LIG    1       27.096 -26.879   9.124  0.00  0.00    -0.274 OA
ATOM      5  C   LIG    1       24.522 -28.923   7.645  0.00  0.00    +0.153 C 
ATOM      6  C   LIG    1       23.990 -28.682   6.220  0.00  0.00    +0.195 C 
ATOM      7  C   LIG    1       25.220 -28.064   5.546  0.00  0.00    +0.078 C 
ENDROOT
BRANCH   1  10
ATOM      8  N   LIG    1       25.968 -24.696   6.676  0.00  0.00    -0.299 N 
ATOM      9  H   LIG    1       26.972 -24.846   6.660  0.00  0.00    +0.150 HD
ATOM     10  C   LIG    1       25.123 -25.779   6.583  0.00  0.00    +0.234 C 
ATOM     11  O   LIG    1       23.900 -25.625   6.552  0.00  0.00    -0.274 OA
BRANCH   8  13
ATOM     12  C   LIG    1       24.658 -22.875   5.505  0.00  0.00    +0.046 C 
ATOM     13  C   LIG    1       25.489 -23.318   6.713  0.00  0.00    +0.118 C 
ATOM     14  C   LIG    1       23.988 -23.081   6.832  0.00  0.00    +0.046 C 
BRANCH  12  16
ATOM     15  C   LIG    1       23.623 -20.691   4.899  0.00  0.00    +0.004 C 
ATOM     16  C   LIG    1       24.674 -21.521   4.946  0.00  0.00    -0.028 C 
ENDBRANCH  12  16
BRANCH  13  17
ATOM     17  C   LIG    1       26.378 -22.356   7.476  0.00  0.00    +0.231 C 
ATOM     18  N   LIG    1       27.559 -22.075   7.063  0.00  0.00    -0.098 NA
BRANCH  18  19
ATOM     19  S   LIG    1       28.513 -21.073   7.885  0.00  0.00    +0.075 S 
ATOM     20  O   LIG    1       29.437 -21.889   8.666  0.00  0.00    -0.151 OA
ATOM     21  O   LIG    1       27.720 -20.065   8.547  0.00  0.00    -0.151 OA
BRANCH  19  22
ATOM     22  C   LIG    1       29.599 -20.245   6.665  0.00  0.00    +0.155 C 
ATOM     23  C   LIG    1       29.185 -18.853   6.268  0.00  0.00    +0.030 C 
ATOM     24  C   LIG    1       30.333 -19.047   7.217  0.00  0.00    +0.030 C 
ENDBRANCH  19  22
ENDBRANCH  18  19
BRANCH  17  25
ATOM     25  O   LIG    1       25.818 -21.841   8.592  0.00  0.00    -0.493 OA
ATOM     26  H   LIG    1       24.875 -21.617   8.449  0.00  0.00    +0.293 HD
ENDBRANCH  17  25
ENDBRANCH  13  17
ENDBRANCH   8  13
ENDBRANCH   1  10
BRANCH   3  27
ATOM     27  C   LIG    1       26.028 -28.842  10.231  0.00  0.00    +0.168 C 
BRANCH  27  28
ATOM     28  C   LIG    1       26.373 -28.375  11.697  0.00  0.00    -0.011 C 
ATOM     29  C   LIG    1       27.649 -29.124  12.122  0.00  0.00    +0.013 C 
ATOM     30  C   LIG    1       25.251 -28.607  12.726  0.00  0.00    +0.013 C 
ATOM     31  C   LIG    1       26.697 -26.857  11.799  0.00  0.00    +0.013 C 
ENDBRANCH  27  28
BRANCH  27  32
ATOM     32  N   LIG    1       26.817 -30.037   9.848  0.00  0.00    -0.269 N 
ATOM     33  H   LIG    1       27.761 -29.886   9.517  0.00  0.00    +0.153 HD
ATOM     34  C   LIG    1       26.477 -31.330  10.009  0.00  0.00    +0.401 C 
ATOM     35  O   LIG    1       27.270 -32.209   9.648  0.00  0.00    -0.226 OA
BRANCH  34  36
ATOM     36  O   LIG    1       25.231 -31.532  10.609  0.00  0.00    -0.445 OA
BRANCH  36  37
ATOM     37  C   LIG    1       25.139 -32.454  11.732  0.00  0.00    +0.107 C 
ATOM     38  C   LIG    1       25.918 -31.803  12.891  0.00  0.00    +0.055 C 
ATOM     39  C   LIG    1       25.789 -33.824  11.474  0.00  0.00    +0.055 C 
ATOM     40  C   LIG    1       23.671 -32.602  12.143  0.00  0.00    +0.055 C 
ENDBRANCH  36  37
ENDBRANCH  34  36
ENDBRANCH  27  32
ENDBRANCH   3  27
BRANCH   6  41
ATOM     41  O   LIG    1       23.604 -29.879   5.531  0.00  0.00    -0.471 OA
BRANCH  41  42
ATOM     42  C   LIG    1       24.508 -30.906   5.743  0.00  0.00    +0.223 A 
ATOM     43  C   LIG    1       24.238 -31.875   6.709  0.00  0.00    +0.049 A 
ATOM     44  C   LIG    1       25.226 -32.874   6.933  0.00  0.00    +0.030 A 
ATOM     45  C   LIG    1       24.966 -33.825   7.950  0.00  0.00    +0.014 A 
ATOM     46  C   LIG    1       23.784 -33.782   8.707  0.00  0.00    +0.021 A 
ATOM     47  C   LIG    1       22.822 -32.814   8.443  0.00  0.00    +0.042 A 
ATOM     48 CL   LIG    1       21.354 -32.782   9.340  0.00  0.00    -0.084 Cl
ATOM     49  C   LIG    1       26.395 -32.866   6.125  0.00  0.00    +0.146 A 
ATOM     50  C   LIG    1       26.517 -31.863   5.177  0.00  0.00    +0.160 A 
ATOM     51  C   LIG    1       23.039 -31.870   7.450  0.00  0.00    +0.034 A 
ATOM     52  N   LIG    1       25.609 -30.906   4.975  0.00  0.00    -0.217 NA
BRANCH  49  53
ATOM     53  O   LIG    1       27.366 -33.824   6.292  0.00  0.00    -0.493 OA
ATOM     54  C   LIG    1       28.702 -33.344   6.067  0.00  0.00    +0.277 C 
ENDBRANCH  49  53
ENDBRANCH  41  42
ENDBRANCH   6  41
TORSDOF 15
ENDMDL
MODEL 6
REMARK VINA RESULT:      -4.7      1.749      2.982
REMARK  Name = *****
REMARK                            x       y       z     vdW  Elec       q    Type
REMARK                         _______ _______ _______ _____ _____    ______ ____
ROOT
ATOM      1  C   LIG    1       24.260 -32.423  11.222  0.00  0.00    +0.166 C 
ATOM      2  N   LIG    1       24.628 -31.588  10.063  0.00  0.00    -0.285 N 
ATOM      3  C   LIG    1       24.183 -31.809   8.767  0.00  0.00    +0.237 C 
ATOM      4  O   LIG    1       23.345 -32.696   8.581  0.00  0.00    -0.274 OA
ATOM      5  C   LIG    1       25.637 -30.624  10.437  0.00  0.00    +0.153 C 
ATOM      6  C   LIG    1       25.779 -30.711  11.968  0.00  0.00    +0.195 C 
ATOM      7  C   LIG    1       25.405 -32.177  12.216  0.00  0.00    +0.078 C 
ENDROOT
BRANCH   1  10
ATOM      8  N   LIG    1       22.422 -30.786  11.489  0.00  0.00    -0.299 N 
ATOM      9  H   LIG    1       22.870 -30.289  10.723  0.00  0.00    +0.150 HD
ATOM     10  C   LIG    1       22.922 -32.006  11.884  0.00  0.00    +0.234 C 
ATOM     11  O   LIG    1       22.372 -32.654  12.777  0.00  0.00    -0.274 OA
BRANCH   8  13
ATOM     12  C   LIG    1       21.338 -29.722  13.512  0.00  0.00    +0.046 C 
ATOM     13  C   LIG    1       21.215 -30.199  12.062  0.00  0.00    +0.118 C 
ATOM     14  C   LIG    1       21.232 -28.714  12.406  0.00  0.00    +0.046 C 
BRANCH  12  16
ATOM     15  C   LIG    1       19.878 -30.878  15.166  0.00  0.00    +0.004 C 
ATOM     16  C   LIG    1       20.251 -29.782  14.494  0.00  0.00    -0.028 C 
ENDBRANCH  12  16
BRANCH  13  17
ATOM     17  C   LIG    1       19.916 -30.738  11.497  0.00  0.00    +0.231 C 
ATOM     18  N   LIG    1       19.252 -31.645  12.112  0.00  0.00    -0.098 NA
BRANCH  18  19
ATOM     19  S   LIG    1       17.884 -32.235  11.503  0.00  0.00    +0.075 S 
ATOM     20  O   LIG    1       18.216 -32.904  10.249  0.00  0.00    -0.151 OA
ATOM     21  O   LIG    1       16.857 -31.222  11.517  0.00  0.00    -0.151 OA
BRANCH  19  22
ATOM     22  C   LIG    1       17.358 -33.608  12.595  0.00  0.00    +0.155 C 
ATOM     23  C   LIG    1       18.210 -33.825  13.817  0.00  0.00    +0.030 C 
ATOM     24  C   LIG    1       16.871 -33.154  13.950  0.00  0.00    +0.030 C 
ENDBRANCH  19  22
ENDBRANCH  18  19
BRANCH  17  25
ATOM     25  O   LIG    1       19.541 -30.180  10.325  0.00  0.00    -0.493 OA
ATOM     26  H   LIG    1       19.939 -29.294  10.206  0.00  0.00    +0.293 HD
ENDBRANCH  17  25
ENDBRANCH  13  17
ENDBRANCH   8  13
ENDBRANCH   1  10
BRANCH   3  27
ATOM     27  C   LIG    1       24.898 -31.030   7.565  0.00  0.00    +0.168 C 
BRANCH  27  28
ATOM     28  C   LIG    1       25.694 -31.912   6.528  0.00  0.00    -0.011 C 
ATOM     29  C   LIG    1       25.791 -31.101   5.223  0.00  0.00    +0.013 C 
ATOM     30  C   LIG    1       25.073 -33.295   6.251  0.00  0.00    +0.013 C 
ATOM     31  C   LIG    1       27.154 -32.215   6.971  0.00  0.00    +0.013 C 
ENDBRANCH  27  28
BRANCH  27  32
ATOM     32  N   LIG    1       25.774 -30.006   8.182  0.00  0.00    -0.269 N 
ATOM     33  H   LIG    1       26.507 -30.329   8.799  0.00  0.00    +0.153 HD
ATOM     34  C   LIG    1       25.800 -28.685   7.921  0.00  0.00    +0.401 C 
ATOM     35  O   LIG    1       26.615 -27.970   8.519  0.00  0.00    -0.226 OA
BRANCH  34  36
ATOM     36  O   LIG    1       24.884 -28.267   6.951  0.00  0.00    -0.445 OA
BRANCH  36  37
ATOM     37  C   LIG    1       25.196 -27.084   6.161  0.00  0.00    +0.107 C 
ATOM     38  C   LIG    1       26.206 -27.534   5.089  0.00  0.00    +0.055 C 
ATOM     39  C   LIG    1       25.868 -25.955   6.960  0.00  0.00    +0.055 C 
ATOM     40  C   LIG    1       23.922 -26.594   5.467  0.00  0.00    +0.055 C 
ENDBRANCH  36  37
ENDBRANCH  34  36
ENDBRANCH  27  32
ENDBRANCH   3  27
BRANCH   6  41
ATOM     41  O   LIG    1       27.106 -30.457  12.448  0.00  0.00    -0.471 OA
BRANCH  41  42
ATOM     42  C   LIG    1       27.162 -29.302  13.209  0.00  0.00    +0.223 A 
ATOM     43  C   LIG    1       28.338 -28.976  13.885  0.00  0.00    +0.049 A 
ATOM     44  C   LIG    1       28.327 -27.813  14.704  0.00  0.00    +0.030 A 
ATOM     45  C   LIG    1       29.508 -27.518  15.426  0.00  0.00    +0.014 A 
ATOM     46  C   LIG    1       30.643 -28.341  15.339  0.00  0.00    +0.021 A 
ATOM     47  C   LIG    1       30.637 -29.453  14.506  0.00  0.00    +0.042 A 
ATOM     48 CL   LIG    1       32.038 -30.441  14.364  0.00  0.00    -0.084 Cl
ATOM     49  C   LIG    1       27.148 -27.019  14.739  0.00  0.00    +0.146 A 
ATOM     50  C   LIG    1       26.063 -27.442  13.988  0.00  0.00    +0.160 A 
ATOM     51  C   LIG    1       29.498 -29.770  13.778  0.00  0.00    +0.034 A 
ATOM     52  N   LIG    1       26.053 -28.545  13.236  0.00  0.00    -0.217 NA
BRANCH  49  53
ATOM     53  O   LIG    1       27.099 -25.876  15.499  0.00  0.00    -0.493 OA
ATOM     54  C   LIG    1       27.542 -24.697  14.807  0.00  0.00    +0.277 C 
ENDBRANCH  49  53
ENDBRANCH  41  42
ENDBRANCH   6  41
TORSDOF 15
ENDMDL
MODEL 7
REMARK VINA RESULT:      -4.7      4.420      9.321
REMARK  Name = *****
REMARK                            x       y       z     vdW  Elec       q    Type
REMARK                         _______ _______ _______ _____ _____    ______ ____
ROOT
ATOM      1  C   LIG    1       25.764 -27.398   6.698  0.00  0.00    +0.166 C 
ATOM      2  N   LIG    1       25.430 -28.106   7.949  0.00  0.00    -0.285 N 
ATOM      3  C   LIG    1       26.111 -27.941   9.146  0.00  0.00    +0.237 C 
ATOM      4  O   LIG    1       26.987 -27.073   9.205  0.00  0.00    -0.274 OA
ATOM      5  C   LIG    1       24.416 -29.106   7.706  0.00  0.00    +0.153 C 
ATOM      6  C   LIG    1       23.927 -28.891   6.261  0.00  0.00    +0.195 C 
ATOM      7  C   LIG    1       25.187 -28.313   5.607  0.00  0.00    +0.078 C 
ENDROOT
BRANCH   1  10
ATOM      8  N   LIG    1       25.942 -24.932   6.811  0.00  0.00    -0.299 N 
ATOM      9  H   LIG    1       26.939 -25.095   6.920  0.00  0.00    +0.150 HD
ATOM     10  C   LIG    1       25.105 -26.001   6.584  0.00  0.00    +0.234 C 
ATOM     11  O   LIG    1       23.897 -25.829   6.402  0.00  0.00    -0.274 OA
BRANCH   8  13
ATOM     12  C   LIG    1       24.673 -23.113   5.593  0.00  0.00    +0.046 C 
ATOM     13  C   LIG    1       25.478 -23.548   6.821  0.00  0.00    +0.118 C 
ATOM     14  C   LIG    1       23.977 -23.295   6.909  0.00  0.00    +0.046 C 
BRANCH  12  16
ATOM     15  C   LIG    1       23.853 -21.289   4.108  0.00  0.00    +0.004 C 
ATOM     16  C   LIG    1       24.714 -21.767   5.016  0.00  0.00    -0.028 C 
ENDBRANCH  12  16
BRANCH  13  17
ATOM     17  C   LIG    1       26.363 -22.586   7.588  0.00  0.00    +0.231 C 
ATOM     18  N   LIG    1       27.406 -22.072   7.049  0.00  0.00    -0.098 NA
BRANCH  18  19
ATOM     19  S   LIG    1       28.360 -21.068   7.869  0.00  0.00    +0.075 S 
ATOM     20  O   LIG    1       29.204 -21.879   8.740  0.00  0.00    -0.151 OA
ATOM     21  O   LIG    1       27.579 -19.994   8.435  0.00  0.00    -0.151 OA
BRANCH  19  22
ATOM     22  C   LIG    1       29.544 -20.353   6.669  0.00  0.00    +0.155 C 
ATOM     23  C   LIG    1       29.445 -18.864   6.470  0.00  0.00    +0.030 C 
ATOM     24  C   LIG    1       30.564 -19.433   7.295  0.00  0.00    +0.030 C 
ENDBRANCH  19  22
ENDBRANCH  18  19
BRANCH  17  25
ATOM     25  O   LIG    1       25.952 -22.330   8.849  0.00  0.00    -0.493 OA
ATOM     26  H   LIG    1       26.498 -21.635   9.269  0.00  0.00    +0.293 HD
ENDBRANCH  17  25
ENDBRANCH  13  17
ENDBRANCH   8  13
ENDBRANCH   1  10
BRANCH   3  27
ATOM     27  C   LIG    1       25.852 -28.988  10.330  0.00  0.00    +0.168 C 
BRANCH  27  28
ATOM     28  C   LIG    1       26.765 -30.273  10.347  0.00  0.00    -0.011 C 
ATOM     29  C   LIG    1       28.043 -29.910  11.126  0.00  0.00    +0.013 C 
ATOM     30  C   LIG    1       27.129 -30.820   8.953  0.00  0.00    +0.013 C 
ATOM     31  C   LIG    1       26.120 -31.477  11.089  0.00  0.00    +0.013 C 
ENDBRANCH  27  28
BRANCH  27  32
ATOM     32  N   LIG    1       24.416 -29.350  10.270  0.00  0.00    -0.269 N 
ATOM     33  H   LIG    1       24.040 -29.622   9.371  0.00  0.00    +0.153 HD
ATOM     34  C   LIG    1       23.563 -29.492  11.302  0.00  0.00    +0.401 C 
ATOM     35  O   LIG    1       22.391 -29.822  11.074  0.00  0.00    -0.226 OA
BRANCH  34  36
ATOM     36  O   LIG    1       24.131 -29.264  12.560  0.00  0.00    -0.445 OA
BRANCH  36  37
ATOM     37  C   LIG    1       23.672 -28.119  13.335  0.00  0.00    +0.107 C 
ATOM     38  C   LIG    1       23.480 -28.623  14.778  0.00  0.00    +0.055 C 
ATOM     39  C   LIG    1       22.317 -27.554  12.877  0.00  0.00    +0.055 C 
ATOM     40  C   LIG    1       24.759 -27.040  13.327  0.00  0.00    +0.055 C 
ENDBRANCH  36  37
ENDBRANCH  34  36
ENDBRANCH  27  32
ENDBRANCH   3  27
BRANCH   6  41
ATOM     41  O   LIG    1       23.537 -30.097   5.591  0.00  0.00    -0.471 OA
BRANCH  41  42
ATOM     42  C   LIG    1       24.519 -31.070   5.676  0.00  0.00    +0.223 A 
ATOM     43  C   LIG    1       24.494 -31.987   6.726  0.00  0.00    +0.049 A 
ATOM     44  C   LIG    1       25.558 -32.928   6.805  0.00  0.00    +0.030 A 
ATOM     45  C   LIG    1       25.551 -33.823   7.902  0.00  0.00    +0.014 A 
ATOM     46  C   LIG    1       24.537 -33.782   8.873  0.00  0.00    +0.021 A 
ATOM     47  C   LIG    1       23.492 -32.875   8.752  0.00  0.00    +0.042 A 
ATOM     48 CL   LIG    1       22.226 -32.848   9.917  0.00  0.00    -0.084 Cl
ATOM     49  C   LIG    1       26.546 -32.921   5.784  0.00  0.00    +0.146 A 
ATOM     50  C   LIG    1       26.429 -31.975   4.778  0.00  0.00    +0.160 A 
ATOM     51  C   LIG    1       23.462 -31.986   7.687  0.00  0.00    +0.034 A 
ATOM     52  N   LIG    1       25.449 -31.072   4.708  0.00  0.00    -0.217 NA
BRANCH  49  53
ATOM     53  O   LIG    1       27.582 -33.825   5.807  0.00  0.00    -0.493 OA
ATOM     54  C   LIG    1       28.706 -33.402   6.595  0.00  0.00    +0.277 C 
ENDBRANCH  49  53
ENDBRANCH  41  42
ENDBRANCH   6  41
TORSDOF 15
ENDMDL
MODEL 8
REMARK VINA RESULT:      -3.9      3.183      7.210
REMARK  Name = *****
REMARK                            x       y       z     vdW  Elec       q    Type
REMARK                         _______ _______ _______ _____ _____    ______ ____
ROOT
ATOM      1  C   LIG    1       22.851 -30.352  10.925  0.00  0.00    +0.166 C 
ATOM      2  N   LIG    1       23.429 -31.099   9.793  0.00  0.00    -0.285 N 
ATOM      3  C   LIG    1       23.913 -30.509   8.633  0.00  0.00    +0.237 C 
ATOM      4  O   LIG    1       23.960 -29.277   8.581  0.00  0.00    -0.274 OA
ATOM      5  C   LIG    1       23.266 -32.520   9.991  0.00  0.00    +0.153 C 
ATOM      6  C   LIG    1       22.734 -32.704  11.424  0.00  0.00    +0.195 C 
ATOM      7  C   LIG    1       21.963 -31.394  11.622  0.00  0.00    +0.078 C 
ENDROOT
BRANCH   1  10
ATOM      8  N   LIG    1       24.942 -29.109  11.387  0.00  0.00    -0.299 N 
ATOM      9  H   LIG    1       24.900 -28.846  10.407  0.00  0.00    +0.150 HD
ATOM     10  C   LIG    1       23.911 -29.840  11.933  0.00  0.00    +0.234 C 
ATOM     11  O   LIG    1       23.912 -30.135  13.131  0.00  0.00    -0.274 OA
BRANCH   8  13
ATOM     12  C   LIG    1       27.222 -29.600  12.368  0.00  0.00    +0.046 C 
ATOM     13  C   LIG    1       26.067 -28.614  12.174  0.00  0.00    +0.118 C 
ATOM     14  C   LIG    1       27.404 -28.413  11.468  0.00  0.00    +0.046 C 
BRANCH  12  16
ATOM     15  C   LIG    1       29.370 -29.495  13.625  0.00  0.00    +0.004 C 
ATOM     16  C   LIG    1       28.045 -29.677  13.579  0.00  0.00    -0.028 C 
ENDBRANCH  12  16
BRANCH  13  17
ATOM     17  C   LIG    1       25.704 -27.579  13.220  0.00  0.00    +0.231 C 
ATOM     18  N   LIG    1       25.819 -26.325  12.980  0.00  0.00    -0.098 NA
BRANCH  18  19
ATOM     19  S   LIG    1       25.456 -25.225  14.097  0.00  0.00    +0.075 S 
ATOM     20  O   LIG    1       24.345 -25.750  14.884  0.00  0.00    -0.151 OA
ATOM     21  O   LIG    1       25.344 -23.920  13.491  0.00  0.00    -0.151 OA
BRANCH  19  22
ATOM     22  C   LIG    1       26.847 -25.192  15.288  0.00  0.00    +0.155 C 
ATOM     23  C   LIG    1       28.124 -25.831  14.810  0.00  0.00    +0.030 C 
ATOM     24  C   LIG    1       28.007 -24.333  14.846  0.00  0.00    +0.030 C 
ENDBRANCH  19  22
ENDBRANCH  18  19
BRANCH  17  25
ATOM     25  O   LIG    1       25.259 -28.094  14.387  0.00  0.00    -0.493 OA
ATOM     26  H   LIG    1       25.875 -27.899  15.122  0.00  0.00    +0.293 HD
ENDBRANCH  17  25
ENDBRANCH  13  17
ENDBRANCH   8  13
ENDBRANCH   1  10
BRANCH   3  27
ATOM     27  C   LIG    1       24.219 -31.440   7.367  0.00  0.00    +0.168 C 
BRANCH  27  28
ATOM     28  C   LIG    1       25.710 -31.921   7.189  0.00  0.00    -0.011 C 
ATOM     29  C   LIG    1       25.718 -33.449   7.373  0.00  0.00    +0.013 C 
ATOM     30  C   LIG    1       26.715 -31.263   8.154  0.00  0.00    +0.013 C 
ATOM     31  C   LIG    1       26.282 -31.643   5.771  0.00  0.00    +0.013 C 
ENDBRANCH  27  28
BRANCH  27  32
ATOM     32  N   LIG    1       23.748 -30.701   6.171  0.00  0.00    -0.269 N 
ATOM     33  H   LIG    1       23.060 -31.155   5.583  0.00  0.00    +0.153 HD
ATOM     34  C   LIG    1       24.026 -29.429   5.831  0.00  0.00    +0.401 C 
ATOM     35  O   LIG    1       23.528 -28.959   4.800  0.00  0.00    -0.226 OA
BRANCH  34  36
ATOM     36  O   LIG    1       24.857 -28.756   6.733  0.00  0.00    -0.445 OA
BRANCH  36  37
ATOM     37  C   LIG    1       25.415 -27.469   6.340  0.00  0.00    +0.107 C 
ATOM     38  C   LIG    1       26.374 -27.051   7.470  0.00  0.00    +0.055 C 
ATOM     39  C   LIG    1       24.371 -26.348   6.205  0.00  0.00    +0.055 C 
ATOM     40  C   LIG    1       26.218 -27.643   5.047  0.00  0.00    +0.055 C 
ENDBRANCH  36  37
ENDBRANCH  34  36
ENDBRANCH  27  32
ENDBRANCH   3  27
BRANCH   6  41
ATOM     41  O   LIG    1       21.849 -33.821  11.581  0.00  0.00    -0.471 OA
BRANCH  41  42
ATOM     42  C   LIG    1       20.845 -33.554  12.496  0.00  0.00    +0.223 A 
ATOM     43  C   LIG    1       19.522 -33.467  12.065  0.00  0.00    +0.049 A 
ATOM     44  C   LIG    1       18.534 -33.130  13.032  0.00  0.00    +0.030 A 
ATOM     45  C   LIG    1       17.201 -32.995  12.576  0.00  0.00    +0.014 A 
ATOM     46  C   LIG    1       16.867 -33.185  11.225  0.00  0.00    +0.021 A 
ATOM     47  C   LIG    1       17.847 -33.547  10.308  0.00  0.00    +0.042 A 
ATOM     48 CL   LIG    1       17.437 -33.820   8.660  0.00  0.00    -0.084 Cl
ATOM     49  C   LIG    1       18.939 -32.961  14.384  0.00  0.00    +0.146 A 
ATOM     50  C   LIG    1       20.284 -33.111  14.679  0.00  0.00    +0.160 A 
ATOM     51  C   LIG    1       19.164 -33.694  10.720  0.00  0.00    +0.034 A 
ATOM     52  N   LIG    1       21.223 -33.403  13.776  0.00  0.00    -0.217 NA
BRANCH  49  53
ATOM     53  O   LIG    1       18.016 -32.655  15.356  0.00  0.00    -0.493 OA
ATOM     54  C   LIG    1       17.742 -31.250  15.476  0.00  0.00    +0.277 C 
ENDBRANCH  49  53
ENDBRANCH  41  42
ENDBRANCH   6  41
TORSDOF 15
ENDMDL
MODEL 9
REMARK VINA RESULT:      -3.9      3.112      7.887
REMARK  Name = *****
REMARK                            x       y       z     vdW  Elec       q    Type
REMARK                         _______ _______ _______ _____ _____    ______ ____
ROOT
ATOM      1  C   LIG    1       25.046 -31.857  10.581  0.00  0.00    +0.166 C 
ATOM      2  N   LIG    1       25.278 -30.644  11.388  0.00  0.00    -0.285 N 
ATOM      3  C   LIG    1       26.508 -30.015  11.518  0.00  0.00    +0.237 C 
ATOM      4  O   LIG    1       27.450 -30.430  10.838  0.00  0.00    -0.274 OA
ATOM      5  C   LIG    1       24.094 -30.310  12.146  0.00  0.00    +0.153 C 
ATOM      6  C   LIG    1       22.976 -31.243  11.645  0.00  0.00    +0.195 C 
ATOM      7  C   LIG    1       23.787 -32.470  11.214  0.00  0.00    +0.078 C 
ENDROOT
BRANCH   1  10
ATOM      8  N   LIG    1       25.352 -30.419   8.590  0.00  0.00    -0.299 N 
ATOM      9  H   LIG    1       26.015 -29.909   9.166  0.00  0.00    +0.150 HD
ATOM     10  C   LIG    1       24.764 -31.561   9.087  0.00  0.00    +0.234 C 
ATOM     11  O   LIG    1       23.991 -32.226   8.393  0.00  0.00    -0.274 OA
BRANCH   8  13
ATOM     12  C   LIG    1       25.069 -31.031   6.150  0.00  0.00    +0.046 C 
ATOM     13  C   LIG    1       25.134 -29.944   7.227  0.00  0.00    +0.118 C 
ATOM     14  C   LIG    1       23.819 -30.300   6.543  0.00  0.00    +0.046 C 
BRANCH  12  16
ATOM     15  C   LIG    1       26.061 -31.844   4.015  0.00  0.00    +0.004 C 
ATOM     16  C   LIG    1       25.561 -30.865   4.780  0.00  0.00    -0.028 C 
ENDBRANCH  12  16
BRANCH  13  17
ATOM     17  C   LIG    1       25.680 -28.559   6.942  0.00  0.00    +0.231 C 
ATOM     18  N   LIG    1       25.346 -27.920   5.882  0.00  0.00    -0.098 NA
BRANCH  18  19
ATOM     19  S   LIG    1       25.942 -26.459   5.566  0.00  0.00    +0.075 S 
ATOM     20  O   LIG    1       25.325 -25.993   4.328  0.00  0.00    -0.151 OA
ATOM     21  O   LIG    1       27.379 -26.474   5.683  0.00  0.00    -0.151 OA
BRANCH  19  22
ATOM     22  C   LIG    1       25.270 -25.321   6.834  0.00  0.00    +0.155 C 
ATOM     23  C   LIG    1       25.807 -23.915   6.792  0.00  0.00    +0.030 C 
ATOM     24  C   LIG    1       24.430 -24.202   6.264  0.00  0.00    +0.030 C 
ENDBRANCH  19  22
ENDBRANCH  18  19
BRANCH  17  25
ATOM     25  O   LIG    1       26.518 -28.081   7.887  0.00  0.00    -0.493 OA
ATOM     26  H   LIG    1       26.731 -28.764   8.555  0.00  0.00    +0.293 HD
ENDBRANCH  17  25
ENDBRANCH  13  17
ENDBRANCH   8  13
ENDBRANCH   1  10
BRANCH   3  27
ATOM     27  C   LIG    1       26.688 -28.907  12.659  0.00  0.00    +0.168 C 
BRANCH  27  28
ATOM     28  C   LIG    1       27.454 -29.355  13.963  0.00  0.00    -0.011 C 
ATOM     29  C   LIG    1       26.608 -30.456  14.628  0.00  0.00    +0.013 C 
ATOM     30  C   LIG    1       27.733 -28.219  14.966  0.00  0.00    +0.013 C 
ATOM     31  C   LIG    1       28.847 -29.980  13.674  0.00  0.00    +0.013 C 
ENDBRANCH  27  28
BRANCH  27  32
ATOM     32  N   LIG    1       25.332 -28.401  12.980  0.00  0.00    -0.269 N 
ATOM     33  H   LIG    1       24.626 -29.083  13.226  0.00  0.00    +0.153 HD
ATOM     34  C   LIG    1       24.946 -27.118  13.114  0.00  0.00    +0.401 C 
ATOM     35  O   LIG    1       23.768 -26.872  13.407  0.00  0.00    -0.226 OA
BRANCH  34  36
ATOM     36  O   LIG    1       25.967 -26.182  12.922  0.00  0.00    -0.445 OA
BRANCH  36  37
ATOM     37  C   LIG    1       26.212 -25.195  13.964  0.00  0.00    +0.107 C 
ATOM     38  C   LIG    1       25.678 -25.806  15.273  0.00  0.00    +0.055 C 
ATOM     39  C   LIG    1       25.468 -23.866  13.757  0.00  0.00    +0.055 C 
ATOM     40  C   LIG    1       27.722 -24.974  14.101  0.00  0.00    +0.055 C 
ENDBRANCH  36  37
ENDBRANCH  34  36
ENDBRANCH  27  32
ENDBRANCH   3  27
BRANCH   6  41
ATOM     41  O   LIG    1       22.028 -31.614  12.655  0.00  0.00    -0.471 OA
BRANCH  41  42
ATOM     42  C   LIG    1       21.247 -30.539  13.043  0.00  0.00    +0.223 A 
ATOM     43  C   LIG    1       20.105 -30.756  13.814  0.00  0.00    +0.049 A 
ATOM     44  C   LIG    1       19.301 -29.628  14.135  0.00  0.00    +0.030 A 
ATOM     45  C   LIG    1       18.118 -29.865  14.876  0.00  0.00    +0.014 A 
ATOM     46  C   LIG    1       17.753 -31.160  15.276  0.00  0.00    +0.021 A 
ATOM     47  C   LIG    1       18.574 -32.241  14.977  0.00  0.00    +0.042 A 
ATOM     48 CL   LIG    1       18.152 -33.824  15.499  0.00  0.00    -0.084 Cl
ATOM     49  C   LIG    1       19.734 -28.343  13.708  0.00  0.00    +0.146 A 
ATOM     50  C   LIG    1       20.909 -28.268  12.976  0.00  0.00    +0.160 A 
ATOM     51  C   LIG    1       19.745 -32.045  14.258  0.00  0.00    +0.034 A 
ATOM     52  N   LIG    1       21.658 -29.323  12.648  0.00  0.00    -0.217 NA
BRANCH  49  53
ATOM     53  O   LIG    1       19.000 -27.222  14.012  0.00  0.00    -0.493 OA
ATOM     54  C   LIG    1       19.450 -26.534  15.191  0.00  0.00    +0.277 C 
ENDBRANCH  49  53
ENDBRANCH  41  42
ENDBRANCH   6  41
TORSDOF 15
ENDMDL
