MODEL 1
REMARK VINA RESULT:      -4.5      0.000      0.000
REMARK  Name = *****
REMARK                            x       y       z     vdW  Elec       q    Type
REMARK                         _______ _______ _______ _____ _____    ______ ____
ROOT
ATOM      1  N   LIG    1       23.823 -18.475   3.690  0.00  0.00    -0.075 NA
ATOM      2  C   LIG    1       23.075 -17.596   4.254  0.00  0.00    +0.313 C 
ENDROOT
BRANCH   1   3
ATOM      3  S   LIG    1       23.796 -20.024   4.094  0.00  0.00    +0.103 S 
ATOM      4  O   LIG    1       22.671 -20.250   4.985  0.00  0.00    -0.146 OA
ATOM      5  O   LIG    1       23.932 -20.842   2.903  0.00  0.00    -0.146 OA
BRANCH   3  10
ATOM      6  C   LIG    1       29.006 -20.942   7.062  0.00  0.00    +0.044 C 
ATOM      7  C   LIG    1       27.693 -20.647   6.396  0.00  0.00    -0.050 A 
ATOM      8  C   LIG    1       27.633 -19.728   5.338  0.00  0.00    +0.005 A 
ATOM      9  C   LIG    1       26.434 -19.513   4.657  0.00  0.00    +0.029 A 
ATOM     10  C   LIG    1       25.294 -20.233   5.028  0.00  0.00    +0.113 A 
ATOM     11  C   LIG    1       25.333 -21.133   6.093  0.00  0.00    +0.029 A 
ATOM     12  C   LIG    1       26.535 -21.340   6.772  0.00  0.00    +0.005 A 
ENDBRANCH   3  10
ENDBRANCH   1   3
BRANCH   2  13
ATOM     13  N   LIG    1       23.028 -16.258   3.950  0.00  0.00    -0.231 N 
ATOM     14  H   LIG    1       22.145 -15.822   4.204  0.00  0.00    +0.171 HD
BRANCH  13  15
ATOM     15  N   LIG    1       24.224 -15.502   4.137  0.00  0.00    -0.226 NA
ATOM     16  C   LIG    1       25.269 -16.115   3.312  0.00  0.00    +0.105 C 
ATOM     17  C   LIG    1       26.645 -15.444   3.378  0.00  0.00    +0.017 C 
ATOM     18  C   LIG    1       26.699 -14.125   2.615  0.00  0.00    +0.001 C 
ATOM     19  C   LIG    1       26.199 -12.917   3.395  0.00  0.00    +0.001 C 
ATOM     20  C   LIG    1       25.040 -13.153   4.358  0.00  0.00    +0.017 C 
ATOM     21  C   LIG    1       23.944 -14.088   3.844  0.00  0.00    +0.105 C 
ENDBRANCH  13  15
ENDBRANCH   2  13
BRANCH   2  22
ATOM     22  O   LIG    1       22.218 -17.846   5.268  0.00  0.00    -0.480 OA
ATOM     23  H   LIG    1       22.207 -17.127   5.929  0.00  0.00    +0.295 HD
ENDBRANCH   2  22
TORSDOF 5
ENDMDL
MODEL 2
REMARK VINA RESULT:      -3.4      3.084      4.155
REMARK  Name = *****
REMARK                            x       y       z     vdW  Elec       q    Type
REMARK                         _______ _______ _______ _____ _____    ______ ____
ROOT
ATOM      1  N   LIG    1       27.403 -18.557   4.771  0.00  0.00    -0.075 NA
ATOM      2  C   LIG    1       28.363 -17.703   4.815  0.00  0.00    +0.313 C 
ENDROOT
BRANCH   1   3
ATOM      3  S   LIG    1       27.384 -19.885   5.665  0.00  0.00    +0.103 S 
ATOM      4  O   LIG    1       28.266 -20.866   5.056  0.00  0.00    -0.146 OA
ATOM      5  O   LIG    1       27.568 -19.536   7.062  0.00  0.00    -0.146 OA
BRANCH   3  10
ATOM      6  C   LIG    1       21.583 -21.572   5.108  0.00  0.00    +0.044 C 
ATOM      7  C   LIG    1       23.044 -21.250   5.241  0.00  0.00    -0.050 A 
ATOM      8  C   LIG    1       23.792 -20.901   4.107  0.00  0.00    +0.005 A 
ATOM      9  C   LIG    1       25.128 -20.517   4.233  0.00  0.00    +0.029 A 
ATOM     10  C   LIG    1       25.712 -20.467   5.503  0.00  0.00    +0.113 A 
ATOM     11  C   LIG    1       24.987 -20.834   6.637  0.00  0.00    +0.029 A 
ATOM     12  C   LIG    1       23.653 -21.220   6.503  0.00  0.00    +0.005 A 
ENDBRANCH   3  10
ENDBRANCH   1   3
BRANCH   2  13
ATOM     13  N   LIG    1       28.440 -16.537   4.095  0.00  0.00    -0.231 N 
ATOM     14  H   LIG    1       28.812 -16.670   3.158  0.00  0.00    +0.171 HD
BRANCH  13  15
ATOM     15  N   LIG    1       27.386 -15.590   4.266  0.00  0.00    -0.226 NA
ATOM     16  C   LIG    1       27.959 -14.252   4.085  0.00  0.00    +0.105 C 
ATOM     17  C   LIG    1       26.979 -13.084   4.235  0.00  0.00    +0.017 C 
ATOM     18  C   LIG    1       26.045 -12.938   3.039  0.00  0.00    +0.001 C 
ATOM     19  C   LIG    1       24.812 -13.830   3.081  0.00  0.00    +0.001 C 
ATOM     20  C   LIG    1       24.984 -15.212   3.703  0.00  0.00    +0.017 C 
ATOM     21  C   LIG    1       26.288 -15.929   3.349  0.00  0.00    +0.105 C 
ENDBRANCH  13  15
ENDBRANCH   2  13
BRANCH   2  22
ATOM     22  O   LIG    1       29.475 -17.829   5.569  0.00  0.00    -0.480 OA
ATOM     23  H   LIG    1       29.983 -16.996   5.623  0.00  0.00    +0.295 HD
ENDBRANCH   2  22
TORSDOF 5
ENDMDL
MODEL 3
REMARK VINA RESULT:      -3.3      1.066      1.871
REMARK  Name = *****
REMARK                            x       y       z     vdW  Elec       q    Type
REMARK                         _______ _______ _______ _____ _____    ______ ____
ROOT
ATOM      1  N   LIG    1       23.750 -17.481   3.956  0.00  0.00    -0.075 NA
ATOM      2  C   LIG    1       23.045 -16.539   4.473  0.00  0.00    +0.313 C 
ENDROOT
BRANCH   1   3
ATOM      3  S   LIG    1       23.344 -19.026   4.067  0.00  0.00    +0.103 S 
ATOM      4  O   LIG    1       22.193 -19.140   4.946  0.00  0.00    -0.146 OA
ATOM      5  O   LIG    1       23.284 -19.612   2.740  0.00  0.00    -0.146 OA
BRANCH   3  10
ATOM      6  C   LIG    1       28.104 -21.301   7.062  0.00  0.00    +0.044 C 
ATOM      7  C   LIG    1       26.929 -20.817   6.262  0.00  0.00    -0.050 A 
ATOM      8  C   LIG    1       25.624 -21.085   6.698  0.00  0.00    +0.005 A 
ATOM      9  C   LIG    1       24.527 -20.566   6.007  0.00  0.00    +0.029 A 
ATOM     10  C   LIG    1       24.741 -19.762   4.883  0.00  0.00    +0.113 A 
ATOM     11  C   LIG    1       26.034 -19.506   4.424  0.00  0.00    +0.029 A 
ATOM     12  C   LIG    1       27.125 -20.032   5.118  0.00  0.00    +0.005 A 
ENDBRANCH   3  10
ENDBRANCH   1   3
BRANCH   2  13
ATOM     13  N   LIG    1       23.317 -15.195   4.404  0.00  0.00    -0.231 N 
ATOM     14  H   LIG    1       23.252 -14.728   5.305  0.00  0.00    +0.171 HD
BRANCH  13  15
ATOM     15  N   LIG    1       24.352 -14.781   3.512  0.00  0.00    -0.226 NA
ATOM     16  C   LIG    1       23.962 -13.482   2.955  0.00  0.00    +0.105 C 
ATOM     17  C   LIG    1       24.951 -12.863   1.961  0.00  0.00    +0.017 C 
ATOM     18  C   LIG    1       26.193 -12.294   2.636  0.00  0.00    +0.001 C 
ATOM     19  C   LIG    1       27.289 -13.314   2.916  0.00  0.00    +0.001 C 
ATOM     20  C   LIG    1       26.838 -14.722   3.291  0.00  0.00    +0.017 C 
ATOM     21  C   LIG    1       25.635 -14.793   4.232  0.00  0.00    +0.105 C 
ENDBRANCH  13  15
ENDBRANCH   2  13
BRANCH   2  22
ATOM     22  O   LIG    1       21.921 -16.722   5.197  0.00  0.00    -0.480 OA
ATOM     23  H   LIG    1       21.351 -17.424   4.826  0.00  0.00    +0.295 HD
ENDBRANCH   2  22
TORSDOF 5
ENDMDL
MODEL 4
REMARK VINA RESULT:      -3.0      2.891      4.361
REMARK  Name = *****
REMARK                            x       y       z     vdW  Elec       q    Type
REMARK                         _______ _______ _______ _____ _____    ______ ____
ROOT
ATOM      1  N   LIG    1       25.843 -17.500   3.317  0.00  0.00    -0.075 NA
ATOM      2  C   LIG    1       26.871 -16.785   3.606  0.00  0.00    +0.313 C 
ENDROOT
BRANCH   1   3
ATOM      3  S   LIG    1       25.780 -19.076   3.591  0.00  0.00    +0.103 S 
ATOM      4  O   LIG    1       26.146 -19.774   2.371  0.00  0.00    -0.146 OA
ATOM      5  O   LIG    1       26.482 -19.386   4.824  0.00  0.00    -0.146 OA
BRANCH   3  10
ATOM      6  C   LIG    1       19.865 -20.185   4.355  0.00  0.00    +0.044 C 
ATOM      7  C   LIG    1       21.333 -19.886   4.261  0.00  0.00    -0.050 A 
ATOM      8  C   LIG    1       22.270 -20.921   4.393  0.00  0.00    +0.005 A 
ATOM      9  C   LIG    1       23.632 -20.666   4.222  0.00  0.00    +0.029 A 
ATOM     10  C   LIG    1       24.054 -19.371   3.902  0.00  0.00    +0.113 A 
ATOM     11  C   LIG    1       23.136 -18.328   3.792  0.00  0.00    +0.029 A 
ATOM     12  C   LIG    1       21.776 -18.589   3.968  0.00  0.00    +0.005 A 
ENDBRANCH   3  10
ENDBRANCH   1   3
BRANCH   2  13
ATOM     13  N   LIG    1       26.992 -15.430   3.418  0.00  0.00    -0.231 N 
ATOM     14  H   LIG    1       27.821 -15.174   2.889  0.00  0.00    +0.171 HD
BRANCH  13  15
ATOM     15  N   LIG    1       25.794 -14.692   3.179  0.00  0.00    -0.226 NA
ATOM     16  C   LIG    1       25.142 -14.474   4.474  0.00  0.00    +0.105 C 
ATOM     17  C   LIG    1       23.823 -13.695   4.431  0.00  0.00    +0.017 C 
ATOM     18  C   LIG    1       24.023 -12.204   4.187  0.00  0.00    +0.001 C 
ATOM     19  C   LIG    1       24.171 -11.813   2.723  0.00  0.00    +0.001 C 
ATOM     20  C   LIG    1       24.898 -12.802   1.817  0.00  0.00    +0.017 C 
ATOM     21  C   LIG    1       26.128 -13.469   2.434  0.00  0.00    +0.105 C 
ENDBRANCH  13  15
ENDBRANCH   2  13
BRANCH   2  22
ATOM     22  O   LIG    1       28.021 -17.260   4.127  0.00  0.00    -0.480 OA
ATOM     23  H   LIG    1       28.681 -17.473   3.439  0.00  0.00    +0.295 HD
ENDBRANCH   2  22
TORSDOF 5
ENDMDL
MODEL 5
REMARK VINA RESULT:      -3.0      2.525      4.384
REMARK  Name = *****
REMARK                            x       y       z     vdW  Elec       q    Type
REMARK                         _______ _______ _______ _____ _____    ______ ____
ROOT
ATOM      1  N   LIG    1       25.734 -19.033   4.948  0.00  0.00    -0.075 NA
ATOM      2  C   LIG    1       26.031 -18.695   3.744  0.00  0.00    +0.313 C 
ENDROOT
BRANCH   1   3
ATOM      3  S   LIG    1       24.847 -20.320   5.293  0.00  0.00    +0.103 S 
ATOM      4  O   LIG    1       25.291 -21.424   4.459  0.00  0.00    -0.146 OA
ATOM      5  O   LIG    1       24.784 -20.499   6.732  0.00  0.00    -0.146 OA
BRANCH   3  10
ATOM      6  C   LIG    1       19.353 -18.813   3.209  0.00  0.00    +0.044 C 
ATOM      7  C   LIG    1       20.683 -19.159   3.814  0.00  0.00    -0.050 A 
ATOM      8  C   LIG    1       20.956 -20.480   4.199  0.00  0.00    +0.005 A 
ATOM      9  C   LIG    1       22.219 -20.827   4.683  0.00  0.00    +0.029 A 
ATOM     10  C   LIG    1       23.215 -19.849   4.767  0.00  0.00    +0.113 A 
ATOM     11  C   LIG    1       22.950 -18.527   4.411  0.00  0.00    +0.029 A 
ATOM     12  C   LIG    1       21.685 -18.186   3.931  0.00  0.00    +0.005 A 
ENDBRANCH   3  10
ENDBRANCH   1   3
BRANCH   2  13
ATOM     13  N   LIG    1       26.799 -17.620   3.372  0.00  0.00    -0.231 N 
ATOM     14  H   LIG    1       27.096 -17.659   2.400  0.00  0.00    +0.171 HD
BRANCH  13  15
ATOM     15  N   LIG    1       26.449 -16.346   3.911  0.00  0.00    -0.226 NA
ATOM     16  C   LIG    1       27.615 -15.469   3.767  0.00  0.00    +0.105 C 
ATOM     17  C   LIG    1       27.440 -14.041   4.296  0.00  0.00    +0.017 C 
ATOM     18  C   LIG    1       26.573 -13.175   3.390  0.00  0.00    +0.001 C 
ATOM     19  C   LIG    1       25.073 -13.321   3.616  0.00  0.00    +0.001 C 
ATOM     20  C   LIG    1       24.568 -14.708   3.998  0.00  0.00    +0.017 C 
ATOM     21  C   LIG    1       25.223 -15.870   3.252  0.00  0.00    +0.105 C 
ENDBRANCH  13  15
ENDBRANCH   2  13
BRANCH   2  22
ATOM     22  O   LIG    1       25.610 -19.339   2.635  0.00  0.00    -0.480 OA
ATOM     23  H   LIG    1       24.895 -19.977   2.825  0.00  0.00    +0.295 HD
ENDBRANCH   2  22
TORSDOF 5
ENDMDL
MODEL 6
REMARK VINA RESULT:      -2.9      1.992      5.966
REMARK  Name = *****
REMARK                            x       y       z     vdW  Elec       q    Type
REMARK                         _______ _______ _______ _____ _____    ______ ____
ROOT
ATOM      1  N   LIG    1       23.621 -16.728   3.676  0.00  0.00    -0.075 NA
ATOM      2  C   LIG    1       22.812 -17.674   3.997  0.00  0.00    +0.313 C 
ENDROOT
BRANCH   1   3
ATOM      3  S   LIG    1       23.501 -15.247   4.272  0.00  0.00    +0.103 S 
ATOM      4  O   LIG    1       22.699 -14.446   3.363  0.00  0.00    -0.146 OA
ATOM      5  O   LIG    1       23.132 -15.312   5.674  0.00  0.00    -0.146 OA
BRANCH   3  10
ATOM      6  C   LIG    1       29.101 -12.943   3.902  0.00  0.00    +0.044 C 
ATOM      7  C   LIG    1       27.751 -13.583   4.052  0.00  0.00    -0.050 A 
ATOM      8  C   LIG    1       26.852 -13.108   5.018  0.00  0.00    +0.005 A 
ATOM      9  C   LIG    1       25.565 -13.640   5.107  0.00  0.00    +0.029 A 
ATOM     10  C   LIG    1       25.172 -14.642   4.214  0.00  0.00    +0.113 A 
ATOM     11  C   LIG    1       26.064 -15.142   3.265  0.00  0.00    +0.029 A 
ATOM     12  C   LIG    1       27.350 -14.607   3.184  0.00  0.00    +0.005 A 
ENDBRANCH   3  10
ENDBRANCH   1   3
BRANCH   2  13
ATOM     13  N   LIG    1       22.863 -18.969   3.545  0.00  0.00    -0.231 N 
ATOM     14  H   LIG    1       22.830 -19.038   2.531  0.00  0.00    +0.171 HD
BRANCH  13  15
ATOM     15  N   LIG    1       23.711 -19.876   4.248  0.00  0.00    -0.226 NA
ATOM     16  C   LIG    1       25.088 -19.394   4.108  0.00  0.00    +0.105 C 
ATOM     17  C   LIG    1       26.162 -20.243   4.797  0.00  0.00    +0.017 C 
ATOM     18  C   LIG    1       26.169 -20.075   6.311  0.00  0.00    +0.001 C 
ATOM     19  C   LIG    1       25.165 -20.946   7.054  0.00  0.00    +0.001 C 
ATOM     20  C   LIG    1       23.833 -21.205   6.357  0.00  0.00    +0.017 C 
ATOM     21  C   LIG    1       23.231 -20.001   5.633  0.00  0.00    +0.105 C 
ENDBRANCH  13  15
ENDBRANCH   2  13
BRANCH   2  22
ATOM     22  O   LIG    1       21.754 -17.538   4.824  0.00  0.00    -0.480 OA
ATOM     23  H   LIG    1       21.316 -18.392   5.009  0.00  0.00    +0.295 HD
ENDBRANCH   2  22
TORSDOF 5
ENDMDL
