MODEL 1
REMARK VINA RESULT:      -8.2      0.000      0.000
REMARK  Name = *****
REMARK                            x       y       z     vdW  Elec       q    Type
REMARK                         _______ _______ _______ _____ _____    ______ ____
ROOT
ATOM      1  C   LIG    1       27.551 -20.664   7.852  0.00  0.00    +0.161 A 
ATOM      2  C   LIG    1       27.192 -20.652   6.496  0.00  0.00    +0.170 A 
ATOM      3  C   LIG    1       27.967 -19.918   5.590  0.00  0.00    +0.051 A 
ATOM      4  C   LIG    1       29.056 -19.168   6.039  0.00  0.00    +0.024 A 
ATOM      5  C   LIG    1       29.376 -19.157   7.394  0.00  0.00    +0.045 A 
ATOM      6 CL   LIG    1       30.709 -18.222   7.949  0.00  0.00    -0.083 Cl
ATOM      7  C   LIG    1       28.632 -19.905   8.306  0.00  0.00    +0.069 A 
ENDROOT
BRANCH   1   8
ATOM      8  O   LIG    1       26.862 -21.429   8.754  0.00  0.00    -0.503 OA
ATOM      9  H   LIG    1       26.912 -21.027   9.635  0.00  0.00    +0.292 HD
ENDBRANCH   1   8
BRANCH   2  10
ATOM     10  O   LIG    1       26.156 -21.360   5.921  0.00  0.00    -0.451 OA
BRANCH  10  11
ATOM     11  C   LIG    1       25.075 -20.668   5.426  0.00  0.00    +0.147 A 
ATOM     12  C   LIG    1       23.871 -20.702   6.140  0.00  0.00    +0.085 A 
ATOM     13 CL   LIG    1       23.713 -21.619   7.595  0.00  0.00    -0.080 Cl
ATOM     14  C   LIG    1       22.767 -19.977   5.688  0.00  0.00    +0.043 A 
ATOM     15  C   LIG    1       22.869 -19.233   4.515  0.00  0.00    +0.043 A 
ATOM     16 CL   LIG    1       21.528 -18.297   3.980  0.00  0.00    -0.084 Cl
ATOM     17  C   LIG    1       24.047 -19.237   3.768  0.00  0.00    +0.023 A 
ATOM     18  C   LIG    1       25.147 -19.972   4.213  0.00  0.00    +0.049 A 
ENDBRANCH  10  11
ENDBRANCH   2  10
TORSDOF 3
ENDMDL
MODEL 2
REMARK VINA RESULT:      -8.1      2.388      3.828
REMARK  Name = *****
REMARK                            x       y       z     vdW  Elec       q    Type
REMARK                         _______ _______ _______ _____ _____    ______ ____
ROOT
ATOM      1  C   LIG    1       27.492 -20.066   5.687  0.00  0.00    +0.161 A 
ATOM      2  C   LIG    1       26.849 -20.398   6.888  0.00  0.00    +0.170 A 
ATOM      3  C   LIG    1       27.549 -20.280   8.094  0.00  0.00    +0.051 A 
ATOM      4  C   LIG    1       28.888 -19.882   8.097  0.00  0.00    +0.024 A 
ATOM      5  C   LIG    1       29.525 -19.594   6.893  0.00  0.00    +0.045 A 
ATOM      6 CL   LIG    1       31.179 -19.116   6.895  0.00  0.00    -0.083 Cl
ATOM      7  C   LIG    1       28.834 -19.679   5.685  0.00  0.00    +0.069 A 
ENDROOT
BRANCH   1   8
ATOM      8  O   LIG    1       26.817 -20.097   4.497  0.00  0.00    -0.503 OA
ATOM      9  H   LIG    1       26.334 -19.267   4.368  0.00  0.00    +0.292 HD
ENDBRANCH   1   8
BRANCH   2  10
ATOM     10  O   LIG    1       25.531 -20.786   7.027  0.00  0.00    -0.451 OA
BRANCH  10  11
ATOM     11  C   LIG    1       25.211 -22.115   6.870  0.00  0.00    +0.147 A 
ATOM     12  C   LIG    1       23.920 -22.450   6.445  0.00  0.00    +0.085 A 
ATOM     13 CL   LIG    1       22.725 -21.237   6.157  0.00  0.00    -0.080 Cl
ATOM     14  C   LIG    1       23.575 -23.786   6.236  0.00  0.00    +0.043 A 
ATOM     15  C   LIG    1       24.521 -24.782   6.467  0.00  0.00    +0.043 A 
ATOM     16 CL   LIG    1       24.118 -26.427   6.162  0.00  0.00    -0.084 Cl
ATOM     17  C   LIG    1       25.793 -24.463   6.941  0.00  0.00    +0.023 A 
ATOM     18  C   LIG    1       26.133 -23.127   7.163  0.00  0.00    +0.049 A 
ENDBRANCH  10  11
ENDBRANCH   2  10
TORSDOF 3
ENDMDL
MODEL 3
REMARK VINA RESULT:      -8.1      2.217      6.582
REMARK  Name = *****
REMARK                            x       y       z     vdW  Elec       q    Type
REMARK                         _______ _______ _______ _____ _____    ______ ____
ROOT
ATOM      1  C   LIG    1       27.029 -20.548   5.973  0.00  0.00    +0.161 A 
ATOM      2  C   LIG    1       27.761 -21.029   7.068  0.00  0.00    +0.170 A 
ATOM      3  C   LIG    1       27.075 -21.489   8.199  0.00  0.00    +0.051 A 
ATOM      4  C   LIG    1       25.681 -21.424   8.254  0.00  0.00    +0.024 A 
ATOM      5  C   LIG    1       24.971 -20.906   7.175  0.00  0.00    +0.045 A 
ATOM      6 CL   LIG    1       23.254 -20.813   7.247  0.00  0.00    -0.083 Cl
ATOM      7  C   LIG    1       25.636 -20.470   6.029  0.00  0.00    +0.069 A 
ENDROOT
BRANCH   1   8
ATOM      8  O   LIG    1       27.661 -20.160   4.822  0.00  0.00    -0.503 OA
ATOM      9  H   LIG    1       28.036 -19.274   4.934  0.00  0.00    +0.292 HD
ENDBRANCH   1   8
BRANCH   2  10
ATOM     10  O   LIG    1       29.133 -21.164   7.137  0.00  0.00    -0.451 OA
BRANCH  10  11
ATOM     11  C   LIG    1       29.867 -20.168   7.739  0.00  0.00    +0.147 A 
ATOM     12  C   LIG    1       30.850 -20.525   8.670  0.00  0.00    +0.085 A 
ATOM     13 CL   LIG    1       31.126 -22.176   9.097  0.00  0.00    -0.080 Cl
ATOM     14  C   LIG    1       31.640 -19.543   9.267  0.00  0.00    +0.043 A 
ATOM     15  C   LIG    1       31.433 -18.204   8.941  0.00  0.00    +0.043 A 
ATOM     16 CL   LIG    1       32.438 -16.993   9.636  0.00  0.00    -0.084 Cl
ATOM     17  C   LIG    1       30.421 -17.834   8.056  0.00  0.00    +0.023 A 
ATOM     18  C   LIG    1       29.622 -18.816   7.469  0.00  0.00    +0.049 A 
ENDBRANCH  10  11
ENDBRANCH   2  10
TORSDOF 3
ENDMDL
MODEL 4
REMARK VINA RESULT:      -7.9      3.520      5.935
REMARK  Name = *****
REMARK                            x       y       z     vdW  Elec       q    Type
REMARK                         _______ _______ _______ _____ _____    ______ ____
ROOT
ATOM      1  C   LIG    1       23.634 -24.311   6.581  0.00  0.00    +0.161 A 
ATOM      2  C   LIG    1       24.791 -23.623   6.975  0.00  0.00    +0.170 A 
ATOM      3  C   LIG    1       26.039 -24.238   6.818  0.00  0.00    +0.051 A 
ATOM      4  C   LIG    1       26.127 -25.540   6.320  0.00  0.00    +0.024 A 
ATOM      5  C   LIG    1       24.966 -26.225   5.971  0.00  0.00    +0.045 A 
ATOM      6 CL   LIG    1       25.073 -27.834   5.369  0.00  0.00    -0.083 Cl
ATOM      7  C   LIG    1       23.717 -25.617   6.094  0.00  0.00    +0.069 A 
ENDROOT
BRANCH   1   8
ATOM      8  O   LIG    1       22.405 -23.714   6.650  0.00  0.00    -0.503 OA
ATOM      9  H   LIG    1       22.279 -23.125   5.890  0.00  0.00    +0.292 HD
ENDBRANCH   1   8
BRANCH   2  10
ATOM     10  O   LIG    1       24.846 -22.333   7.463  0.00  0.00    -0.451 OA
BRANCH  10  11
ATOM     11  C   LIG    1       25.915 -21.539   7.117  0.00  0.00    +0.147 A 
ATOM     12  C   LIG    1       25.902 -20.899   5.871  0.00  0.00    +0.085 A 
ATOM     13 CL   LIG    1       24.598 -21.121   4.760  0.00  0.00    -0.080 Cl
ATOM     14  C   LIG    1       26.950 -20.054   5.506  0.00  0.00    +0.043 A 
ATOM     15  C   LIG    1       28.016 -19.864   6.384  0.00  0.00    +0.043 A 
ATOM     16 CL   LIG    1       29.286 -18.784   5.960  0.00  0.00    -0.084 Cl
ATOM     17  C   LIG    1       28.064 -20.538   7.604  0.00  0.00    +0.023 A 
ATOM     18  C   LIG    1       27.021 -21.394   7.963  0.00  0.00    +0.049 A 
ENDBRANCH  10  11
ENDBRANCH   2  10
TORSDOF 3
ENDMDL
MODEL 5
REMARK VINA RESULT:      -7.9      3.780      5.399
REMARK  Name = *****
REMARK                            x       y       z     vdW  Elec       q    Type
REMARK                         _______ _______ _______ _____ _____    ______ ____
ROOT
ATOM      1  C   LIG    1       23.666 -24.577   6.514  0.00  0.00    +0.161 A 
ATOM      2  C   LIG    1       24.802 -23.818   6.832  0.00  0.00    +0.170 A 
ATOM      3  C   LIG    1       26.072 -24.381   6.656  0.00  0.00    +0.051 A 
ATOM      4  C   LIG    1       26.204 -25.699   6.215  0.00  0.00    +0.024 A 
ATOM      5  C   LIG    1       25.067 -26.454   5.942  0.00  0.00    +0.045 A 
ATOM      6 CL   LIG    1       25.229 -28.083   5.411  0.00  0.00    -0.083 Cl
ATOM      7  C   LIG    1       23.795 -25.900   6.084  0.00  0.00    +0.069 A 
ENDROOT
BRANCH   1   8
ATOM      8  O   LIG    1       22.412 -24.036   6.603  0.00  0.00    -0.503 OA
ATOM      9  H   LIG    1       22.245 -23.462   5.840  0.00  0.00    +0.292 HD
ENDBRANCH   1   8
BRANCH   2  10
ATOM     10  O   LIG    1       24.812 -22.505   7.258  0.00  0.00    -0.451 OA
BRANCH  10  11
ATOM     11  C   LIG    1       24.949 -21.506   6.323  0.00  0.00    +0.147 A 
ATOM     12  C   LIG    1       26.195 -20.881   6.183  0.00  0.00    +0.085 A 
ATOM     13 CL   LIG    1       27.535 -21.315   7.183  0.00  0.00    -0.080 Cl
ATOM     14  C   LIG    1       26.379 -19.893   5.216  0.00  0.00    +0.043 A 
ATOM     15  C   LIG    1       25.311 -19.524   4.401  0.00  0.00    +0.043 A 
ATOM     16 CL   LIG    1       25.547 -18.342   3.172  0.00  0.00    -0.084 Cl
ATOM     17  C   LIG    1       24.053 -20.101   4.568  0.00  0.00    +0.023 A 
ATOM     18  C   LIG    1       23.865 -21.080   5.545  0.00  0.00    +0.049 A 
ENDBRANCH  10  11
ENDBRANCH   2  10
TORSDOF 3
ENDMDL
MODEL 6
REMARK VINA RESULT:      -7.8      2.575      3.708
REMARK  Name = *****
REMARK                            x       y       z     vdW  Elec       q    Type
REMARK                         _______ _______ _______ _____ _____    ______ ____
ROOT
ATOM      1  C   LIG    1       27.032 -20.381   8.033  0.00  0.00    +0.161 A 
ATOM      2  C   LIG    1       26.367 -20.565   6.812  0.00  0.00    +0.170 A 
ATOM      3  C   LIG    1       27.033 -20.260   5.619  0.00  0.00    +0.051 A 
ATOM      4  C   LIG    1       28.327 -19.733   5.647  0.00  0.00    +0.024 A 
ATOM      5  C   LIG    1       28.958 -19.519   6.869  0.00  0.00    +0.045 A 
ATOM      6 CL   LIG    1       30.547 -18.858   6.905  0.00  0.00    -0.083 Cl
ATOM      7  C   LIG    1       28.320 -19.844   8.066  0.00  0.00    +0.069 A 
ENDROOT
BRANCH   1   8
ATOM      8  O   LIG    1       26.440 -20.738   9.215  0.00  0.00    -0.503 OA
ATOM      9  H   LIG    1       25.793 -21.443   9.062  0.00  0.00    +0.292 HD
ENDBRANCH   1   8
BRANCH   2  10
ATOM     10  O   LIG    1       25.102 -21.091   6.643  0.00  0.00    -0.451 OA
BRANCH  10  11
ATOM     11  C   LIG    1       24.952 -22.458   6.606  0.00  0.00    +0.147 A 
ATOM     12  C   LIG    1       23.681 -22.989   6.355  0.00  0.00    +0.085 A 
ATOM     13 CL   LIG    1       22.308 -21.966   6.130  0.00  0.00    -0.080 Cl
ATOM     14  C   LIG    1       23.502 -24.370   6.270  0.00  0.00    +0.043 A 
ATOM     15  C   LIG    1       24.595 -25.215   6.453  0.00  0.00    +0.043 A 
ATOM     16 CL   LIG    1       24.391 -26.917   6.299  0.00  0.00    -0.084 Cl
ATOM     17  C   LIG    1       25.854 -24.698   6.757  0.00  0.00    +0.023 A 
ATOM     18  C   LIG    1       26.030 -23.317   6.855  0.00  0.00    +0.049 A 
ENDBRANCH  10  11
ENDBRANCH   2  10
TORSDOF 3
ENDMDL
MODEL 7
REMARK VINA RESULT:      -7.7      1.021      5.590
REMARK  Name = *****
REMARK                            x       y       z     vdW  Elec       q    Type
REMARK                         _______ _______ _______ _____ _____    ______ ____
ROOT
ATOM      1  C   LIG    1       23.661 -20.566   6.223  0.00  0.00    +0.161 A 
ATOM      2  C   LIG    1       24.869 -20.657   5.516  0.00  0.00    +0.170 A 
ATOM      3  C   LIG    1       25.008 -19.966   4.307  0.00  0.00    +0.051 A 
ATOM      4  C   LIG    1       23.940 -19.232   3.786  0.00  0.00    +0.024 A 
ATOM      5  C   LIG    1       22.733 -19.183   4.479  0.00  0.00    +0.045 A 
ATOM      6 CL   LIG    1       21.412 -18.291   3.832  0.00  0.00    -0.083 Cl
ATOM      7  C   LIG    1       22.587 -19.843   5.699  0.00  0.00    +0.069 A 
ENDROOT
BRANCH   1   8
ATOM      8  O   LIG    1       23.514 -21.167   7.443  0.00  0.00    -0.503 OA
ATOM      9  H   LIG    1       24.317 -21.044   7.971  0.00  0.00    +0.292 HD
ENDBRANCH   1   8
BRANCH   2  10
ATOM     10  O   LIG    1       26.004 -21.330   5.924  0.00  0.00    -0.451 OA
BRANCH  10  11
ATOM     11  C   LIG    1       27.073 -20.602   6.391  0.00  0.00    +0.147 A 
ATOM     12  C   LIG    1       27.253 -20.481   7.775  0.00  0.00    +0.085 A 
ATOM     13 CL   LIG    1       26.143 -21.193   8.891  0.00  0.00    -0.080 Cl
ATOM     14  C   LIG    1       28.350 -19.785   8.282  0.00  0.00    +0.043 A 
ATOM     15  C   LIG    1       29.257 -19.198   7.401  0.00  0.00    +0.043 A 
ATOM     16 CL   LIG    1       30.639 -18.382   8.019  0.00  0.00    -0.084 Cl
ATOM     17  C   LIG    1       29.057 -19.266   6.022  0.00  0.00    +0.023 A 
ATOM     18  C   LIG    1       27.952 -19.952   5.516  0.00  0.00    +0.049 A 
ENDBRANCH  10  11
ENDBRANCH   2  10
TORSDOF 3
ENDMDL
MODEL 8
REMARK VINA RESULT:      -7.6      2.425      3.708
REMARK  Name = *****
REMARK                            x       y       z     vdW  Elec       q    Type
REMARK                         _______ _______ _______ _____ _____    ______ ____
ROOT
ATOM      1  C   LIG    1       30.747 -20.675   8.419  0.00  0.00    +0.161 A 
ATOM      2  C   LIG    1       29.764 -20.177   7.550  0.00  0.00    +0.170 A 
ATOM      3  C   LIG    1       29.553 -18.794   7.478  0.00  0.00    +0.051 A 
ATOM      4  C   LIG    1       30.279 -17.926   8.296  0.00  0.00    +0.024 A 
ATOM      5  C   LIG    1       31.223 -18.439   9.182  0.00  0.00    +0.045 A 
ATOM      6 CL   LIG    1       32.108 -17.370  10.200  0.00  0.00    -0.083 Cl
ATOM      7  C   LIG    1       31.466 -19.811   9.247  0.00  0.00    +0.069 A 
ENDROOT
BRANCH   1   8
ATOM      8  O   LIG    1       31.032 -22.013   8.462  0.00  0.00    -0.503 OA
ATOM      9  H   LIG    1       30.223 -22.529   8.326  0.00  0.00    +0.292 HD
ENDBRANCH   1   8
BRANCH   2  10
ATOM     10  O   LIG    1       28.993 -20.920   6.679  0.00  0.00    -0.451 OA
BRANCH  10  11
ATOM     11  C   LIG    1       27.656 -21.087   6.955  0.00  0.00    +0.147 A 
ATOM     12  C   LIG    1       26.715 -20.463   6.126  0.00  0.00    +0.085 A 
ATOM     13 CL   LIG    1       27.203 -19.468   4.801  0.00  0.00    -0.080 Cl
ATOM     14  C   LIG    1       25.351 -20.645   6.353  0.00  0.00    +0.043 A 
ATOM     15  C   LIG    1       24.933 -21.440   7.419  0.00  0.00    +0.043 A 
ATOM     16 CL   LIG    1       23.253 -21.709   7.674  0.00  0.00    -0.084 Cl
ATOM     17  C   LIG    1       25.861 -22.021   8.283  0.00  0.00    +0.023 A 
ATOM     18  C   LIG    1       27.226 -21.828   8.063  0.00  0.00    +0.049 A 
ENDBRANCH  10  11
ENDBRANCH   2  10
TORSDOF 3
ENDMDL
MODEL 9
REMARK VINA RESULT:      -7.5      2.284      6.520
REMARK  Name = *****
REMARK                            x       y       z     vdW  Elec       q    Type
REMARK                         _______ _______ _______ _____ _____    ______ ____
ROOT
ATOM      1  C   LIG    1       26.601 -20.561   5.772  0.00  0.00    +0.161 A 
ATOM      2  C   LIG    1       27.597 -20.986   6.665  0.00  0.00    +0.170 A 
ATOM      3  C   LIG    1       27.221 -21.546   7.892  0.00  0.00    +0.051 A 
ATOM      4  C   LIG    1       25.872 -21.636   8.243  0.00  0.00    +0.024 A 
ATOM      5  C   LIG    1       24.897 -21.174   7.364  0.00  0.00    +0.045 A 
ATOM      6 CL   LIG    1       23.236 -21.272   7.802  0.00  0.00    -0.083 Cl
ATOM      7  C   LIG    1       25.252 -20.639   6.125  0.00  0.00    +0.069 A 
ENDROOT
BRANCH   1   8
ATOM      8  O   LIG    1       26.928 -20.078   4.535  0.00  0.00    -0.503 OA
ATOM      9  H   LIG    1       27.518 -19.314   4.622  0.00  0.00    +0.292 HD
ENDBRANCH   1   8
BRANCH   2  10
ATOM     10  O   LIG    1       28.958 -20.970   6.435  0.00  0.00    -0.451 OA
BRANCH  10  11
ATOM     11  C   LIG    1       29.760 -20.217   7.261  0.00  0.00    +0.147 A 
ATOM     12  C   LIG    1       29.946 -18.861   6.965  0.00  0.00    +0.085 A 
ATOM     13 CL   LIG    1       29.223 -18.138   5.573  0.00  0.00    -0.080 Cl
ATOM     14  C   LIG    1       30.719 -18.059   7.805  0.00  0.00    +0.043 A 
ATOM     15  C   LIG    1       31.316 -18.622   8.931  0.00  0.00    +0.043 A 
ATOM     16 CL   LIG    1       32.229 -17.627   9.998  0.00  0.00    -0.084 Cl
ATOM     17  C   LIG    1       31.182 -19.983   9.205  0.00  0.00    +0.023 A 
ATOM     18  C   LIG    1       30.419 -20.787   8.358  0.00  0.00    +0.049 A 
ENDBRANCH  10  11
ENDBRANCH   2  10
TORSDOF 3
ENDMDL
