MODEL 1
REMARK VINA RESULT:      -7.4      0.000      0.000
REMARK  Name = *****
REMARK                            x       y       z     vdW  Elec       q    Type
REMARK                         _______ _______ _______ _____ _____    ______ ____
ROOT
ATOM      1  O   LIG    1       25.798 -24.194   6.923  0.00  0.00    -0.340 OA
ENDROOT
BRANCH   1   7
ATOM      2  C   LIG    1       26.984 -27.579   4.240  0.00  0.00    +0.039 C 
ATOM      3  C   LIG    1       26.804 -27.190   5.707  0.00  0.00    +0.138 C 
ATOM      4  C   LIG    1       25.706 -28.086   6.337  0.00  0.00    +0.114 C 
ATOM      5  C   LIG    1       24.545 -27.127   6.611  0.00  0.00    +0.167 C 
ATOM      6  C   LIG    1       24.556 -25.951   5.590  0.00  0.00    +0.200 C 
ATOM      7  C   LIG    1       25.786 -25.004   5.744  0.00  0.00    +0.282 C 
ATOM      8  O   LIG    1       26.927 -25.787   5.812  0.00  0.00    -0.344 OA
BRANCH   6   9
ATOM      9  O   LIG    1       23.329 -25.241   5.582  0.00  0.00    -0.384 OA
ATOM     10  H   LIG    1       23.041 -25.206   4.660  0.00  0.00    +0.210 HD
ENDBRANCH   6   9
BRANCH   5  11
ATOM     11  O   LIG    1       23.371 -27.950   6.471  0.00  0.00    -0.387 OA
ATOM     12  H   LIG    1       22.879 -27.960   7.304  0.00  0.00    +0.210 HD
ENDBRANCH   5  11
BRANCH   4  13
ATOM     13  N   LIG    1       25.855 -28.964   7.553  0.00  0.00    -0.300 NA
ATOM     14  H   LIG    1       25.559 -28.343   8.320  0.00  0.00    +0.123 HD
BRANCH  13  15
ATOM     15  C   LIG    1       25.117 -30.224   7.839  0.00  0.00    +0.109 C 
ATOM     16  C   LIG    1       25.683 -31.218   8.857  0.00  0.00    +0.166 C 
ATOM     17  C   LIG    1       26.858 -31.892   8.225  0.00  0.00    +0.177 C 
ATOM     18  C   LIG    1       26.497 -32.708   6.965  0.00  0.00    +0.173 C 
ATOM     19  C   LIG    1       25.363 -32.118   6.202  0.00  0.00    -0.016 C 
ATOM     20  C   LIG    1       24.743 -30.986   6.590  0.00  0.00    -0.002 C 
BRANCH  18  21
ATOM     21  O   LIG    1       27.520 -32.872   5.976  0.00  0.00    -0.385 OA
ATOM     22  H   LIG    1       27.188 -32.637   5.085  0.00  0.00    +0.210 HD
ENDBRANCH  18  21
BRANCH  17  23
ATOM     23  O   LIG    1       27.497 -32.523   9.318  0.00  0.00    -0.386 OA
ATOM     24  H   LIG    1       26.782 -32.525  10.011  0.00  0.00    +0.210 HD
ENDBRANCH  17  23
BRANCH  16  25
ATOM     25  O   LIG    1       26.050 -30.627  10.112  0.00  0.00    -0.387 OA
ATOM     26  H   LIG    1       27.016 -30.771  10.182  0.00  0.00    +0.210 HD
ENDBRANCH  16  25
BRANCH  19  27
ATOM     27  C   LIG    1       25.038 -32.870   4.953  0.00  0.00    +0.189 C 
BRANCH  27  28
ATOM     28  O   LIG    1       25.389 -32.057   3.847  0.00  0.00    -0.391 OA
ATOM     29  H   LIG    1       26.211 -31.591   4.095  0.00  0.00    +0.210 HD
ENDBRANCH  27  28
ENDBRANCH  19  27
ENDBRANCH  13  15
ENDBRANCH   4  13
ENDBRANCH   1   7
BRANCH   1  30
ATOM     30  C   LIG    1       25.166 -22.869   6.878  0.00  0.00    +0.183 C 
ATOM     31  C   LIG    1       25.609 -21.936   5.725  0.00  0.00    +0.178 C 
ATOM     32  O   LIG    1       26.754 -21.080   6.007  0.00  0.00    -0.341 OA
ATOM     33  C   LIG    1       27.049 -20.628   7.369  0.00  0.00    +0.282 C 
ATOM     34  C   LIG    1       25.752 -20.685   8.168  0.00  0.00    +0.201 C 
ATOM     35  C   LIG    1       25.050 -22.070   8.208  0.00  0.00    +0.179 C 
BRANCH  35  36
ATOM     36  O   LIG    1       23.638 -21.720   8.387  0.00  0.00    -0.386 OA
ATOM     37  H   LIG    1       23.212 -22.447   8.881  0.00  0.00    +0.210 HD
ENDBRANCH  35  36
BRANCH  34  38
ATOM     38  O   LIG    1       25.782 -19.960   9.389  0.00  0.00    -0.384 OA
ATOM     39  H   LIG    1       26.503 -20.356   9.920  0.00  0.00    +0.210 HD
ENDBRANCH  34  38
BRANCH  31  40
ATOM     40  C   LIG    1       24.390 -21.170   5.067  0.00  0.00    +0.190 C 
BRANCH  40  41
ATOM     41  O   LIG    1       23.097 -21.712   5.304  0.00  0.00    -0.392 OA
ATOM     42  H   LIG    1       22.616 -21.784   4.456  0.00  0.00    +0.209 HD
ENDBRANCH  40  41
ENDBRANCH  31  40
BRANCH  33  43
ATOM     43  O   LIG    1       28.248 -21.227   7.879  0.00  0.00    -0.340 OA
BRANCH  43  44
ATOM     44  C   LIG    1       29.460 -20.552   8.325  0.00  0.00    +0.183 C 
BRANCH  44  45
ATOM     45  C   LIG    1       29.473 -18.987   8.222  0.00  0.00    +0.181 C 
BRANCH  45  46
ATOM     46  O   LIG    1       29.806 -18.339   7.012  0.00  0.00    -0.386 OA
ATOM     47  H   LIG    1       29.185 -17.603   6.901  0.00  0.00    +0.210 HD
ENDBRANCH  45  46
BRANCH  45  48
ATOM     48  C   LIG    1       30.507 -18.274   9.159  0.00  0.00    +0.208 C 
BRANCH  48  49
ATOM     49  O   LIG    1       31.366 -17.499   8.361  0.00  0.00    -0.382 OA
ATOM     50  H   LIG    1       30.836 -16.843   7.872  0.00  0.00    +0.210 HD
ENDBRANCH  48  49
BRANCH  48  51
ATOM     51  C   LIG    1       30.394 -17.713  10.463  0.00  0.00    +0.257 C 
ATOM     52  O   LIG    1       30.111 -16.480  10.743  0.00  0.00    -0.298 OA
ENDBRANCH  48  51
ENDBRANCH  45  48
ENDBRANCH  44  45
BRANCH  44  53
ATOM     53  C   LIG    1       30.933 -21.030   8.190  0.00  0.00    +0.171 C 
BRANCH  53  54
ATOM     54  O   LIG    1       31.866 -20.259   7.420  0.00  0.00    -0.387 OA
ATOM     55  H   LIG    1       32.766 -20.335   7.749  0.00  0.00    +0.210 HD
ENDBRANCH  53  54
BRANCH  53  56
ATOM     56  C   LIG    1       31.528 -22.041   9.167  0.00  0.00    +0.190 C 
BRANCH  56  57
ATOM     57  O   LIG    1       30.793 -22.127  10.367  0.00  0.00    -0.392 OA
ATOM     58  H   LIG    1       30.902 -21.268  10.814  0.00  0.00    +0.209 HD
ENDBRANCH  56  57
ENDBRANCH  53  56
ENDBRANCH  44  53
ENDBRANCH  43  44
ENDBRANCH  33  43
ENDBRANCH   1  30
TORSDOF 26
ENDMDL
MODEL 2
REMARK VINA RESULT:      -7.3      1.161      2.389
REMARK  Name = *****
REMARK                            x       y       z     vdW  Elec       q    Type
REMARK                         _______ _______ _______ _____ _____    ______ ____
ROOT
ATOM      1  O   LIG    1       25.729 -24.228   6.927  0.00  0.00    -0.340 OA
ENDROOT
BRANCH   1   7
ATOM      2  C   LIG    1       27.039 -27.570   4.248  0.00  0.00    +0.039 C 
ATOM      3  C   LIG    1       26.834 -27.191   5.714  0.00  0.00    +0.138 C 
ATOM      4  C   LIG    1       25.757 -28.120   6.332  0.00  0.00    +0.114 C 
ATOM      5  C   LIG    1       24.566 -27.197   6.598  0.00  0.00    +0.167 C 
ATOM      6  C   LIG    1       24.551 -26.018   5.579  0.00  0.00    +0.200 C 
ATOM      7  C   LIG    1       25.751 -25.036   5.746  0.00  0.00    +0.282 C 
ATOM      8  O   LIG    1       26.915 -25.785   5.823  0.00  0.00    -0.344 OA
BRANCH   6   9
ATOM      9  O   LIG    1       23.304 -25.345   5.562  0.00  0.00    -0.384 OA
ATOM     10  H   LIG    1       22.631 -26.015   5.746  0.00  0.00    +0.210 HD
ENDBRANCH   6   9
BRANCH   5  11
ATOM     11  O   LIG    1       23.418 -28.053   6.445  0.00  0.00    -0.387 OA
ATOM     12  H   LIG    1       22.628 -27.515   6.301  0.00  0.00    +0.210 HD
ENDBRANCH   5  11
BRANCH   4  13
ATOM     13  N   LIG    1       25.921 -28.996   7.548  0.00  0.00    -0.300 NA
ATOM     14  H   LIG    1       25.037 -28.848   8.056  0.00  0.00    +0.123 HD
BRANCH  13  15
ATOM     15  C   LIG    1       26.075 -30.476   7.566  0.00  0.00    +0.109 C 
ATOM     16  C   LIG    1       25.320 -31.328   6.542  0.00  0.00    +0.166 C 
ATOM     17  C   LIG    1       23.878 -31.339   6.940  0.00  0.00    +0.177 C 
ATOM     18  C   LIG    1       23.624 -31.980   8.321  0.00  0.00    +0.173 C 
ATOM     19  C   LIG    1       24.750 -31.766   9.271  0.00  0.00    -0.016 C 
ATOM     20  C   LIG    1       25.858 -31.075   8.934  0.00  0.00    -0.002 C 
BRANCH  18  21
ATOM     21  O   LIG    1       22.477 -31.529   9.050  0.00  0.00    -0.385 OA
ATOM     22  H   LIG    1       21.779 -31.208   8.443  0.00  0.00    +0.210 HD
ENDBRANCH  18  21
BRANCH  17  23
ATOM     23  O   LIG    1       23.229 -31.851   5.792  0.00  0.00    -0.386 OA
ATOM     24  H   LIG    1       23.223 -31.065   5.181  0.00  0.00    +0.210 HD
ENDBRANCH  17  23
BRANCH  16  25
ATOM     25  O   LIG    1       25.470 -30.885   5.186  0.00  0.00    -0.387 OA
ATOM     26  H   LIG    1       26.426 -30.977   4.998  0.00  0.00    +0.210 HD
ENDBRANCH  16  25
BRANCH  19  27
ATOM     27  C   LIG    1       24.493 -32.337  10.627  0.00  0.00    +0.189 C 
BRANCH  27  28
ATOM     28  O   LIG    1       24.105 -31.277  11.483  0.00  0.00    -0.391 OA
ATOM     29  H   LIG    1       23.242 -30.958  11.155  0.00  0.00    +0.210 HD
ENDBRANCH  27  28
ENDBRANCH  19  27
ENDBRANCH  13  15
ENDBRANCH   4  13
ENDBRANCH   1   7
BRANCH   1  30
ATOM     30  C   LIG    1       25.087 -22.909   6.870  0.00  0.00    +0.183 C 
ATOM     31  C   LIG    1       25.495 -21.997   5.687  0.00  0.00    +0.178 C 
ATOM     32  O   LIG    1       26.640 -21.128   5.923  0.00  0.00    -0.341 OA
ATOM     33  C   LIG    1       26.965 -20.646   7.268  0.00  0.00    +0.282 C 
ATOM     34  C   LIG    1       25.689 -20.695   8.100  0.00  0.00    +0.201 C 
ATOM     35  C   LIG    1       24.998 -22.083   8.186  0.00  0.00    +0.179 C 
BRANCH  35  36
ATOM     36  O   LIG    1       23.588 -21.739   8.392  0.00  0.00    -0.386 OA
ATOM     37  H   LIG    1       23.514 -20.766   8.370  0.00  0.00    +0.210 HD
ENDBRANCH  35  36
BRANCH  34  38
ATOM     38  O   LIG    1       25.743 -19.944   9.305  0.00  0.00    -0.384 OA
ATOM     39  H   LIG    1       24.985 -20.248   9.845  0.00  0.00    +0.210 HD
ENDBRANCH  34  38
BRANCH  31  40
ATOM     40  C   LIG    1       24.256 -21.253   5.044  0.00  0.00    +0.190 C 
BRANCH  40  41
ATOM     41  O   LIG    1       22.971 -21.791   5.333  0.00  0.00    -0.392 OA
ATOM     42  H   LIG    1       22.795 -22.548   4.740  0.00  0.00    +0.209 HD
ENDBRANCH  40  41
ENDBRANCH  31  40
BRANCH  33  43
ATOM     43  O   LIG    1       28.180 -21.226   7.761  0.00  0.00    -0.340 OA
BRANCH  43  44
ATOM     44  C   LIG    1       29.380 -20.532   8.210  0.00  0.00    +0.183 C 
BRANCH  44  45
ATOM     45  C   LIG    1       29.387 -18.970   8.065  0.00  0.00    +0.181 C 
BRANCH  45  46
ATOM     46  O   LIG    1       29.954 -18.346   6.932  0.00  0.00    -0.386 OA
ATOM     47  H   LIG    1       29.628 -18.818   6.151  0.00  0.00    +0.210 HD
ENDBRANCH  45  46
BRANCH  45  48
ATOM     48  C   LIG    1       30.188 -18.209   9.175  0.00  0.00    +0.208 C 
BRANCH  48  49
ATOM     49  O   LIG    1       30.470 -19.111  10.214  0.00  0.00    -0.382 OA
ATOM     50  H   LIG    1       30.102 -19.984   9.983  0.00  0.00    +0.210 HD
ENDBRANCH  48  49
BRANCH  48  51
ATOM     51  C   LIG    1       31.181 -17.189   9.115  0.00  0.00    +0.257 C 
ATOM     52  O   LIG    1       32.230 -17.186   8.355  0.00  0.00    -0.298 OA
ENDBRANCH  48  51
ENDBRANCH  45  48
ENDBRANCH  44  45
BRANCH  44  53
ATOM     53  C   LIG    1       30.859 -21.005   8.115  0.00  0.00    +0.171 C 
BRANCH  53  54
ATOM     54  O   LIG    1       31.835 -20.169   7.478  0.00  0.00    -0.387 OA
ATOM     55  H   LIG    1       31.440 -19.547   6.860  0.00  0.00    +0.210 HD
ENDBRANCH  53  54
BRANCH  53  56
ATOM     56  C   LIG    1       31.394 -22.108   9.023  0.00  0.00    +0.190 C 
BRANCH  56  57
ATOM     57  O   LIG    1       30.848 -22.051  10.322  0.00  0.00    -0.392 OA
ATOM     58  H   LIG    1       30.978 -22.936  10.710  0.00  0.00    +0.209 HD
ENDBRANCH  56  57
ENDBRANCH  53  56
ENDBRANCH  44  53
ENDBRANCH  43  44
ENDBRANCH  33  43
ENDBRANCH   1  30
TORSDOF 26
ENDMDL
MODEL 3
REMARK VINA RESULT:      -7.1      1.518      2.805
REMARK  Name = *****
REMARK                            x       y       z     vdW  Elec       q    Type
REMARK                         _______ _______ _______ _____ _____    ______ ____
ROOT
ATOM      1  O   LIG    1       25.779 -24.258   7.068  0.00  0.00    -0.340 OA
ENDROOT
BRANCH   1   7
ATOM      2  C   LIG    1       27.118 -27.693   4.523  0.00  0.00    +0.039 C 
ATOM      3  C   LIG    1       26.799 -27.293   5.963  0.00  0.00    +0.138 C 
ATOM      4  C   LIG    1       25.609 -28.147   6.474  0.00  0.00    +0.114 C 
ATOM      5  C   LIG    1       24.461 -27.146   6.625  0.00  0.00    +0.167 C 
ATOM      6  C   LIG    1       24.621 -25.974   5.611  0.00  0.00    +0.200 C 
ATOM      7  C   LIG    1       25.862 -25.072   5.894  0.00  0.00    +0.282 C 
ATOM      8  O   LIG    1       26.961 -25.895   6.081  0.00  0.00    -0.344 OA
BRANCH   6   9
ATOM      9  O   LIG    1       23.428 -25.221   5.475  0.00  0.00    -0.384 OA
ATOM     10  H   LIG    1       23.700 -24.304   5.337  0.00  0.00    +0.210 HD
ENDBRANCH   6   9
BRANCH   5  11
ATOM     11  O   LIG    1       23.279 -27.926   6.362  0.00  0.00    -0.387 OA
ATOM     12  H   LIG    1       23.453 -28.857   6.559  0.00  0.00    +0.210 HD
ENDBRANCH   5  11
BRANCH   4  13
ATOM     13  N   LIG    1       25.597 -29.025   7.699  0.00  0.00    -0.300 NA
ATOM     14  H   LIG    1       25.476 -29.968   7.302  0.00  0.00    +0.123 HD
BRANCH  13  15
ATOM     15  C   LIG    1       26.707 -29.211   8.673  0.00  0.00    +0.109 C 
ATOM     16  C   LIG    1       27.000 -30.608   9.229  0.00  0.00    +0.166 C 
ATOM     17  C   LIG    1       25.913 -30.944  10.199  0.00  0.00    +0.177 C 
ATOM     18  C   LIG    1       25.851 -29.990  11.411  0.00  0.00    +0.173 C 
ATOM     19  C   LIG    1       26.268 -28.602  11.073  0.00  0.00    -0.016 C 
ATOM     20  C   LIG    1       26.646 -28.243   9.830  0.00  0.00    -0.002 C 
BRANCH  18  21
ATOM     21  O   LIG    1       24.578 -29.816  12.043  0.00  0.00    -0.385 OA
ATOM     22  H   LIG    1       24.110 -29.035  11.680  0.00  0.00    +0.210 HD
ENDBRANCH  18  21
BRANCH  17  23
ATOM     23  O   LIG    1       26.077 -32.334  10.400  0.00  0.00    -0.386 OA
ATOM     24  H   LIG    1       25.245 -32.579  10.890  0.00  0.00    +0.210 HD
ENDBRANCH  17  23
BRANCH  16  25
ATOM     25  O   LIG    1       27.118 -31.626   8.224  0.00  0.00    -0.387 OA
ATOM     26  H   LIG    1       26.424 -31.410   7.568  0.00  0.00    +0.210 HD
ENDBRANCH  16  25
BRANCH  19  27
ATOM     27  C   LIG    1       26.163 -27.658  12.226  0.00  0.00    +0.189 C 
BRANCH  27  28
ATOM     28  O   LIG    1       27.409 -26.998  12.367  0.00  0.00    -0.391 OA
ATOM     29  H   LIG    1       27.305 -26.363  13.102  0.00  0.00    +0.210 HD
ENDBRANCH  27  28
ENDBRANCH  19  27
ENDBRANCH  13  15
ENDBRANCH   4  13
ENDBRANCH   1   7
BRANCH   1  30
ATOM     30  C   LIG    1       25.145 -22.938   6.971  0.00  0.00    +0.183 C 
ATOM     31  C   LIG    1       25.586 -22.050   5.782  0.00  0.00    +0.178 C 
ATOM     32  O   LIG    1       26.729 -21.181   6.031  0.00  0.00    -0.341 OA
ATOM     33  C   LIG    1       27.022 -20.676   7.374  0.00  0.00    +0.282 C 
ATOM     34  C   LIG    1       25.726 -20.704   8.175  0.00  0.00    +0.201 C 
ATOM     35  C   LIG    1       25.027 -22.088   8.269  0.00  0.00    +0.179 C 
BRANCH  35  36
ATOM     36  O   LIG    1       23.613 -21.734   8.433  0.00  0.00    -0.386 OA
ATOM     37  H   LIG    1       23.349 -21.201   7.658  0.00  0.00    +0.210 HD
ENDBRANCH  35  36
BRANCH  34  38
ATOM     38  O   LIG    1       25.753 -19.932   9.366  0.00  0.00    -0.384 OA
ATOM     39  H   LIG    1       26.332 -19.166   9.177  0.00  0.00    +0.210 HD
ENDBRANCH  34  38
BRANCH  31  40
ATOM     40  C   LIG    1       24.367 -21.312   5.094  0.00  0.00    +0.190 C 
BRANCH  40  41
ATOM     41  O   LIG    1       23.084 -21.900   5.277  0.00  0.00    -0.392 OA
ATOM     42  H   LIG    1       23.060 -22.770   4.832  0.00  0.00    +0.209 HD
ENDBRANCH  40  41
ENDBRANCH  31  40
BRANCH  33  43
ATOM     43  O   LIG    1       28.222 -21.251   7.908  0.00  0.00    -0.340 OA
BRANCH  43  44
ATOM     44  C   LIG    1       29.429 -20.556   8.339  0.00  0.00    +0.183 C 
BRANCH  44  45
ATOM     45  C   LIG    1       29.418 -18.992   8.226  0.00  0.00    +0.181 C 
BRANCH  45  46
ATOM     46  O   LIG    1       29.746 -18.346   7.014  0.00  0.00    -0.386 OA
ATOM     47  H   LIG    1       29.630 -17.394   7.156  0.00  0.00    +0.210 HD
ENDBRANCH  45  46
BRANCH  45  48
ATOM     48  C   LIG    1       30.437 -18.258   9.163  0.00  0.00    +0.208 C 
BRANCH  48  49
ATOM     49  O   LIG    1       31.266 -17.449   8.367  0.00  0.00    -0.382 OA
ATOM     50  H   LIG    1       31.999 -17.992   8.021  0.00  0.00    +0.210 HD
ENDBRANCH  48  49
BRANCH  48  51
ATOM     51  C   LIG    1       30.317 -17.713  10.474  0.00  0.00    +0.257 C 
ATOM     52  O   LIG    1       30.086 -16.473  10.769  0.00  0.00    -0.298 OA
ENDBRANCH  48  51
ENDBRANCH  45  48
ENDBRANCH  44  45
BRANCH  44  53
ATOM     53  C   LIG    1       30.908 -21.014   8.192  0.00  0.00    +0.171 C 
BRANCH  53  54
ATOM     54  O   LIG    1       31.828 -20.219   7.432  0.00  0.00    -0.387 OA
ATOM     55  H   LIG    1       32.607 -20.714   7.164  0.00  0.00    +0.210 HD
ENDBRANCH  53  54
BRANCH  53  56
ATOM     56  C   LIG    1       31.518 -22.032   9.152  0.00  0.00    +0.190 C 
BRANCH  56  57
ATOM     57  O   LIG    1       30.800 -22.129  10.362  0.00  0.00    -0.392 OA
ATOM     58  H   LIG    1       31.400 -21.804  11.060  0.00  0.00    +0.209 HD
ENDBRANCH  56  57
ENDBRANCH  53  56
ENDBRANCH  44  53
ENDBRANCH  43  44
ENDBRANCH  33  43
ENDBRANCH   1  30
TORSDOF 26
ENDMDL
MODEL 4
REMARK VINA RESULT:      -7.1      5.541     10.430
REMARK  Name = *****
REMARK                            x       y       z     vdW  Elec       q    Type
REMARK                         _______ _______ _______ _____ _____    ______ ____
ROOT
ATOM      1  O   LIG    1       23.706 -30.257  11.622  0.00  0.00    -0.340 OA
ENDROOT
BRANCH   1   7
ATOM      2  C   LIG    1       20.709 -33.249  13.081  0.00  0.00    +0.039 C 
ATOM      3  C   LIG    1       21.040 -31.757  13.075  0.00  0.00    +0.138 C 
ATOM      4  C   LIG    1       19.906 -30.990  12.345  0.00  0.00    +0.114 C 
ATOM      5  C   LIG    1       20.559 -30.481  11.059  0.00  0.00    +0.167 C 
ATOM      6  C   LIG    1       21.706 -31.436  10.614  0.00  0.00    +0.200 C 
ATOM      7  C   LIG    1       22.919 -31.452  11.594  0.00  0.00    +0.282 C 
ATOM      8  O   LIG    1       22.431 -31.613  12.881  0.00  0.00    -0.344 OA
BRANCH   6   9
ATOM      9  O   LIG    1       22.102 -31.204   9.272  0.00  0.00    -0.384 OA
ATOM     10  H   LIG    1       22.602 -30.377   9.275  0.00  0.00    +0.210 HD
ENDBRANCH   6   9
BRANCH   5  11
ATOM     11  O   LIG    1       19.480 -30.456  10.105  0.00  0.00    -0.387 OA
ATOM     12  H   LIG    1       19.833 -30.294   9.219  0.00  0.00    +0.210 HD
ENDBRANCH   5  11
BRANCH   4  13
ATOM     13  N   LIG    1       19.087 -29.856  12.907  0.00  0.00    -0.300 NA
ATOM     14  H   LIG    1       18.144 -30.266  12.969  0.00  0.00    +0.123 HD
BRANCH  13  15
ATOM     15  C   LIG    1       19.257 -29.205  14.234  0.00  0.00    +0.109 C 
ATOM     16  C   LIG    1       18.628 -27.833  14.491  0.00  0.00    +0.166 C 
ATOM     17  C   LIG    1       19.434 -26.820  13.741  0.00  0.00    +0.177 C 
ATOM     18  C   LIG    1       20.901 -26.728  14.212  0.00  0.00    +0.173 C 
ATOM     19  C   LIG    1       21.435 -28.033  14.688  0.00  0.00    -0.016 C 
ATOM     20  C   LIG    1       20.696 -29.160  14.690  0.00  0.00    -0.002 C 
BRANCH  18  21
ATOM     21  O   LIG    1       21.871 -26.298  13.250  0.00  0.00    -0.385 OA
ATOM     22  H   LIG    1       22.655 -25.911  13.691  0.00  0.00    +0.210 HD
ENDBRANCH  18  21
BRANCH  17  23
ATOM     23  O   LIG    1       18.610 -25.671  13.762  0.00  0.00    -0.386 OA
ATOM     24  H   LIG    1       17.967 -25.854  13.024  0.00  0.00    +0.210 HD
ENDBRANCH  17  23
BRANCH  16  25
ATOM     25  O   LIG    1       17.241 -27.747  14.131  0.00  0.00    -0.387 OA
ATOM     26  H   LIG    1       16.778 -27.551  14.971  0.00  0.00    +0.210 HD
ENDBRANCH  16  25
BRANCH  19  27
ATOM     27  C   LIG    1       22.871 -27.968  15.098  0.00  0.00    +0.189 C 
BRANCH  27  28
ATOM     28  O   LIG    1       23.620 -28.767  14.200  0.00  0.00    -0.391 OA
ATOM     29  H   LIG    1       23.805 -28.210  13.421  0.00  0.00    +0.210 HD
ENDBRANCH  27  28
ENDBRANCH  19  27
ENDBRANCH  13  15
ENDBRANCH   4  13
ENDBRANCH   1   7
BRANCH   1  30
ATOM     30  C   LIG    1       25.159 -30.362  11.433  0.00  0.00    +0.183 C 
ATOM     31  C   LIG    1       25.943 -29.027  11.391  0.00  0.00    +0.178 C 
ATOM     32  O   LIG    1       26.089 -28.420  10.075  0.00  0.00    -0.341 OA
ATOM     33  C   LIG    1       26.113 -29.236   8.858  0.00  0.00    +0.282 C 
ATOM     34  C   LIG    1       26.551 -30.643   9.251  0.00  0.00    +0.201 C 
ATOM     35  C   LIG    1       25.684 -31.335  10.338  0.00  0.00    +0.179 C 
BRANCH  35  36
ATOM     36  O   LIG    1       26.630 -32.249  10.984  0.00  0.00    -0.386 OA
ATOM     37  H   LIG    1       27.405 -31.725  11.265  0.00  0.00    +0.210 HD
ENDBRANCH  35  36
BRANCH  34  38
ATOM     38  O   LIG    1       26.961 -31.457   8.162  0.00  0.00    -0.384 OA
ATOM     39  H   LIG    1       26.140 -31.825   7.778  0.00  0.00    +0.210 HD
ENDBRANCH  34  38
BRANCH  31  40
ATOM     40  C   LIG    1       27.294 -29.096  12.211  0.00  0.00    +0.190 C 
BRANCH  40  41
ATOM     41  O   LIG    1       28.498 -28.945  11.468  0.00  0.00    -0.392 OA
ATOM     42  H   LIG    1       28.604 -29.707  10.865  0.00  0.00    +0.209 HD
ENDBRANCH  40  41
ENDBRANCH  31  40
BRANCH  33  43
ATOM     43  O   LIG    1       24.940 -29.033   8.059  0.00  0.00    -0.340 OA
BRANCH  43  44
ATOM     44  C   LIG    1       24.833 -28.296   6.807  0.00  0.00    +0.183 C 
BRANCH  44  45
ATOM     45  C   LIG    1       24.379 -29.112   5.546  0.00  0.00    +0.181 C 
BRANCH  45  46
ATOM     46  O   LIG    1       23.013 -29.366   5.294  0.00  0.00    -0.386 OA
ATOM     47  H   LIG    1       22.571 -29.436   6.154  0.00  0.00    +0.210 HD
ENDBRANCH  45  46
BRANCH  45  48
ATOM     48  C   LIG    1       24.903 -30.587   5.493  0.00  0.00    +0.208 C 
BRANCH  48  49
ATOM     49  O   LIG    1       26.294 -30.570   5.693  0.00  0.00    -0.382 OA
ATOM     50  H   LIG    1       26.565 -31.417   6.094  0.00  0.00    +0.210 HD
ENDBRANCH  48  49
BRANCH  48  51
ATOM     51  C   LIG    1       24.348 -31.821   5.941  0.00  0.00    +0.257 C 
ATOM     52  O   LIG    1       23.473 -31.968   6.884  0.00  0.00    -0.298 OA
ENDBRANCH  48  51
ENDBRANCH  45  48
ENDBRANCH  44  45
BRANCH  44  53
ATOM     53  C   LIG    1       25.724 -27.128   6.297  0.00  0.00    +0.171 C 
BRANCH  53  54
ATOM     54  O   LIG    1       26.880 -27.410   5.496  0.00  0.00    -0.387 OA
ATOM     55  H   LIG    1       26.841 -28.280   5.089  0.00  0.00    +0.210 HD
ENDBRANCH  53  54
BRANCH  53  56
ATOM     56  C   LIG    1       25.201 -25.695   6.259  0.00  0.00    +0.190 C 
BRANCH  56  57
ATOM     57  O   LIG    1       24.037 -25.567   5.475  0.00  0.00    -0.392 OA
ATOM     58  H   LIG    1       23.552 -24.800   5.832  0.00  0.00    +0.209 HD
ENDBRANCH  56  57
ENDBRANCH  53  56
ENDBRANCH  44  53
ENDBRANCH  43  44
ENDBRANCH  33  43
ENDBRANCH   1  30
TORSDOF 26
ENDMDL
MODEL 5
REMARK VINA RESULT:      -7.0      1.766      2.068
REMARK  Name = *****
REMARK                            x       y       z     vdW  Elec       q    Type
REMARK                         _______ _______ _______ _____ _____    ______ ____
ROOT
ATOM      1  O   LIG    1       25.757 -24.352   6.968  0.00  0.00    -0.340 OA
ENDROOT
BRANCH   1   7
ATOM      2  C   LIG    1       27.061 -27.602   4.175  0.00  0.00    +0.039 C 
ATOM      3  C   LIG    1       26.838 -27.280   5.652  0.00  0.00    +0.138 C 
ATOM      4  C   LIG    1       25.737 -28.216   6.214  0.00  0.00    +0.114 C 
ATOM      5  C   LIG    1       24.556 -27.286   6.499  0.00  0.00    +0.167 C 
ATOM      6  C   LIG    1       24.575 -26.067   5.530  0.00  0.00    +0.200 C 
ATOM      7  C   LIG    1       25.787 -25.111   5.755  0.00  0.00    +0.282 C 
ATOM      8  O   LIG    1       26.937 -25.881   5.819  0.00  0.00    -0.344 OA
BRANCH   6   9
ATOM      9  O   LIG    1       23.338 -25.375   5.520  0.00  0.00    -0.384 OA
ATOM     10  H   LIG    1       22.757 -25.864   4.922  0.00  0.00    +0.210 HD
ENDBRANCH   6   9
BRANCH   5  11
ATOM     11  O   LIG    1       23.398 -28.118   6.293  0.00  0.00    -0.387 OA
ATOM     12  H   LIG    1       22.824 -28.075   7.071  0.00  0.00    +0.210 HD
ENDBRANCH   5  11
BRANCH   4  13
ATOM     13  N   LIG    1       25.868 -29.143   7.396  0.00  0.00    -0.300 NA
ATOM     14  H   LIG    1       26.870 -29.081   7.624  0.00  0.00    +0.123 HD
BRANCH  13  15
ATOM     15  C   LIG    1       25.212 -28.995   8.723  0.00  0.00    +0.109 C 
ATOM     16  C   LIG    1       26.056 -29.075   9.998  0.00  0.00    +0.166 C 
ATOM     17  C   LIG    1       26.437 -30.507  10.198  0.00  0.00    +0.177 C 
ATOM     18  C   LIG    1       25.228 -31.443  10.409  0.00  0.00    +0.173 C 
ATOM     19  C   LIG    1       24.017 -30.997   9.665  0.00  0.00    -0.016 C 
ATOM     20  C   LIG    1       24.011 -29.893   8.892  0.00  0.00    -0.002 C 
BRANCH  18  21
ATOM     21  O   LIG    1       25.382 -32.811  10.012  0.00  0.00    -0.385 OA
ATOM     22  H   LIG    1       24.572 -33.326  10.208  0.00  0.00    +0.210 HD
ENDBRANCH  18  21
BRANCH  17  23
ATOM     23  O   LIG    1       27.458 -30.438  11.174  0.00  0.00    -0.386 OA
ATOM     24  H   LIG    1       27.307 -31.270  11.700  0.00  0.00    +0.210 HD
ENDBRANCH  17  23
BRANCH  16  25
ATOM     25  O   LIG    1       27.220 -28.236   9.984  0.00  0.00    -0.387 OA
ATOM     26  H   LIG    1       27.653 -28.395  10.848  0.00  0.00    +0.210 HD
ENDBRANCH  16  25
BRANCH  19  27
ATOM     27  C   LIG    1       22.856 -31.923   9.821  0.00  0.00    +0.189 C 
BRANCH  27  28
ATOM     28  O   LIG    1       21.669 -31.151   9.772  0.00  0.00    -0.391 OA
ATOM     29  H   LIG    1       21.765 -30.451  10.445  0.00  0.00    +0.210 HD
ENDBRANCH  27  28
ENDBRANCH  19  27
ENDBRANCH  13  15
ENDBRANCH   4  13
ENDBRANCH   1   7
BRANCH   1  30
ATOM     30  C   LIG    1       25.088 -23.044   6.968  0.00  0.00    +0.183 C 
ATOM     31  C   LIG    1       25.409 -22.109   5.777  0.00  0.00    +0.178 C 
ATOM     32  O   LIG    1       26.550 -21.221   5.958  0.00  0.00    -0.341 OA
ATOM     33  C   LIG    1       26.945 -20.752   7.289  0.00  0.00    +0.282 C 
ATOM     34  C   LIG    1       25.721 -20.836   8.193  0.00  0.00    +0.201 C 
ATOM     35  C   LIG    1       25.062 -22.239   8.299  0.00  0.00    +0.179 C 
BRANCH  35  36
ATOM     36  O   LIG    1       23.660 -21.924   8.592  0.00  0.00    -0.386 OA
ATOM     37  H   LIG    1       23.636 -21.436   9.436  0.00  0.00    +0.210 HD
ENDBRANCH  35  36
BRANCH  34  38
ATOM     38  O   LIG    1       25.832 -20.101   9.403  0.00  0.00    -0.384 OA
ATOM     39  H   LIG    1       25.018 -19.562   9.466  0.00  0.00    +0.210 HD
ENDBRANCH  34  38
BRANCH  31  40
ATOM     40  C   LIG    1       24.121 -21.380   5.218  0.00  0.00    +0.190 C 
BRANCH  40  41
ATOM     41  O   LIG    1       22.866 -21.945   5.576  0.00  0.00    -0.392 OA
ATOM     42  H   LIG    1       22.438 -21.383   6.251  0.00  0.00    +0.209 HD
ENDBRANCH  40  41
ENDBRANCH  31  40
BRANCH  33  43
ATOM     43  O   LIG    1       28.197 -21.315   7.701  0.00  0.00    -0.340 OA
BRANCH  43  44
ATOM     44  C   LIG    1       29.380 -20.606   8.172  0.00  0.00    +0.183 C 
BRANCH  44  45
ATOM     45  C   LIG    1       29.370 -19.045   8.029  0.00  0.00    +0.181 C 
BRANCH  45  46
ATOM     46  O   LIG    1       29.923 -18.412   6.895  0.00  0.00    -0.386 OA
ATOM     47  H   LIG    1       29.812 -17.457   7.017  0.00  0.00    +0.210 HD
ENDBRANCH  45  46
BRANCH  45  48
ATOM     48  C   LIG    1       30.169 -18.277   9.136  0.00  0.00    +0.208 C 
BRANCH  48  49
ATOM     49  O   LIG    1       30.463 -19.177  10.174  0.00  0.00    -0.382 OA
ATOM     50  H   LIG    1       30.125 -20.059   9.933  0.00  0.00    +0.210 HD
ENDBRANCH  48  49
BRANCH  48  51
ATOM     51  C   LIG    1       31.153 -17.248   9.072  0.00  0.00    +0.257 C 
ATOM     52  O   LIG    1       32.203 -17.241   8.314  0.00  0.00    -0.298 OA
ENDBRANCH  48  51
ENDBRANCH  45  48
ENDBRANCH  44  45
BRANCH  44  53
ATOM     53  C   LIG    1       30.866 -21.060   8.101  0.00  0.00    +0.171 C 
BRANCH  53  54
ATOM     54  O   LIG    1       31.837 -20.225   7.455  0.00  0.00    -0.387 OA
ATOM     55  H   LIG    1       31.708 -20.179   6.504  0.00  0.00    +0.210 HD
ENDBRANCH  53  54
BRANCH  53  56
ATOM     56  C   LIG    1       31.409 -22.136   9.038  0.00  0.00    +0.190 C 
BRANCH  56  57
ATOM     57  O   LIG    1       30.791 -22.110  10.304  0.00  0.00    -0.392 OA
ATOM     58  H   LIG    1       30.543 -23.031  10.505  0.00  0.00    +0.209 HD
ENDBRANCH  56  57
ENDBRANCH  53  56
ENDBRANCH  44  53
ENDBRANCH  43  44
ENDBRANCH  33  43
ENDBRANCH   1  30
TORSDOF 26
ENDMDL
MODEL 6
REMARK VINA RESULT:      -6.8      1.284      2.762
REMARK  Name = *****
REMARK                            x       y       z     vdW  Elec       q    Type
REMARK                         _______ _______ _______ _____ _____    ______ ____
ROOT
ATOM      1  O   LIG    1       25.786 -24.273   7.015  0.00  0.00    -0.340 OA
ENDROOT
BRANCH   1   7
ATOM      2  C   LIG    1       27.054 -27.517   4.198  0.00  0.00    +0.039 C 
ATOM      3  C   LIG    1       26.842 -27.200   5.678  0.00  0.00    +0.138 C 
ATOM      4  C   LIG    1       25.738 -28.133   6.242  0.00  0.00    +0.114 C 
ATOM      5  C   LIG    1       24.564 -27.198   6.538  0.00  0.00    +0.167 C 
ATOM      6  C   LIG    1       24.586 -25.973   5.575  0.00  0.00    +0.200 C 
ATOM      7  C   LIG    1       25.804 -25.026   5.799  0.00  0.00    +0.282 C 
ATOM      8  O   LIG    1       26.951 -25.803   5.852  0.00  0.00    -0.344 OA
BRANCH   6   9
ATOM      9  O   LIG    1       23.353 -25.274   5.575  0.00  0.00    -0.384 OA
ATOM     10  H   LIG    1       22.771 -25.749   6.183  0.00  0.00    +0.210 HD
ENDBRANCH   6   9
BRANCH   5  11
ATOM     11  O   LIG    1       23.400 -28.021   6.334  0.00  0.00    -0.387 OA
ATOM     12  H   LIG    1       23.431 -28.416   5.452  0.00  0.00    +0.210 HD
ENDBRANCH   5  11
BRANCH   4  13
ATOM     13  N   LIG    1       25.870 -29.067   7.418  0.00  0.00    -0.300 NA
ATOM     14  H   LIG    1       24.964 -28.961   7.896  0.00  0.00    +0.123 HD
BRANCH  13  15
ATOM     15  C   LIG    1       26.051 -30.543   7.368  0.00  0.00    +0.109 C 
ATOM     16  C   LIG    1       25.263 -31.369   6.347  0.00  0.00    +0.166 C 
ATOM     17  C   LIG    1       23.842 -31.425   6.811  0.00  0.00    +0.177 C 
ATOM     18  C   LIG    1       23.667 -32.125   8.175  0.00  0.00    +0.173 C 
ATOM     19  C   LIG    1       24.834 -31.927   9.079  0.00  0.00    -0.016 C 
ATOM     20  C   LIG    1       25.911 -31.202   8.719  0.00  0.00    -0.002 C 
BRANCH  18  21
ATOM     21  O   LIG    1       22.549 -31.727   8.977  0.00  0.00    -0.385 OA
ATOM     22  H   LIG    1       22.594 -30.772   9.192  0.00  0.00    +0.210 HD
ENDBRANCH  18  21
BRANCH  17  23
ATOM     23  O   LIG    1       23.148 -31.902   5.675  0.00  0.00    -0.386 OA
ATOM     24  H   LIG    1       22.640 -31.098   5.382  0.00  0.00    +0.210 HD
ENDBRANCH  17  23
BRANCH  16  25
ATOM     25  O   LIG    1       25.339 -30.868   5.004  0.00  0.00    -0.387 OA
ATOM     26  H   LIG    1       24.599 -30.231   4.933  0.00  0.00    +0.210 HD
ENDBRANCH  16  25
BRANCH  19  27
ATOM     27  C   LIG    1       24.653 -32.558  10.421  0.00  0.00    +0.189 C 
BRANCH  27  28
ATOM     28  O   LIG    1       25.885 -33.146  10.799  0.00  0.00    -0.391 OA
ATOM     29  H   LIG    1       25.943 -33.069  11.770  0.00  0.00    +0.210 HD
ENDBRANCH  27  28
ENDBRANCH  19  27
ENDBRANCH  13  15
ENDBRANCH   4  13
ENDBRANCH   1   7
BRANCH   1  30
ATOM     30  C   LIG    1       25.162 -22.943   7.016  0.00  0.00    +0.183 C 
ATOM     31  C   LIG    1       25.557 -22.000   5.853  0.00  0.00    +0.178 C 
ATOM     32  O   LIG    1       26.720 -21.155   6.091  0.00  0.00    -0.341 OA
ATOM     33  C   LIG    1       27.083 -20.722   7.442  0.00  0.00    +0.282 C 
ATOM     34  C   LIG    1       25.825 -20.779   8.302  0.00  0.00    +0.201 C 
ATOM     35  C   LIG    1       25.115 -22.160   8.359  0.00  0.00    +0.179 C 
BRANCH  35  36
ATOM     36  O   LIG    1       23.715 -21.802   8.608  0.00  0.00    -0.386 OA
ATOM     37  H   LIG    1       23.202 -22.044   7.813  0.00  0.00    +0.210 HD
ENDBRANCH  35  36
BRANCH  34  38
ATOM     38  O   LIG    1       25.917 -20.069   9.528  0.00  0.00    -0.384 OA
ATOM     39  H   LIG    1       25.069 -20.222   9.992  0.00  0.00    +0.210 HD
ENDBRANCH  34  38
BRANCH  31  40
ATOM     40  C   LIG    1       24.315 -21.218   5.263  0.00  0.00    +0.190 C 
BRANCH  40  41
ATOM     41  O   LIG    1       23.033 -21.785   5.505  0.00  0.00    -0.392 OA
ATOM     42  H   LIG    1       22.959 -22.026   6.449  0.00  0.00    +0.209 HD
ENDBRANCH  40  41
ENDBRANCH  31  40
BRANCH  33  43
ATOM     43  O   LIG    1       28.300 -21.335   7.888  0.00  0.00    -0.340 OA
BRANCH  43  44
ATOM     44  C   LIG    1       29.665 -20.914   7.602  0.00  0.00    +0.183 C 
BRANCH  44  45
ATOM     45  C   LIG    1       30.700 -21.036   8.774  0.00  0.00    +0.181 C 
BRANCH  45  46
ATOM     46  O   LIG    1       30.463 -21.893   9.871  0.00  0.00    -0.386 OA
ATOM     47  H   LIG    1       30.963 -21.542  10.623  0.00  0.00    +0.210 HD
ENDBRANCH  45  46
BRANCH  45  48
ATOM     48  C   LIG    1       30.957 -19.710   9.567  0.00  0.00    +0.208 C 
BRANCH  48  49
ATOM     49  O   LIG    1       32.277 -19.297   9.323  0.00  0.00    -0.382 OA
ATOM     50  H   LIG    1       32.747 -19.221  10.174  0.00  0.00    +0.210 HD
ENDBRANCH  48  49
BRANCH  48  51
ATOM     51  C   LIG    1       30.128 -18.588   9.858  0.00  0.00    +0.257 C 
ATOM     52  O   LIG    1       30.074 -17.948  10.983  0.00  0.00    -0.298 OA
ENDBRANCH  48  51
ENDBRANCH  45  48
ENDBRANCH  44  45
BRANCH  44  53
ATOM     53  C   LIG    1       30.143 -19.746   6.693  0.00  0.00    +0.171 C 
BRANCH  53  54
ATOM     54  O   LIG    1       31.538 -19.596   6.399  0.00  0.00    -0.387 OA
ATOM     55  H   LIG    1       31.710 -19.527   5.455  0.00  0.00    +0.210 HD
ENDBRANCH  53  54
BRANCH  53  56
ATOM     56  C   LIG    1       29.169 -19.013   5.773  0.00  0.00    +0.190 C 
BRANCH  56  57
ATOM     57  O   LIG    1       29.796 -17.993   5.029  0.00  0.00    -0.392 OA
ATOM     58  H   LIG    1       29.209 -17.217   5.085  0.00  0.00    +0.209 HD
ENDBRANCH  56  57
ENDBRANCH  53  56
ENDBRANCH  44  53
ENDBRANCH  43  44
ENDBRANCH  33  43
ENDBRANCH   1  30
TORSDOF 26
ENDMDL
MODEL 7
REMARK VINA RESULT:      -6.7      3.549      6.745
REMARK  Name = *****
REMARK                            x       y       z     vdW  Elec       q    Type
REMARK                         _______ _______ _______ _____ _____    ______ ____
ROOT
ATOM      1  O   LIG    1       26.197 -27.613   8.420  0.00  0.00    -0.340 OA
ENDROOT
BRANCH   1   7
ATOM      2  C   LIG    1       26.302 -31.098  11.232  0.00  0.00    +0.039 C 
ATOM      3  C   LIG    1       25.495 -29.854  10.860  0.00  0.00    +0.138 C 
ATOM      4  C   LIG    1       24.083 -30.288  10.388  0.00  0.00    +0.114 C 
ATOM      5  C   LIG    1       24.064 -29.957   8.894  0.00  0.00    +0.167 C 
ATOM      6  C   LIG    1       25.500 -30.043   8.297  0.00  0.00    +0.200 C 
ATOM      7  C   LIG    1       26.469 -28.951   8.847  0.00  0.00    +0.282 C 
ATOM      8  O   LIG    1       26.363 -28.936  10.228  0.00  0.00    -0.344 OA
BRANCH   6   9
ATOM      9  O   LIG    1       25.486 -30.086   6.881  0.00  0.00    -0.384 OA
ATOM     10  H   LIG    1       24.645 -29.698   6.605  0.00  0.00    +0.210 HD
ENDBRANCH   6   9
BRANCH   5  11
ATOM     11  O   LIG    1       23.186 -30.948   8.327  0.00  0.00    -0.387 OA
ATOM     12  H   LIG    1       23.233 -30.911   7.362  0.00  0.00    +0.210 HD
ENDBRANCH   5  11
BRANCH   4  13
ATOM     13  N   LIG    1       22.767 -29.831  10.963  0.00  0.00    -0.300 NA
ATOM     14  H   LIG    1       22.091 -30.467  10.516  0.00  0.00    +0.123 HD
BRANCH  13  15
ATOM     15  C   LIG    1       22.361 -29.861  12.394  0.00  0.00    +0.109 C 
ATOM     16  C   LIG    1       21.038 -29.215  12.819  0.00  0.00    +0.166 C 
ATOM     17  C   LIG    1       21.222 -27.732  12.763  0.00  0.00    +0.177 C 
ATOM     18  C   LIG    1       22.301 -27.207  13.733  0.00  0.00    +0.173 C 
ATOM     19  C   LIG    1       23.411 -28.178  13.940  0.00  0.00    -0.016 C 
ATOM     20  C   LIG    1       23.445 -29.378  13.326  0.00  0.00    -0.002 C 
BRANCH  18  21
ATOM     21  O   LIG    1       22.976 -25.998  13.369  0.00  0.00    -0.385 OA
ATOM     22  H   LIG    1       23.030 -25.383  14.130  0.00  0.00    +0.210 HD
ENDBRANCH  18  21
BRANCH  17  23
ATOM     23  O   LIG    1       19.899 -27.239  12.842  0.00  0.00    -0.386 OA
ATOM     24  H   LIG    1       19.464 -27.889  13.458  0.00  0.00    +0.210 HD
ENDBRANCH  17  23
BRANCH  16  25
ATOM     25  O   LIG    1       19.909 -29.618  12.030  0.00  0.00    -0.387 OA
ATOM     26  H   LIG    1       20.201 -30.436  11.577  0.00  0.00    +0.210 HD
ENDBRANCH  16  25
BRANCH  19  27
ATOM     27  C   LIG    1       24.487 -27.660  14.837  0.00  0.00    +0.189 C 
BRANCH  27  28
ATOM     28  O   LIG    1       25.564 -27.227  14.025  0.00  0.00    -0.391 OA
ATOM     29  H   LIG    1       26.340 -27.758  14.287  0.00  0.00    +0.210 HD
ENDBRANCH  27  28
ENDBRANCH  19  27
ENDBRANCH  13  15
ENDBRANCH   4  13
ENDBRANCH   1   7
BRANCH   1  30
ATOM     30  C   LIG    1       25.823 -27.378   7.019  0.00  0.00    +0.183 C 
ATOM     31  C   LIG    1       26.871 -26.649   6.143  0.00  0.00    +0.178 C 
ATOM     32  O   LIG    1       26.781 -25.194   6.126  0.00  0.00    -0.341 OA
ATOM     33  C   LIG    1       25.503 -24.509   6.332  0.00  0.00    +0.282 C 
ATOM     34  C   LIG    1       24.389 -25.481   5.961  0.00  0.00    +0.201 C 
ATOM     35  C   LIG    1       24.396 -26.832   6.727  0.00  0.00    +0.179 C 
BRANCH  35  36
ATOM     36  O   LIG    1       23.762 -27.753   5.779  0.00  0.00    -0.386 OA
ATOM     37  H   LIG    1       24.171 -28.632   5.900  0.00  0.00    +0.210 HD
ENDBRANCH  35  36
BRANCH  34  38
ATOM     38  O   LIG    1       23.119 -24.875   5.768  0.00  0.00    -0.384 OA
ATOM     39  H   LIG    1       23.160 -24.438   4.894  0.00  0.00    +0.210 HD
ENDBRANCH  34  38
BRANCH  31  40
ATOM     40  C   LIG    1       27.005 -27.292   4.703  0.00  0.00    +0.190 C 
BRANCH  40  41
ATOM     41  O   LIG    1       28.327 -27.484   4.214  0.00  0.00    -0.392 OA
ATOM     42  H   LIG    1       28.326 -27.411   3.240  0.00  0.00    +0.209 HD
ENDBRANCH  40  41
ENDBRANCH  31  40
BRANCH  33  43
ATOM     43  O   LIG    1       25.472 -23.807   7.582  0.00  0.00    -0.340 OA
BRANCH  43  44
ATOM     44  C   LIG    1       25.247 -22.383   7.798  0.00  0.00    +0.183 C 
BRANCH  44  45
ATOM     45  C   LIG    1       24.227 -21.677   6.838  0.00  0.00    +0.181 C 
BRANCH  45  46
ATOM     46  O   LIG    1       22.992 -22.281   6.514  0.00  0.00    -0.386 OA
ATOM     47  H   LIG    1       23.133 -22.810   5.714  0.00  0.00    +0.210 HD
ENDBRANCH  45  46
BRANCH  45  48
ATOM     48  C   LIG    1       24.753 -21.430   5.384  0.00  0.00    +0.208 C 
BRANCH  48  49
ATOM     49  O   LIG    1       23.925 -22.128   4.489  0.00  0.00    -0.382 OA
ATOM     50  H   LIG    1       24.415 -22.283   3.660  0.00  0.00    +0.210 HD
ENDBRANCH  48  49
BRANCH  48  51
ATOM     51  C   LIG    1       25.325 -20.290   4.749  0.00  0.00    +0.257 C 
ATOM     52  O   LIG    1       26.518 -19.824   4.945  0.00  0.00    -0.298 OA
ENDBRANCH  48  51
ENDBRANCH  45  48
ENDBRANCH  44  45
BRANCH  44  53
ATOM     53  C   LIG    1       26.274 -21.303   8.245  0.00  0.00    +0.171 C 
BRANCH  53  54
ATOM     54  O   LIG    1       26.010 -20.508   9.409  0.00  0.00    -0.387 OA
ATOM     55  H   LIG    1       25.203 -19.992   9.327  0.00  0.00    +0.210 HD
ENDBRANCH  53  54
BRANCH  53  56
ATOM     56  C   LIG    1       27.719 -21.337   7.756  0.00  0.00    +0.190 C 
BRANCH  56  57
ATOM     57  O   LIG    1       28.253 -20.047   7.562  0.00  0.00    -0.392 OA
ATOM     58  H   LIG    1       29.190 -20.099   7.826  0.00  0.00    +0.209 HD
ENDBRANCH  56  57
ENDBRANCH  53  56
ENDBRANCH  44  53
ENDBRANCH  43  44
ENDBRANCH  33  43
ENDBRANCH   1  30
TORSDOF 26
ENDMDL
MODEL 8
REMARK VINA RESULT:      -6.7      1.024      2.141
REMARK  Name = *****
REMARK                            x       y       z     vdW  Elec       q    Type
REMARK                         _______ _______ _______ _____ _____    ______ ____
ROOT
ATOM      1  O   LIG    1       25.518 -24.326   6.821  0.00  0.00    -0.340 OA
ENDROOT
BRANCH   1   7
ATOM      2  C   LIG    1       27.192 -27.591   4.252  0.00  0.00    +0.039 C 
ATOM      3  C   LIG    1       26.834 -27.236   5.695  0.00  0.00    +0.138 C 
ATOM      4  C   LIG    1       25.734 -28.207   6.198  0.00  0.00    +0.114 C 
ATOM      5  C   LIG    1       24.493 -27.326   6.355  0.00  0.00    +0.167 C 
ATOM      6  C   LIG    1       24.537 -26.137   5.350  0.00  0.00    +0.200 C 
ATOM      7  C   LIG    1       25.682 -25.118   5.641  0.00  0.00    +0.282 C 
ATOM      8  O   LIG    1       26.857 -25.830   5.823  0.00  0.00    -0.344 OA
BRANCH   6   9
ATOM      9  O   LIG    1       23.275 -25.505   5.218  0.00  0.00    -0.384 OA
ATOM     10  H   LIG    1       23.450 -24.619   4.871  0.00  0.00    +0.210 HD
ENDBRANCH   6   9
BRANCH   5  11
ATOM     11  O   LIG    1       23.394 -28.218   6.084  0.00  0.00    -0.387 OA
ATOM     12  H   LIG    1       22.878 -28.352   6.891  0.00  0.00    +0.210 HD
ENDBRANCH   5  11
BRANCH   4  13
ATOM     13  N   LIG    1       25.809 -29.092   7.416  0.00  0.00    -0.300 NA
ATOM     14  H   LIG    1       25.399 -28.500   8.152  0.00  0.00    +0.123 HD
BRANCH  13  15
ATOM     15  C   LIG    1       25.123 -30.397   7.613  0.00  0.00    +0.109 C 
ATOM     16  C   LIG    1       25.583 -31.333   8.735  0.00  0.00    +0.166 C 
ATOM     17  C   LIG    1       26.889 -31.930   8.319  0.00  0.00    +0.177 C 
ATOM     18  C   LIG    1       26.794 -32.789   7.040  0.00  0.00    +0.173 C 
ATOM     19  C   LIG    1       25.761 -32.293   6.089  0.00  0.00    -0.016 C 
ATOM     20  C   LIG    1       25.009 -31.203   6.342  0.00  0.00    -0.002 C 
BRANCH  18  21
ATOM     21  O   LIG    1       27.972 -32.894   6.233  0.00  0.00    -0.385 OA
ATOM     22  H   LIG    1       28.372 -33.785   6.308  0.00  0.00    +0.210 HD
ENDBRANCH  18  21
BRANCH  17  23
ATOM     23  O   LIG    1       27.384 -32.496   9.516  0.00  0.00    -0.386 OA
ATOM     24  H   LIG    1       27.301 -31.741  10.160  0.00  0.00    +0.210 HD
ENDBRANCH  17  23
BRANCH  16  25
ATOM     25  O   LIG    1       25.701 -30.697  10.017  0.00  0.00    -0.387 OA
ATOM     26  H   LIG    1       24.777 -30.571  10.318  0.00  0.00    +0.210 HD
ENDBRANCH  16  25
BRANCH  19  27
ATOM     27  C   LIG    1       25.696 -33.087   4.824  0.00  0.00    +0.189 C 
BRANCH  27  28
ATOM     28  O   LIG    1       24.428 -32.864   4.232  0.00  0.00    -0.391 OA
ATOM     29  H   LIG    1       23.925 -33.695   4.333  0.00  0.00    +0.210 HD
ENDBRANCH  27  28
ENDBRANCH  19  27
ENDBRANCH  13  15
ENDBRANCH   4  13
ENDBRANCH   1   7
BRANCH   1  30
ATOM     30  C   LIG    1       24.730 -23.089   6.741  0.00  0.00    +0.183 C 
ATOM     31  C   LIG    1       24.916 -22.239   5.460  0.00  0.00    +0.178 C 
ATOM     32  O   LIG    1       25.975 -21.239   5.512  0.00  0.00    -0.341 OA
ATOM     33  C   LIG    1       26.373 -20.619   6.778  0.00  0.00    +0.282 C 
ATOM     34  C   LIG    1       25.197 -20.732   7.742  0.00  0.00    +0.201 C 
ATOM     35  C   LIG    1       24.678 -22.174   7.997  0.00  0.00    +0.179 C 
BRANCH  35  36
ATOM     36  O   LIG    1       23.265 -21.963   8.326  0.00  0.00    -0.386 OA
ATOM     37  H   LIG    1       22.912 -21.297   7.705  0.00  0.00    +0.210 HD
ENDBRANCH  35  36
BRANCH  34  38
ATOM     38  O   LIG    1       25.284 -19.885   8.879  0.00  0.00    -0.384 OA
ATOM     39  H   LIG    1       24.377 -19.553   9.036  0.00  0.00    +0.210 HD
ENDBRANCH  34  38
BRANCH  31  40
ATOM     40  C   LIG    1       23.545 -21.683   4.901  0.00  0.00    +0.190 C 
BRANCH  40  41
ATOM     41  O   LIG    1       22.363 -22.140   5.547  0.00  0.00    -0.392 OA
ATOM     42  H   LIG    1       22.562 -22.956   6.046  0.00  0.00    +0.209 HD
ENDBRANCH  40  41
ENDBRANCH  31  40
BRANCH  33  43
ATOM     43  O   LIG    1       27.688 -21.027   7.179  0.00  0.00    -0.340 OA
BRANCH  43  44
ATOM     44  C   LIG    1       28.918 -20.248   7.125  0.00  0.00    +0.183 C 
BRANCH  44  45
ATOM     45  C   LIG    1       29.608 -19.924   8.496  0.00  0.00    +0.181 C 
BRANCH  45  46
ATOM     46  O   LIG    1       29.966 -18.602   8.838  0.00  0.00    -0.386 OA
ATOM     47  H   LIG    1       30.506 -18.254   8.112  0.00  0.00    +0.210 HD
ENDBRANCH  45  46
BRANCH  45  48
ATOM     48  C   LIG    1       31.003 -20.604   8.707  0.00  0.00    +0.208 C 
BRANCH  48  49
ATOM     49  O   LIG    1       31.908 -19.627   9.155  0.00  0.00    -0.382 OA
ATOM     50  H   LIG    1       32.795 -19.836   8.807  0.00  0.00    +0.210 HD
ENDBRANCH  48  49
BRANCH  48  51
ATOM     51  C   LIG    1       31.382 -21.892   9.183  0.00  0.00    +0.257 C 
ATOM     52  O   LIG    1       30.928 -22.480  10.244  0.00  0.00    -0.298 OA
ENDBRANCH  48  51
ENDBRANCH  45  48
ENDBRANCH  44  45
BRANCH  44  53
ATOM     53  C   LIG    1       29.285 -19.096   6.147  0.00  0.00    +0.171 C 
BRANCH  53  54
ATOM     54  O   LIG    1       30.639 -18.630   6.071  0.00  0.00    -0.387 OA
ATOM     55  H   LIG    1       31.247 -19.312   5.773  0.00  0.00    +0.210 HD
ENDBRANCH  53  54
BRANCH  53  56
ATOM     56  C   LIG    1       28.371 -18.729   4.981  0.00  0.00    +0.190 C 
BRANCH  56  57
ATOM     57  O   LIG    1       28.548 -17.396   4.556  0.00  0.00    -0.392 OA
ATOM     58  H   LIG    1       27.668 -16.978   4.602  0.00  0.00    +0.209 HD
ENDBRANCH  56  57
ENDBRANCH  53  56
ENDBRANCH  44  53
ENDBRANCH  43  44
ENDBRANCH  33  43
ENDBRANCH   1  30
TORSDOF 26
ENDMDL
MODEL 9
REMARK VINA RESULT:      -6.7      3.628      6.772
REMARK  Name = *****
REMARK                            x       y       z     vdW  Elec       q    Type
REMARK                         _______ _______ _______ _____ _____    ______ ____
ROOT
ATOM      1  O   LIG    1       26.161 -27.658   8.359  0.00  0.00    -0.340 OA
ENDROOT
BRANCH   1   7
ATOM      2  C   LIG    1       26.515 -31.244  11.020  0.00  0.00    +0.039 C 
ATOM      3  C   LIG    1       25.663 -30.004  10.751  0.00  0.00    +0.138 C 
ATOM      4  C   LIG    1       24.231 -30.450  10.355  0.00  0.00    +0.114 C 
ATOM      5  C   LIG    1       24.106 -30.062   8.880  0.00  0.00    +0.167 C 
ATOM      6  C   LIG    1       25.501 -30.095   8.187  0.00  0.00    +0.200 C 
ATOM      7  C   LIG    1       26.484 -29.006   8.714  0.00  0.00    +0.282 C 
ATOM      8  O   LIG    1       26.471 -29.046  10.099  0.00  0.00    -0.344 OA
BRANCH   6   9
ATOM      9  O   LIG    1       25.394 -30.085   6.774  0.00  0.00    -0.384 OA
ATOM     10  H   LIG    1       25.535 -30.996   6.484  0.00  0.00    +0.210 HD
ENDBRANCH   6   9
BRANCH   5  11
ATOM     11  O   LIG    1       23.211 -31.049   8.334  0.00  0.00    -0.387 OA
ATOM     12  H   LIG    1       23.585 -31.932   8.457  0.00  0.00    +0.210 HD
ENDBRANCH   5  11
BRANCH   4  13
ATOM     13  N   LIG    1       22.948 -30.042  11.033  0.00  0.00    -0.300 NA
ATOM     14  H   LIG    1       22.302 -30.801  10.773  0.00  0.00    +0.123 HD
BRANCH  13  15
ATOM     15  C   LIG    1       22.720 -29.894  12.496  0.00  0.00    +0.109 C 
ATOM     16  C   LIG    1       21.380 -30.323  13.100  0.00  0.00    +0.166 C 
ATOM     17  C   LIG    1       20.359 -29.306  12.703  0.00  0.00    +0.177 C 
ATOM     18  C   LIG    1       20.655 -27.891  13.245  0.00  0.00    +0.173 C 
ATOM     19  C   LIG    1       22.113 -27.611  13.358  0.00  0.00    -0.016 C 
ATOM     20  C   LIG    1       23.051 -28.513  13.009  0.00  0.00    -0.002 C 
BRANCH  18  21
ATOM     21  O   LIG    1       20.156 -26.783  12.488  0.00  0.00    -0.385 OA
ATOM     22  H   LIG    1       19.929 -26.031  13.073  0.00  0.00    +0.210 HD
ENDBRANCH  18  21
BRANCH  17  23
ATOM     23  O   LIG    1       19.133 -29.939  13.011  0.00  0.00    -0.386 OA
ATOM     24  H   LIG    1       19.359 -30.904  12.911  0.00  0.00    +0.210 HD
ENDBRANCH  17  23
BRANCH  16  25
ATOM     25  O   LIG    1       20.960 -31.641  12.718  0.00  0.00    -0.387 OA
ATOM     26  H   LIG    1       21.787 -32.162  12.669  0.00  0.00    +0.210 HD
ENDBRANCH  16  25
BRANCH  19  27
ATOM     27  C   LIG    1       22.411 -26.226  13.832  0.00  0.00    +0.189 C 
BRANCH  27  28
ATOM     28  O   LIG    1       23.766 -25.942  13.531  0.00  0.00    -0.391 OA
ATOM     29  H   LIG    1       24.293 -26.273  14.283  0.00  0.00    +0.210 HD
ENDBRANCH  27  28
ENDBRANCH  19  27
ENDBRANCH  13  15
ENDBRANCH   4  13
ENDBRANCH   1   7
BRANCH   1  30
ATOM     30  C   LIG    1       25.785 -27.362   6.971  0.00  0.00    +0.183 C 
ATOM     31  C   LIG    1       26.851 -26.640   6.110  0.00  0.00    +0.178 C 
ATOM     32  O   LIG    1       26.812 -25.184   6.144  0.00  0.00    -0.341 OA
ATOM     33  C   LIG    1       25.560 -24.462   6.385  0.00  0.00    +0.282 C 
ATOM     34  C   LIG    1       24.410 -25.381   5.990  0.00  0.00    +0.201 C 
ATOM     35  C   LIG    1       24.375 -26.757   6.710  0.00  0.00    +0.179 C 
BRANCH  35  36
ATOM     36  O   LIG    1       23.702 -27.623   5.737  0.00  0.00    -0.386 OA
ATOM     37  H   LIG    1       22.741 -27.470   5.819  0.00  0.00    +0.210 HD
ENDBRANCH  35  36
BRANCH  34  38
ATOM     38  O   LIG    1       23.161 -24.725   5.830  0.00  0.00    -0.384 OA
ATOM     39  H   LIG    1       23.074 -24.120   6.594  0.00  0.00    +0.210 HD
ENDBRANCH  34  38
BRANCH  31  40
ATOM     40  C   LIG    1       26.951 -27.238   4.649  0.00  0.00    +0.190 C 
BRANCH  40  41
ATOM     41  O   LIG    1       28.261 -27.493   4.155  0.00  0.00    -0.392 OA
ATOM     42  H   LIG    1       28.909 -26.982   4.678  0.00  0.00    +0.209 HD
ENDBRANCH  40  41
ENDBRANCH  31  40
BRANCH  33  43
ATOM     43  O   LIG    1       25.563 -23.802   7.658  0.00  0.00    -0.340 OA
BRANCH  43  44
ATOM     44  C   LIG    1       25.450 -22.373   7.921  0.00  0.00    +0.183 C 
BRANCH  44  45
ATOM     45  C   LIG    1       24.214 -21.638   7.295  0.00  0.00    +0.181 C 
BRANCH  45  46
ATOM     46  O   LIG    1       22.936 -22.238   7.285  0.00  0.00    -0.386 OA
ATOM     47  H   LIG    1       22.448 -21.885   8.045  0.00  0.00    +0.210 HD
ENDBRANCH  45  46
BRANCH  45  48
ATOM     48  C   LIG    1       24.337 -21.330   5.764  0.00  0.00    +0.208 C 
BRANCH  48  49
ATOM     49  O   LIG    1       23.314 -22.018   5.090  0.00  0.00    -0.382 OA
ATOM     50  H   LIG    1       23.096 -22.827   5.590  0.00  0.00    +0.210 HD
ENDBRANCH  48  49
BRANCH  48  51
ATOM     51  C   LIG    1       24.706 -20.156   5.046  0.00  0.00    +0.257 C 
ATOM     52  O   LIG    1       25.723 -20.032   4.253  0.00  0.00    -0.298 OA
ENDBRANCH  48  51
ENDBRANCH  45  48
ENDBRANCH  44  45
BRANCH  44  53
ATOM     53  C   LIG    1       26.590 -21.323   8.045  0.00  0.00    +0.171 C 
BRANCH  53  54
ATOM     54  O   LIG    1       26.593 -20.400   9.142  0.00  0.00    -0.387 OA
ATOM     55  H   LIG    1       25.881 -19.758   9.085  0.00  0.00    +0.210 HD
ENDBRANCH  53  54
BRANCH  53  56
ATOM     56  C   LIG    1       27.910 -21.500   7.298  0.00  0.00    +0.190 C 
BRANCH  56  57
ATOM     57  O   LIG    1       27.962 -20.743   6.110  0.00  0.00    -0.392 OA
ATOM     58  H   LIG    1       27.205 -20.129   6.146  0.00  0.00    +0.209 HD
ENDBRANCH  56  57
ENDBRANCH  53  56
ENDBRANCH  44  53
ENDBRANCH  43  44
ENDBRANCH  33  43
ENDBRANCH   1  30
TORSDOF 26
ENDMDL
