MODEL 1
REMARK VINA RESULT:      -5.1      0.000      0.000
REMARK  Name = *****
REMARK                            x       y       z     vdW  Elec       q    Type
REMARK                         _______ _______ _______ _____ _____    ______ ____
ROOT
ATOM      1  C   LIG    1       27.251 -21.546   7.062  0.00  0.00    +0.069 C 
ATOM      2  C   LIG    1       25.961 -21.145   6.409  0.00  0.00    +0.080 A 
ATOM      3  C   LIG    1       25.955 -20.410   5.227  0.00  0.00    +0.148 A 
ATOM      4  C   LIG    1       24.720 -20.070   4.651  0.00  0.00    +0.064 A 
ATOM      5  C   LIG    1       23.524 -20.465   5.270  0.00  0.00    +0.010 A 
ATOM      6  C   LIG    1       23.646 -21.186   6.453  0.00  0.00    +0.117 A 
ATOM      7  N   LIG    1       24.818 -21.535   7.026  0.00  0.00    -0.256 NA
ENDROOT
BRANCH   3   8
ATOM      8  O   LIG    1       27.158 -20.059   4.671  0.00  0.00    -0.504 OA
ATOM      9  H   LIG    1       27.525 -19.303   5.184  0.00  0.00    +0.292 HD
ENDBRANCH   3   8
BRANCH   4  10
ATOM     10  C   LIG    1       24.700 -19.304   3.383  0.00  0.00    +0.262 C 
ATOM     11  O   LIG    1       25.304 -18.237   3.284  0.00  0.00    -0.296 OA
ENDBRANCH   4  10
BRANCH   5  12
ATOM     12  C   LIG    1       22.157 -20.176   4.731  0.00  0.00    +0.193 C 
BRANCH  12  13
ATOM     13  O   LIG    1       21.383 -21.362   4.766  0.00  0.00    -0.390 OA
ATOM     14  H   LIG    1       21.103 -21.551   3.852  0.00  0.00    +0.210 HD
ENDBRANCH  12  13
ENDBRANCH   5  12
TORSDOF 4
ENDMDL
MODEL 2
REMARK VINA RESULT:      -4.7      1.107      1.188
REMARK  Name = *****
REMARK                            x       y       z     vdW  Elec       q    Type
REMARK                         _______ _______ _______ _____ _____    ______ ____
ROOT
ATOM      1  C   LIG    1       28.473 -20.764   7.056  0.00  0.00    +0.069 C 
ATOM      2  C   LIG    1       27.107 -20.736   6.436  0.00  0.00    +0.080 A 
ATOM      3  C   LIG    1       26.848 -19.960   5.310  0.00  0.00    +0.148 A 
ATOM      4  C   LIG    1       25.556 -19.978   4.761  0.00  0.00    +0.064 A 
ATOM      5  C   LIG    1       24.553 -20.763   5.351  0.00  0.00    +0.010 A 
ATOM      6  C   LIG    1       24.918 -21.491   6.479  0.00  0.00    +0.117 A 
ATOM      7  N   LIG    1       26.154 -21.500   7.023  0.00  0.00    -0.256 NA
ENDROOT
BRANCH   3   8
ATOM      8  O   LIG    1       27.872 -19.218   4.780  0.00  0.00    -0.504 OA
ATOM      9  H   LIG    1       27.596 -18.273   4.774  0.00  0.00    +0.292 HD
ENDBRANCH   3   8
BRANCH   4  10
ATOM     10  C   LIG    1       25.271 -19.170   3.553  0.00  0.00    +0.262 C 
ATOM     11  O   LIG    1       25.773 -18.056   3.409  0.00  0.00    -0.296 OA
ENDBRANCH   4  10
BRANCH   5  12
ATOM     12  C   LIG    1       23.152 -20.873   4.836  0.00  0.00    +0.193 C 
BRANCH  12  13
ATOM     13  O   LIG    1       22.350 -19.880   5.453  0.00  0.00    -0.390 OA
ATOM     14  H   LIG    1       21.879 -19.408   4.744  0.00  0.00    +0.210 HD
ENDBRANCH  12  13
ENDBRANCH   5  12
TORSDOF 4
ENDMDL
MODEL 3
REMARK VINA RESULT:      -4.2      1.403      3.664
REMARK  Name = *****
REMARK                            x       y       z     vdW  Elec       q    Type
REMARK                         _______ _______ _______ _____ _____    ______ ____
ROOT
ATOM      1  C   LIG    1       22.419 -21.161   5.501  0.00  0.00    +0.069 C 
ATOM      2  C   LIG    1       23.862 -20.754   5.429  0.00  0.00    +0.080 A 
ATOM      3  C   LIG    1       24.317 -19.908   4.422  0.00  0.00    +0.148 A 
ATOM      4  C   LIG    1       25.675 -19.548   4.407  0.00  0.00    +0.064 A 
ATOM      5  C   LIG    1       26.544 -20.044   5.391  0.00  0.00    +0.010 A 
ATOM      6  C   LIG    1       25.985 -20.891   6.343  0.00  0.00    +0.117 A 
ATOM      7  N   LIG    1       24.683 -21.247   6.388  0.00  0.00    -0.256 NA
ENDROOT
BRANCH   3   8
ATOM      8  O   LIG    1       23.417 -19.455   3.493  0.00  0.00    -0.504 OA
ATOM      9  H   LIG    1       23.917 -19.144   2.704  0.00  0.00    +0.292 HD
ENDBRANCH   3   8
BRANCH   4  10
ATOM     10  C   LIG    1       26.170 -18.635   3.351  0.00  0.00    +0.262 C 
ATOM     11  O   LIG    1       25.710 -17.500   3.235  0.00  0.00    -0.296 OA
ENDBRANCH   4  10
BRANCH   5  12
ATOM     12  C   LIG    1       28.000 -19.708   5.481  0.00  0.00    +0.193 C 
BRANCH  12  13
ATOM     13  O   LIG    1       28.687 -20.780   6.104  0.00  0.00    -0.390 OA
ATOM     14  H   LIG    1       29.626 -20.704   5.854  0.00  0.00    +0.210 HD
ENDBRANCH  12  13
ENDBRANCH   5  12
TORSDOF 4
ENDMDL
MODEL 4
REMARK VINA RESULT:      -4.2      1.864      3.134
REMARK  Name = *****
REMARK                            x       y       z     vdW  Elec       q    Type
REMARK                         _______ _______ _______ _____ _____    ______ ____
ROOT
ATOM      1  C   LIG    1       26.216 -17.466   3.271  0.00  0.00    +0.069 C 
ATOM      2  C   LIG    1       25.372 -18.534   3.904  0.00  0.00    +0.080 A 
ATOM      3  C   LIG    1       25.949 -19.538   4.676  0.00  0.00    +0.148 A 
ATOM      4  C   LIG    1       25.113 -20.507   5.256  0.00  0.00    +0.064 A 
ATOM      5  C   LIG    1       23.727 -20.454   5.046  0.00  0.00    +0.010 A 
ATOM      6  C   LIG    1       23.258 -19.415   4.249  0.00  0.00    +0.117 A 
ATOM      7  N   LIG    1       24.036 -18.465   3.687  0.00  0.00    -0.256 NA
ENDROOT
BRANCH   3   8
ATOM      8  O   LIG    1       27.309 -19.532   4.845  0.00  0.00    -0.504 OA
ATOM      9  H   LIG    1       27.500 -19.363   5.796  0.00  0.00    +0.292 HD
ENDBRANCH   3   8
BRANCH   4  10
ATOM     10  C   LIG    1       25.712 -21.571   6.094  0.00  0.00    +0.262 C 
ATOM     11  O   LIG    1       26.505 -21.293   6.991  0.00  0.00    -0.296 OA
ENDBRANCH   4  10
BRANCH   5  12
ATOM     12  C   LIG    1       22.745 -21.420   5.633  0.00  0.00    +0.193 C 
BRANCH  12  13
ATOM     13  O   LIG    1       21.595 -21.476   4.806  0.00  0.00    -0.390 OA
ATOM     14  H   LIG    1       20.853 -21.108   5.317  0.00  0.00    +0.210 HD
ENDBRANCH  12  13
ENDBRANCH   5  12
TORSDOF 4
ENDMDL
MODEL 5
REMARK VINA RESULT:      -3.5      2.077      3.675
REMARK  Name = *****
REMARK                            x       y       z     vdW  Elec       q    Type
REMARK                         _______ _______ _______ _____ _____    ______ ____
ROOT
ATOM      1  C   LIG    1       22.700 -21.572   6.373  0.00  0.00    +0.069 C 
ATOM      2  C   LIG    1       23.618 -20.751   5.515  0.00  0.00    +0.080 A 
ATOM      3  C   LIG    1       24.972 -20.637   5.821  0.00  0.00    +0.148 A 
ATOM      4  C   LIG    1       25.790 -19.866   4.979  0.00  0.00    +0.064 A 
ATOM      5  C   LIG    1       25.239 -19.226   3.858  0.00  0.00    +0.010 A 
ATOM      6  C   LIG    1       23.874 -19.399   3.653  0.00  0.00    +0.117 A 
ATOM      7  N   LIG    1       23.064 -20.140   4.439  0.00  0.00    -0.256 NA
ENDROOT
BRANCH   3   8
ATOM      8  O   LIG    1       25.448 -21.290   6.928  0.00  0.00    -0.504 OA
ATOM      9  H   LIG    1       25.782 -20.617   7.563  0.00  0.00    +0.292 HD
ENDBRANCH   3   8
BRANCH   4  10
ATOM     10  C   LIG    1       27.235 -19.750   5.283  0.00  0.00    +0.262 C 
ATOM     11  O   LIG    1       27.787 -20.556   6.030  0.00  0.00    -0.296 OA
ENDBRANCH   4  10
BRANCH   5  12
ATOM     12  C   LIG    1       26.023 -18.401   2.885  0.00  0.00    +0.193 C 
BRANCH  12  13
ATOM     13  O   LIG    1       26.008 -17.047   3.304  0.00  0.00    -0.390 OA
ATOM     14  H   LIG    1       25.224 -16.929   3.870  0.00  0.00    +0.210 HD
ENDBRANCH  12  13
ENDBRANCH   5  12
TORSDOF 4
ENDMDL
MODEL 6
REMARK VINA RESULT:      -3.4      2.111      2.989
REMARK  Name = *****
REMARK                            x       y       z     vdW  Elec       q    Type
REMARK                         _______ _______ _______ _____ _____    ______ ____
ROOT
ATOM      1  C   LIG    1       28.288 -20.400   6.132  0.00  0.00    +0.069 C 
ATOM      2  C   LIG    1       26.955 -20.127   5.499  0.00  0.00    +0.080 A 
ATOM      3  C   LIG    1       25.795 -20.724   5.985  0.00  0.00    +0.148 A 
ATOM      4  C   LIG    1       24.572 -20.425   5.365  0.00  0.00    +0.064 A 
ATOM      5  C   LIG    1       24.535 -19.545   4.272  0.00  0.00    +0.010 A 
ATOM      6  C   LIG    1       25.753 -19.014   3.862  0.00  0.00    +0.117 A 
ATOM      7  N   LIG    1       26.943 -19.275   4.444  0.00  0.00    -0.256 NA
ENDROOT
BRANCH   3   8
ATOM      8  O   LIG    1       25.898 -21.572   7.058  0.00  0.00    -0.504 OA
ATOM      9  H   LIG    1       26.342 -21.088   7.791  0.00  0.00    +0.292 HD
ENDBRANCH   3   8
BRANCH   4  10
ATOM     10  C   LIG    1       23.328 -21.040   5.883  0.00  0.00    +0.262 C 
ATOM     11  O   LIG    1       23.295 -21.541   7.006  0.00  0.00    -0.296 OA
ENDBRANCH   4  10
BRANCH   5  12
ATOM     12  C   LIG    1       23.285 -19.141   3.553  0.00  0.00    +0.193 C 
BRANCH  12  13
ATOM     13  O   LIG    1       22.566 -18.217   4.352  0.00  0.00    -0.390 OA
ATOM     14  H   LIG    1       22.607 -17.354   3.903  0.00  0.00    +0.210 HD
ENDBRANCH  12  13
ENDBRANCH   5  12
TORSDOF 4
ENDMDL
MODEL 7
REMARK VINA RESULT:      -3.4      4.389      5.827
REMARK  Name = *****
REMARK                            x       y       z     vdW  Elec       q    Type
REMARK                         _______ _______ _______ _____ _____    ______ ____
ROOT
ATOM      1  C   LIG    1       24.014 -18.777   3.789  0.00  0.00    +0.069 C 
ATOM      2  C   LIG    1       24.140 -17.283   3.860  0.00  0.00    +0.080 A 
ATOM      3  C   LIG    1       25.310 -16.643   3.461  0.00  0.00    +0.148 A 
ATOM      4  C   LIG    1       25.371 -15.242   3.536  0.00  0.00    +0.064 A 
ATOM      5  C   LIG    1       24.269 -14.515   4.012  0.00  0.00    +0.010 A 
ATOM      6  C   LIG    1       23.155 -15.256   4.394  0.00  0.00    +0.117 A 
ATOM      7  N   LIG    1       23.064 -16.601   4.325  0.00  0.00    -0.256 NA
ENDROOT
BRANCH   3   8
ATOM      8  O   LIG    1       26.349 -17.410   3.002  0.00  0.00    -0.504 OA
ATOM      9  H   LIG    1       26.927 -17.635   3.766  0.00  0.00    +0.292 HD
ENDBRANCH   3   8
BRANCH   4  10
ATOM     10  C   LIG    1       26.604 -14.547   3.098  0.00  0.00    +0.262 C 
ATOM     11  O   LIG    1       26.849 -14.394   1.903  0.00  0.00    -0.296 OA
ENDBRANCH   4  10
BRANCH   5  12
ATOM     12  C   LIG    1       24.219 -13.022   4.112  0.00  0.00    +0.193 C 
BRANCH  12  13
ATOM     13  O   LIG    1       23.712 -12.491   2.900  0.00  0.00    -0.390 OA
ATOM     14  H   LIG    1       23.474 -13.245   2.332  0.00  0.00    +0.210 HD
ENDBRANCH  12  13
ENDBRANCH   5  12
TORSDOF 4
ENDMDL
MODEL 8
REMARK VINA RESULT:      -3.1      5.644      6.898
REMARK  Name = *****
REMARK                            x       y       z     vdW  Elec       q    Type
REMARK                         _______ _______ _______ _____ _____    ______ ____
ROOT
ATOM      1  C   LIG    1       25.976 -17.450   3.219  0.00  0.00    +0.069 C 
ATOM      2  C   LIG    1       25.665 -16.045   3.644  0.00  0.00    +0.080 A 
ATOM      3  C   LIG    1       26.681 -15.161   3.993  0.00  0.00    +0.148 A 
ATOM      4  C   LIG    1       26.337 -13.853   4.371  0.00  0.00    +0.064 A 
ATOM      5  C   LIG    1       24.990 -13.461   4.397  0.00  0.00    +0.010 A 
ATOM      6  C   LIG    1       24.055 -14.427   4.039  0.00  0.00    +0.117 A 
ATOM      7  N   LIG    1       24.357 -15.689   3.663  0.00  0.00    -0.256 NA
ENDROOT
BRANCH   3   8
ATOM      8  O   LIG    1       27.978 -15.604   3.943  0.00  0.00    -0.504 OA
ATOM      9  H   LIG    1       28.110 -16.073   3.087  0.00  0.00    +0.292 HD
ENDBRANCH   3   8
BRANCH   4  10
ATOM     10  C   LIG    1       27.411 -12.897   4.729  0.00  0.00    +0.262 C 
ATOM     11  O   LIG    1       28.471 -12.881   4.107  0.00  0.00    -0.296 OA
ENDBRANCH   4  10
BRANCH   5  12
ATOM     12  C   LIG    1       24.514 -12.089   4.762  0.00  0.00    +0.193 C 
BRANCH  12  13
ATOM     13  O   LIG    1       23.712 -11.579   3.711  0.00  0.00    -0.390 OA
ATOM     14  H   LIG    1       23.374 -12.343   3.210  0.00  0.00    +0.210 HD
ENDBRANCH  12  13
ENDBRANCH   5  12
TORSDOF 4
ENDMDL
MODEL 9
REMARK VINA RESULT:      -3.1      5.329      7.180
REMARK  Name = *****
REMARK                            x       y       z     vdW  Elec       q    Type
REMARK                         _______ _______ _______ _____ _____    ______ ____
ROOT
ATOM      1  C   LIG    1       24.376 -17.658   3.668  0.00  0.00    +0.069 C 
ATOM      2  C   LIG    1       25.129 -16.360   3.673  0.00  0.00    +0.080 A 
ATOM      3  C   LIG    1       24.495 -15.166   4.007  0.00  0.00    +0.148 A 
ATOM      4  C   LIG    1       25.248 -13.981   4.008  0.00  0.00    +0.064 A 
ATOM      5  C   LIG    1       26.610 -14.014   3.671  0.00  0.00    +0.010 A 
ATOM      6  C   LIG    1       27.139 -15.258   3.344  0.00  0.00    +0.117 A 
ATOM      7  N   LIG    1       26.443 -16.415   3.343  0.00  0.00    -0.256 NA
ENDROOT
BRANCH   3   8
ATOM      8  O   LIG    1       23.163 -15.202   4.330  0.00  0.00    -0.504 OA
ATOM      9  H   LIG    1       22.987 -14.492   4.988  0.00  0.00    +0.292 HD
ENDBRANCH   3   8
BRANCH   4  10
ATOM     10  C   LIG    1       24.590 -12.706   4.378  0.00  0.00    +0.262 C 
ATOM     11  O   LIG    1       23.728 -12.211   3.655  0.00  0.00    -0.296 OA
ENDBRANCH   4  10
BRANCH   5  12
ATOM     12  C   LIG    1       27.509 -12.816   3.663  0.00  0.00    +0.193 C 
BRANCH  12  13
ATOM     13  O   LIG    1       28.832 -13.229   3.367  0.00  0.00    -0.390 OA
ATOM     14  H   LIG    1       29.201 -13.618   4.180  0.00  0.00    +0.210 HD
ENDBRANCH  12  13
ENDBRANCH   5  12
TORSDOF 4
ENDMDL
