MODEL 1
REMARK VINA RESULT:      -8.7      0.000      0.000
REMARK  Name = *****
REMARK                            x       y       z     vdW  Elec       q    Type
REMARK                         _______ _______ _______ _____ _____    ______ ____
ROOT
ATOM      1  O   LIG    1       28.056 -20.005   5.760  0.00  0.00    -0.489 OA
ENDROOT
BRANCH   1   2
ATOM      2  C   LIG    1       26.939 -20.327   6.503  0.00  0.00    +0.128 A 
ATOM      3  C   LIG    1       25.680 -20.367   5.833  0.00  0.00    +0.024 A 
ATOM      4  C   LIG    1       24.519 -20.694   6.568  0.00  0.00    -0.014 A 
ATOM      5  C   LIG    1       23.266 -20.786   5.932  0.00  0.00    +0.008 A 
ATOM      6  C   LIG    1       23.148 -20.544   4.565  0.00  0.00    +0.001 A 
ATOM      7  C   LIG    1       24.272 -20.197   3.827  0.00  0.00    +0.001 A 
ATOM      8  C   LIG    1       24.602 -20.934   7.949  0.00  0.00    +0.009 A 
ATOM      9  C   LIG    1       25.831 -20.867   8.598  0.00  0.00    +0.004 A 
ATOM     10  C   LIG    1       25.526 -20.109   4.449  0.00  0.00    +0.012 A 
ATOM     11  C   LIG    1       26.988 -20.575   7.883  0.00  0.00    +0.046 A 
ENDBRANCH   1   2
BRANCH   1  12
ATOM     12  C   LIG    1       29.327 -20.278   6.371  0.00  0.00    +0.261 C 
BRANCH  12  13
ATOM     13  C   LIG    1       30.222 -19.029   6.363  0.00  0.00    +0.166 C 
BRANCH  13  14
ATOM     14  O   LIG    1       29.702 -18.078   5.423  0.00  0.00    -0.387 OA
ATOM     15  H   LIG    1       28.764 -17.956   5.671  0.00  0.00    +0.210 HD
ENDBRANCH  13  14
BRANCH  13  16
ATOM     16  C   LIG    1       30.321 -18.387   7.763  0.00  0.00    +0.115 C 
BRANCH  16  17
ATOM     17  N   LIG    1       31.685 -17.954   8.146  0.00  0.00    -0.311 NA
ATOM     18  H   LIG    1       31.967 -17.212   7.501  0.00  0.00    +0.122 HD
BRANCH  17  20
ATOM     19  C   LIG    1       32.448 -16.073   9.538  0.00  0.00    +0.024 C 
ATOM     20  C   LIG    1       31.796 -17.459   9.526  0.00  0.00    +0.048 C 
ATOM     21  C   LIG    1       30.448 -17.382  10.245  0.00  0.00    +0.024 C 
ENDBRANCH  17  20
ENDBRANCH  16  17
ENDBRANCH  13  16
ENDBRANCH  12  13
ENDBRANCH   1  12
TORSDOF 7
ENDMDL
MODEL 2
REMARK VINA RESULT:      -8.5      2.530      3.225
REMARK  Name = *****
REMARK                            x       y       z     vdW  Elec       q    Type
REMARK                         _______ _______ _______ _____ _____    ______ ____
ROOT
ATOM      1  O   LIG    1       27.205 -21.742   7.498  0.00  0.00    -0.489 OA
ENDROOT
BRANCH   1   2
ATOM      2  C   LIG    1       25.836 -21.844   7.366  0.00  0.00    +0.128 A 
ATOM      3  C   LIG    1       25.293 -23.110   6.994  0.00  0.00    +0.024 A 
ATOM      4  C   LIG    1       23.894 -23.244   6.850  0.00  0.00    -0.014 A 
ATOM      5  C   LIG    1       23.319 -24.489   6.528  0.00  0.00    +0.008 A 
ATOM      6  C   LIG    1       24.123 -25.609   6.332  0.00  0.00    +0.001 A 
ATOM      7  C   LIG    1       25.503 -25.495   6.444  0.00  0.00    +0.001 A 
ATOM      8  C   LIG    1       23.056 -22.132   7.031  0.00  0.00    +0.009 A 
ATOM      9  C   LIG    1       23.598 -20.895   7.367  0.00  0.00    +0.004 A 
ATOM     10  C   LIG    1       26.086 -24.262   6.772  0.00  0.00    +0.012 A 
ATOM     11  C   LIG    1       24.971 -20.753   7.541  0.00  0.00    +0.046 A 
ENDBRANCH   1   2
BRANCH   1  12
ATOM     12  C   LIG    1       27.755 -20.417   7.418  0.00  0.00    +0.261 C 
BRANCH  12  13
ATOM     13  C   LIG    1       28.601 -20.247   6.147  0.00  0.00    +0.166 C 
BRANCH  13  14
ATOM     14  O   LIG    1       27.736 -19.985   5.033  0.00  0.00    -0.387 OA
ATOM     15  H   LIG    1       27.471 -20.865   4.698  0.00  0.00    +0.210 HD
ENDBRANCH  13  14
BRANCH  13  16
ATOM     16  C   LIG    1       29.632 -19.108   6.294  0.00  0.00    +0.115 C 
BRANCH  16  17
ATOM     17  N   LIG    1       31.000 -19.559   6.640  0.00  0.00    -0.311 NA
ATOM     18  H   LIG    1       31.657 -19.029   6.062  0.00  0.00    +0.122 HD
BRANCH  17  20
ATOM     19  C   LIG    1       30.532 -18.241   8.666  0.00  0.00    +0.024 C 
ATOM     20  C   LIG    1       31.355 -19.379   8.056  0.00  0.00    +0.048 C 
ATOM     21  C   LIG    1       31.150 -20.644   8.891  0.00  0.00    +0.024 C 
ENDBRANCH  17  20
ENDBRANCH  16  17
ENDBRANCH  13  16
ENDBRANCH  12  13
ENDBRANCH   1  12
TORSDOF 7
ENDMDL
MODEL 3
REMARK VINA RESULT:      -8.3      2.961      5.003
REMARK  Name = *****
REMARK                            x       y       z     vdW  Elec       q    Type
REMARK                         _______ _______ _______ _____ _____    ______ ____
ROOT
ATOM      1  O   LIG    1       26.937 -21.717   7.589  0.00  0.00    -0.489 OA
ENDROOT
BRANCH   1   2
ATOM      2  C   LIG    1       25.593 -21.954   7.389  0.00  0.00    +0.128 A 
ATOM      3  C   LIG    1       25.198 -23.263   6.983  0.00  0.00    +0.024 A 
ATOM      4  C   LIG    1       23.828 -23.535   6.770  0.00  0.00    -0.014 A 
ATOM      5  C   LIG    1       23.396 -24.827   6.413  0.00  0.00    +0.008 A 
ATOM      6  C   LIG    1       24.318 -25.859   6.250  0.00  0.00    +0.001 A 
ATOM      7  C   LIG    1       25.672 -25.610   6.430  0.00  0.00    +0.001 A 
ATOM      8  C   LIG    1       22.875 -22.514   6.916  0.00  0.00    +0.009 A 
ATOM      9  C   LIG    1       23.273 -21.233   7.286  0.00  0.00    +0.004 A 
ATOM     10  C   LIG    1       26.112 -24.328   6.793  0.00  0.00    +0.012 A 
ATOM     11  C   LIG    1       24.615 -20.956   7.528  0.00  0.00    +0.046 A 
ENDBRANCH   1   2
BRANCH   1  12
ATOM     12  C   LIG    1       27.324 -20.343   7.752  0.00  0.00    +0.261 C 
BRANCH  12  13
ATOM     13  C   LIG    1       28.441 -19.965   6.768  0.00  0.00    +0.166 C 
BRANCH  13  14
ATOM     14  O   LIG    1       29.245 -21.122   6.494  0.00  0.00    -0.387 OA
ATOM     15  H   LIG    1       28.949 -21.800   7.134  0.00  0.00    +0.210 HD
ENDBRANCH  13  14
BRANCH  13  16
ATOM     16  C   LIG    1       27.874 -19.394   5.451  0.00  0.00    +0.115 C 
BRANCH  16  17
ATOM     17  N   LIG    1       26.891 -20.271   4.774  0.00  0.00    -0.311 NA
ATOM     18  H   LIG    1       26.707 -21.065   5.392  0.00  0.00    +0.122 HD
BRANCH  17  20
ATOM     19  C   LIG    1       25.856 -18.458   3.469  0.00  0.00    +0.024 C 
ATOM     20  C   LIG    1       25.618 -19.612   4.448  0.00  0.00    +0.048 C 
ATOM     21  C   LIG    1       24.584 -20.567   3.850  0.00  0.00    +0.024 C 
ENDBRANCH  17  20
ENDBRANCH  16  17
ENDBRANCH  13  16
ENDBRANCH  12  13
ENDBRANCH   1  12
TORSDOF 7
ENDMDL
MODEL 4
REMARK VINA RESULT:      -7.9      1.874      2.971
REMARK  Name = *****
REMARK                            x       y       z     vdW  Elec       q    Type
REMARK                         _______ _______ _______ _____ _____    ______ ____
ROOT
ATOM      1  O   LIG    1       28.784 -20.536   8.400  0.00  0.00    -0.489 OA
ENDROOT
BRANCH   1   2
ATOM      2  C   LIG    1       28.022 -20.316   7.272  0.00  0.00    +0.128 A 
ATOM      3  C   LIG    1       26.670 -20.773   7.280  0.00  0.00    +0.024 A 
ATOM      4  C   LIG    1       25.865 -20.563   6.138  0.00  0.00    -0.014 A 
ATOM      5  C   LIG    1       24.514 -20.960   6.127  0.00  0.00    +0.008 A 
ATOM      6  C   LIG    1       23.950 -21.580   7.240  0.00  0.00    +0.001 A 
ATOM      7  C   LIG    1       24.729 -21.819   8.364  0.00  0.00    +0.001 A 
ATOM      8  C   LIG    1       26.405 -19.950   4.997  0.00  0.00    +0.009 A 
ATOM      9  C   LIG    1       27.732 -19.532   4.989  0.00  0.00    +0.004 A 
ATOM     10  C   LIG    1       26.075 -21.421   8.389  0.00  0.00    +0.012 A 
ATOM     11  C   LIG    1       28.531 -19.705   6.116  0.00  0.00    +0.046 A 
ENDBRANCH   1   2
BRANCH   1  12
ATOM     12  C   LIG    1       30.094 -21.087   8.185  0.00  0.00    +0.261 C 
BRANCH  12  13
ATOM     13  C   LIG    1       31.132 -20.413   9.096  0.00  0.00    +0.166 C 
BRANCH  13  14
ATOM     14  O   LIG    1       32.275 -21.271   9.229  0.00  0.00    -0.387 OA
ATOM     15  H   LIG    1       32.297 -21.529  10.171  0.00  0.00    +0.210 HD
ENDBRANCH  13  14
BRANCH  13  16
ATOM     16  C   LIG    1       31.565 -19.037   8.548  0.00  0.00    +0.115 C 
BRANCH  16  17
ATOM     17  N   LIG    1       30.513 -17.995   8.601  0.00  0.00    -0.311 NA
ATOM     18  H   LIG    1       29.638 -18.453   8.868  0.00  0.00    +0.122 HD
BRANCH  17  20
ATOM     19  C   LIG    1       30.454 -17.343  10.974  0.00  0.00    +0.024 C 
ATOM     20  C   LIG    1       30.792 -16.904   9.547  0.00  0.00    +0.048 C 
ATOM     21  C   LIG    1       32.244 -16.429   9.502  0.00  0.00    +0.024 C 
ENDBRANCH  17  20
ENDBRANCH  16  17
ENDBRANCH  13  16
ENDBRANCH  12  13
ENDBRANCH   1  12
TORSDOF 7
ENDMDL
MODEL 5
REMARK VINA RESULT:      -7.8      6.289      8.727
REMARK  Name = *****
REMARK                            x       y       z     vdW  Elec       q    Type
REMARK                         _______ _______ _______ _____ _____    ______ ____
ROOT
ATOM      1  O   LIG    1       26.145 -25.137   6.394  0.00  0.00    -0.489 OA
ENDROOT
BRANCH   1   2
ATOM      2  C   LIG    1       25.139 -24.227   6.645  0.00  0.00    +0.128 A 
ATOM      3  C   LIG    1       25.509 -22.949   7.159  0.00  0.00    +0.024 A 
ATOM      4  C   LIG    1       24.500 -21.996   7.426  0.00  0.00    -0.014 A 
ATOM      5  C   LIG    1       24.830 -20.709   7.892  0.00  0.00    +0.008 A 
ATOM      6  C   LIG    1       26.160 -20.356   8.109  0.00  0.00    +0.001 A 
ATOM      7  C   LIG    1       27.166 -21.283   7.876  0.00  0.00    +0.001 A 
ATOM      8  C   LIG    1       23.149 -22.324   7.227  0.00  0.00    +0.009 A 
ATOM      9  C   LIG    1       22.798 -23.583   6.751  0.00  0.00    +0.004 A 
ATOM     10  C   LIG    1       26.850 -22.567   7.405  0.00  0.00    +0.012 A 
ATOM     11  C   LIG    1       23.781 -24.523   6.455  0.00  0.00    +0.046 A 
ENDBRANCH   1   2
BRANCH   1  12
ATOM     12  C   LIG    1       25.789 -26.525   6.499  0.00  0.00    +0.261 C 
BRANCH  12  13
ATOM     13  C   LIG    1       25.855 -27.217   5.129  0.00  0.00    +0.166 C 
BRANCH  13  14
ATOM     14  O   LIG    1       27.229 -27.433   4.773  0.00  0.00    -0.387 OA
ATOM     15  H   LIG    1       27.205 -27.841   3.885  0.00  0.00    +0.210 HD
ENDBRANCH  13  14
BRANCH  13  16
ATOM     16  C   LIG    1       25.093 -28.558   5.128  0.00  0.00    +0.115 C 
BRANCH  16  17
ATOM     17  N   LIG    1       25.803 -29.669   5.803  0.00  0.00    -0.311 NA
ATOM     18  H   LIG    1       26.545 -29.260   6.375  0.00  0.00    +0.122 HD
BRANCH  17  20
ATOM     19  C   LIG    1       25.731 -31.711   7.177  0.00  0.00    +0.024 C 
ATOM     20  C   LIG    1       24.944 -30.504   6.657  0.00  0.00    +0.048 C 
ATOM     21  C   LIG    1       24.359 -29.741   7.846  0.00  0.00    +0.024 C 
ENDBRANCH  17  20
ENDBRANCH  16  17
ENDBRANCH  13  16
ENDBRANCH  12  13
ENDBRANCH   1  12
TORSDOF 7
ENDMDL
MODEL 6
REMARK VINA RESULT:      -7.5      2.273      3.072
REMARK  Name = *****
REMARK                            x       y       z     vdW  Elec       q    Type
REMARK                         _______ _______ _______ _____ _____    ______ ____
ROOT
ATOM      1  O   LIG    1       26.532 -22.285   6.227  0.00  0.00    -0.489 OA
ENDROOT
BRANCH   1   2
ATOM      2  C   LIG    1       25.169 -22.085   6.171  0.00  0.00    +0.128 A 
ATOM      3  C   LIG    1       24.683 -21.017   5.359  0.00  0.00    +0.024 A 
ATOM      4  C   LIG    1       23.291 -20.787   5.283  0.00  0.00    -0.014 A 
ATOM      5  C   LIG    1       22.773 -19.772   4.456  0.00  0.00    +0.008 A 
ATOM      6  C   LIG    1       23.627 -18.967   3.706  0.00  0.00    +0.001 A 
ATOM      7  C   LIG    1       25.000 -19.159   3.784  0.00  0.00    +0.001 A 
ATOM      8  C   LIG    1       22.404 -21.575   6.034  0.00  0.00    +0.009 A 
ATOM      9  C   LIG    1       22.890 -22.596   6.845  0.00  0.00    +0.004 A 
ATOM     10  C   LIG    1       25.527 -20.172   4.599  0.00  0.00    +0.012 A 
ATOM     11  C   LIG    1       24.255 -22.855   6.908  0.00  0.00    +0.046 A 
ENDBRANCH   1   2
BRANCH   1  12
ATOM     12  C   LIG    1       27.172 -21.972   7.475  0.00  0.00    +0.261 C 
BRANCH  12  13
ATOM     13  C   LIG    1       27.104 -20.465   7.766  0.00  0.00    +0.166 C 
BRANCH  13  14
ATOM     14  O   LIG    1       26.728 -20.263   9.137  0.00  0.00    -0.387 OA
ATOM     15  H   LIG    1       25.907 -19.733   9.105  0.00  0.00    +0.210 HD
ENDBRANCH  13  14
BRANCH  13  16
ATOM     16  C   LIG    1       28.449 -19.766   7.479  0.00  0.00    +0.115 C 
BRANCH  16  17
ATOM     17  N   LIG    1       29.245 -19.445   8.688  0.00  0.00    -0.311 NA
ATOM     18  H   LIG    1       28.856 -19.983   9.466  0.00  0.00    +0.122 HD
BRANCH  17  20
ATOM     19  C   LIG    1       30.924 -21.241   8.793  0.00  0.00    +0.024 C 
ATOM     20  C   LIG    1       30.678 -19.747   8.563  0.00  0.00    +0.048 C 
ATOM     21  C   LIG    1       31.260 -19.349   7.206  0.00  0.00    +0.024 C 
ENDBRANCH  17  20
ENDBRANCH  16  17
ENDBRANCH  13  16
ENDBRANCH  12  13
ENDBRANCH   1  12
TORSDOF 7
ENDMDL
MODEL 7
REMARK VINA RESULT:      -7.3      1.339      2.600
REMARK  Name = *****
REMARK                            x       y       z     vdW  Elec       q    Type
REMARK                         _______ _______ _______ _____ _____    ______ ____
ROOT
ATOM      1  O   LIG    1       27.605 -20.655   6.640  0.00  0.00    -0.489 OA
ENDROOT
BRANCH   1   2
ATOM      2  C   LIG    1       26.546 -20.353   5.809  0.00  0.00    +0.128 A 
ATOM      3  C   LIG    1       25.283 -20.951   6.094  0.00  0.00    +0.024 A 
ATOM      4  C   LIG    1       24.180 -20.661   5.259  0.00  0.00    -0.014 A 
ATOM      5  C   LIG    1       22.907 -21.197   5.535  0.00  0.00    +0.008 A 
ATOM      6  C   LIG    1       22.717 -22.036   6.631  0.00  0.00    +0.001 A 
ATOM      7  C   LIG    1       23.791 -22.355   7.450  0.00  0.00    +0.001 A 
ATOM      8  C   LIG    1       24.341 -19.827   4.142  0.00  0.00    +0.009 A 
ATOM      9  C   LIG    1       25.584 -19.270   3.858  0.00  0.00    +0.004 A 
ATOM     10  C   LIG    1       25.062 -21.821   7.189  0.00  0.00    +0.012 A 
ATOM     11  C   LIG    1       26.673 -19.522   4.686  0.00  0.00    +0.046 A 
ENDBRANCH   1   2
BRANCH   1  12
ATOM     12  C   LIG    1       28.860 -20.030   6.325  0.00  0.00    +0.261 C 
BRANCH  12  13
ATOM     13  C   LIG    1       29.820 -20.087   7.522  0.00  0.00    +0.166 C 
BRANCH  13  14
ATOM     14  O   LIG    1       30.155 -21.456   7.798  0.00  0.00    -0.387 OA
ATOM     15  H   LIG    1       29.339 -21.854   8.160  0.00  0.00    +0.210 HD
ENDBRANCH  13  14
BRANCH  13  16
ATOM     16  C   LIG    1       31.105 -19.272   7.265  0.00  0.00    +0.115 C 
BRANCH  16  17
ATOM     17  N   LIG    1       31.785 -18.793   8.491  0.00  0.00    -0.311 NA
ATOM     18  H   LIG    1       32.784 -18.727   8.285  0.00  0.00    +0.122 HD
BRANCH  17  20
ATOM     19  C   LIG    1       30.393 -17.683  10.191  0.00  0.00    +0.024 C 
ATOM     20  C   LIG    1       31.307 -17.490   8.977  0.00  0.00    +0.048 C 
ATOM     21  C   LIG    1       32.443 -16.538   9.354  0.00  0.00    +0.024 C 
ENDBRANCH  17  20
ENDBRANCH  16  17
ENDBRANCH  13  16
ENDBRANCH  12  13
ENDBRANCH   1  12
TORSDOF 7
ENDMDL
MODEL 8
REMARK VINA RESULT:      -7.2      4.737      7.612
REMARK  Name = *****
REMARK                            x       y       z     vdW  Elec       q    Type
REMARK                         _______ _______ _______ _____ _____    ______ ____
ROOT
ATOM      1  O   LIG    1       24.624 -23.206   7.158  0.00  0.00    -0.489 OA
ENDROOT
BRANCH   1   2
ATOM      2  C   LIG    1       24.947 -22.149   6.332  0.00  0.00    +0.128 A 
ATOM      3  C   LIG    1       26.215 -21.523   6.514  0.00  0.00    +0.024 A 
ATOM      4  C   LIG    1       26.573 -20.437   5.683  0.00  0.00    -0.014 A 
ATOM      5  C   LIG    1       27.835 -19.823   5.803  0.00  0.00    +0.008 A 
ATOM      6  C   LIG    1       28.749 -20.269   6.755  0.00  0.00    +0.001 A 
ATOM      7  C   LIG    1       28.410 -21.318   7.599  0.00  0.00    +0.001 A 
ATOM      8  C   LIG    1       25.670 -19.958   4.721  0.00  0.00    +0.009 A 
ATOM      9  C   LIG    1       24.424 -20.558   4.570  0.00  0.00    +0.004 A 
ATOM     10  C   LIG    1       27.159 -21.942   7.483  0.00  0.00    +0.012 A 
ATOM     11  C   LIG    1       24.068 -21.647   5.360  0.00  0.00    +0.046 A 
ENDBRANCH   1   2
BRANCH   1  12
ATOM     12  C   LIG    1       23.726 -24.187   6.614  0.00  0.00    +0.261 C 
BRANCH  12  13
ATOM     13  C   LIG    1       24.502 -25.343   5.964  0.00  0.00    +0.166 C 
BRANCH  13  14
ATOM     14  O   LIG    1       24.769 -25.022   4.590  0.00  0.00    -0.387 OA
ATOM     15  H   LIG    1       25.670 -25.358   4.417  0.00  0.00    +0.210 HD
ENDBRANCH  13  14
BRANCH  13  16
ATOM     16  C   LIG    1       25.824 -25.633   6.704  0.00  0.00    +0.115 C 
BRANCH  16  17
ATOM     17  N   LIG    1       26.263 -27.047   6.646  0.00  0.00    -0.311 NA
ATOM     18  H   LIG    1       27.254 -27.074   6.900  0.00  0.00    +0.122 HD
BRANCH  17  20
ATOM     19  C   LIG    1       25.026 -29.172   6.755  0.00  0.00    +0.024 C 
ATOM     20  C   LIG    1       25.515 -27.948   7.535  0.00  0.00    +0.048 C 
ATOM     21  C   LIG    1       26.334 -28.419   8.739  0.00  0.00    +0.024 C 
ENDBRANCH  17  20
ENDBRANCH  16  17
ENDBRANCH  13  16
ENDBRANCH  12  13
ENDBRANCH   1  12
TORSDOF 7
ENDMDL
MODEL 9
REMARK VINA RESULT:      -7.2      4.422      7.721
REMARK  Name = *****
REMARK                            x       y       z     vdW  Elec       q    Type
REMARK                         _______ _______ _______ _____ _____    ______ ____
ROOT
ATOM      1  O   LIG    1       25.343 -22.270   7.272  0.00  0.00    -0.489 OA
ENDROOT
BRANCH   1   2
ATOM      2  C   LIG    1       25.852 -21.334   6.396  0.00  0.00    +0.128 A 
ATOM      3  C   LIG    1       27.174 -20.852   6.629  0.00  0.00    +0.024 A 
ATOM      4  C   LIG    1       27.722 -19.892   5.748  0.00  0.00    -0.014 A 
ATOM      5  C   LIG    1       29.040 -19.427   5.920  0.00  0.00    +0.008 A 
ATOM      6  C   LIG    1       29.824 -19.897   6.971  0.00  0.00    +0.001 A 
ATOM      7  C   LIG    1       29.298 -20.822   7.863  0.00  0.00    +0.001 A 
ATOM      8  C   LIG    1       26.955 -19.392   4.684  0.00  0.00    +0.009 A 
ATOM      9  C   LIG    1       25.656 -19.848   4.482  0.00  0.00    +0.004 A 
ATOM     10  C   LIG    1       27.989 -21.298   7.698  0.00  0.00    +0.012 A 
ATOM     11  C   LIG    1       25.112 -20.815   5.323  0.00  0.00    +0.046 A 
ENDBRANCH   1   2
BRANCH   1  12
ATOM     12  C   LIG    1       23.914 -22.421   7.283  0.00  0.00    +0.261 C 
BRANCH  12  13
ATOM     13  C   LIG    1       23.508 -23.855   6.910  0.00  0.00    +0.166 C 
BRANCH  13  14
ATOM     14  O   LIG    1       22.132 -23.868   6.501  0.00  0.00    -0.387 OA
ATOM     15  H   LIG    1       21.616 -23.779   7.326  0.00  0.00    +0.210 HD
ENDBRANCH  13  14
BRANCH  13  16
ATOM     16  C   LIG    1       24.398 -24.428   5.787  0.00  0.00    +0.115 C 
BRANCH  16  17
ATOM     17  N   LIG    1       24.045 -25.803   5.365  0.00  0.00    -0.311 NA
ATOM     18  H   LIG    1       24.100 -25.837   4.344  0.00  0.00    +0.122 HD
BRANCH  17  20
ATOM     19  C   LIG    1       24.248 -28.221   5.779  0.00  0.00    +0.024 C 
ATOM     20  C   LIG    1       24.912 -26.849   5.928  0.00  0.00    +0.048 C 
ATOM     21  C   LIG    1       26.297 -26.892   5.281  0.00  0.00    +0.024 C 
ENDBRANCH  17  20
ENDBRANCH  16  17
ENDBRANCH  13  16
ENDBRANCH  12  13
ENDBRANCH   1  12
TORSDOF 7
ENDMDL
