MODEL 1
REMARK VINA RESULT:      -4.4      0.000      0.000
REMARK  Name = *****
REMARK                            x       y       z     vdW  Elec       q    Type
REMARK                         _______ _______ _______ _____ _____    ______ ____
ROOT
ATOM      1  C   LIG    1       22.410 -21.208   4.976  0.00  0.00    +0.234 A 
ATOM      2  N   LIG    1       23.205 -21.017   3.918  0.00  0.00    -0.197 NA
ATOM      3  C   LIG    1       24.505 -20.801   4.186  0.00  0.00    +0.148 A 
ATOM      4  C   LIG    1       25.003 -20.811   5.489  0.00  0.00    +0.134 A 
ATOM      5  N   LIG    1       24.156 -20.995   6.523  0.00  0.00    -0.142 NA
ATOM      6  N   LIG    1       22.838 -21.200   6.254  0.00  0.00    -0.113 NA
ENDROOT
BRANCH   4   7
ATOM      7  C   LIG    1       26.407 -20.598   5.844  0.00  0.00    +0.025 A 
ATOM      8  C   LIG    1       27.154 -19.495   5.374  0.00  0.00    +0.069 A 
ATOM      9 CL   LIG    1       26.419 -18.344   4.295  0.00  0.00    -0.081 Cl
ATOM     10  C   LIG    1       28.496 -19.343   5.760  0.00  0.00    +0.060 A 
ATOM     11 CL   LIG    1       29.475 -18.017   5.231  0.00  0.00    -0.082 Cl
ATOM     12  C   LIG    1       29.099 -20.280   6.605  0.00  0.00    +0.021 A 
ATOM     13  C   LIG    1       28.376 -21.377   7.062  0.00  0.00    +0.002 A 
ATOM     14  C   LIG    1       27.044 -21.536   6.682  0.00  0.00    +0.012 A 
ENDBRANCH   4   7
BRANCH   1  15
ATOM     15  N   LIG    1       21.073 -21.463   4.721  0.00  0.00    -0.326 N 
ATOM     16  H   LIG    1       20.512 -20.702   5.080  0.00  0.00    +0.145 HD
ATOM     17  H   LIG    1       20.945 -21.700   3.746  0.00  0.00    +0.145 HD
ENDBRANCH   1  15
BRANCH   3  18
ATOM     18  N   LIG    1       25.316 -20.589   3.064  0.00  0.00    -0.341 N 
ATOM     19  H   LIG    1       26.271 -20.462   3.396  0.00  0.00    +0.144 HD
ATOM     20  H   LIG    1       25.249 -21.348   2.393  0.00  0.00    +0.144 HD
ENDBRANCH   3  18
TORSDOF 3
ENDMDL
MODEL 2
REMARK VINA RESULT:      -3.8      5.541      7.336
REMARK  Name = *****
REMARK                            x       y       z     vdW  Elec       q    Type
REMARK                         _______ _______ _______ _____ _____    ______ ____
ROOT
ATOM      1  C   LIG    1       27.405 -13.328   3.292  0.00  0.00    +0.234 A 
ATOM      2  N   LIG    1       26.186 -12.914   2.929  0.00  0.00    -0.197 NA
ATOM      3  C   LIG    1       25.181 -13.783   3.135  0.00  0.00    +0.148 A 
ATOM      4  C   LIG    1       25.389 -15.029   3.726  0.00  0.00    +0.134 A 
ATOM      5  N   LIG    1       26.640 -15.404   4.061  0.00  0.00    -0.142 NA
ATOM      6  N   LIG    1       27.661 -14.532   3.842  0.00  0.00    -0.113 NA
ENDROOT
BRANCH   4   7
ATOM      7  C   LIG    1       24.335 -16.010   3.990  0.00  0.00    +0.025 A 
ATOM      8  C   LIG    1       24.500 -17.391   3.746  0.00  0.00    +0.069 A 
ATOM      9 CL   LIG    1       25.989 -17.982   3.068  0.00  0.00    -0.081 Cl
ATOM     10  C   LIG    1       23.452 -18.282   4.031  0.00  0.00    +0.060 A 
ATOM     11 CL   LIG    1       23.579 -19.988   3.765  0.00  0.00    -0.082 Cl
ATOM     12  C   LIG    1       22.243 -17.809   4.550  0.00  0.00    +0.021 A 
ATOM     13  C   LIG    1       22.065 -16.448   4.780  0.00  0.00    +0.002 A 
ATOM     14  C   LIG    1       23.101 -15.558   4.499  0.00  0.00    +0.012 A 
ENDBRANCH   4   7
BRANCH   1  15
ATOM     15  N   LIG    1       28.451 -12.437   3.117  0.00  0.00    -0.326 N 
ATOM     16  H   LIG    1       28.113 -11.616   2.632  0.00  0.00    +0.145 HD
ATOM     17  H   LIG    1       28.924 -12.280   3.997  0.00  0.00    +0.145 HD
ENDBRANCH   1  15
BRANCH   3  18
ATOM     18  N   LIG    1       23.916 -13.333   2.734  0.00  0.00    -0.341 N 
ATOM     19  H   LIG    1       23.563 -12.719   3.466  0.00  0.00    +0.144 HD
ATOM     20  H   LIG    1       23.941 -12.868   1.832  0.00  0.00    +0.144 HD
ENDBRANCH   3  18
TORSDOF 3
ENDMDL
MODEL 3
REMARK VINA RESULT:      -3.6      5.055      6.847
REMARK  Name = *****
REMARK                            x       y       z     vdW  Elec       q    Type
REMARK                         _______ _______ _______ _____ _____    ______ ____
ROOT
ATOM      1  C   LIG    1       27.289 -13.429   3.182  0.00  0.00    +0.234 A 
ATOM      2  N   LIG    1       27.984 -14.406   3.773  0.00  0.00    -0.197 NA
ATOM      3  C   LIG    1       27.353 -15.587   3.902  0.00  0.00    +0.148 A 
ATOM      4  C   LIG    1       26.063 -15.793   3.414  0.00  0.00    +0.134 A 
ATOM      5  N   LIG    1       25.400 -14.771   2.837  0.00  0.00    -0.142 NA
ATOM      6  N   LIG    1       26.031 -13.571   2.718  0.00  0.00    -0.113 NA
ENDROOT
BRANCH   4   7
ATOM      7  C   LIG    1       25.331 -17.057   3.510  0.00  0.00    +0.025 A 
ATOM      8  C   LIG    1       23.977 -17.127   3.905  0.00  0.00    +0.069 A 
ATOM      9 CL   LIG    1       23.124 -15.675   4.343  0.00  0.00    -0.081 Cl
ATOM     10  C   LIG    1       23.328 -18.371   3.967  0.00  0.00    +0.060 A 
ATOM     11 CL   LIG    1       21.671 -18.538   4.437  0.00  0.00    -0.082 Cl
ATOM     12  C   LIG    1       24.017 -19.544   3.643  0.00  0.00    +0.021 A 
ATOM     13  C   LIG    1       25.355 -19.488   3.266  0.00  0.00    +0.002 A 
ATOM     14  C   LIG    1       26.006 -18.256   3.203  0.00  0.00    +0.012 A 
ENDBRANCH   4   7
BRANCH   1  15
ATOM     15  N   LIG    1       27.931 -12.214   3.011  0.00  0.00    -0.326 N 
ATOM     16  H   LIG    1       28.725 -12.339   2.397  0.00  0.00    +0.145 HD
ATOM     17  H   LIG    1       27.262 -11.502   2.750  0.00  0.00    +0.145 HD
ENDBRANCH   1  15
BRANCH   3  18
ATOM     18  N   LIG    1       28.095 -16.591   4.537  0.00  0.00    -0.341 N 
ATOM     19  H   LIG    1       27.706 -16.716   5.470  0.00  0.00    +0.144 HD
ATOM     20  H   LIG    1       28.097 -17.459   4.012  0.00  0.00    +0.144 HD
ENDBRANCH   3  18
TORSDOF 3
ENDMDL
MODEL 4
REMARK VINA RESULT:      -3.6      4.094      5.191
REMARK  Name = *****
REMARK                            x       y       z     vdW  Elec       q    Type
REMARK                         _______ _______ _______ _____ _____    ______ ____
ROOT
ATOM      1  C   LIG    1       24.279 -20.253   3.839  0.00  0.00    +0.234 A 
ATOM      2  N   LIG    1       25.565 -19.998   4.101  0.00  0.00    -0.197 NA
ATOM      3  C   LIG    1       25.940 -18.708   4.024  0.00  0.00    +0.148 A 
ATOM      4  C   LIG    1       25.033 -17.691   3.727  0.00  0.00    +0.134 A 
ATOM      5  N   LIG    1       23.749 -18.004   3.458  0.00  0.00    -0.142 NA
ATOM      6  N   LIG    1       23.371 -19.309   3.521  0.00  0.00    -0.113 NA
ENDROOT
BRANCH   4   7
ATOM      7  C   LIG    1       25.376 -16.270   3.644  0.00  0.00    +0.025 A 
ATOM      8  C   LIG    1       24.488 -15.247   4.043  0.00  0.00    +0.069 A 
ATOM      9 CL   LIG    1       22.898 -15.652   4.622  0.00  0.00    -0.081 Cl
ATOM     10  C   LIG    1       24.882 -13.902   3.947  0.00  0.00    +0.060 A 
ATOM     11 CL   LIG    1       23.854 -12.592   4.419  0.00  0.00    -0.082 Cl
ATOM     12  C   LIG    1       26.148 -13.569   3.456  0.00  0.00    +0.021 A 
ATOM     13  C   LIG    1       27.025 -14.569   3.048  0.00  0.00    +0.002 A 
ATOM     14  C   LIG    1       26.641 -15.907   3.139  0.00  0.00    +0.012 A 
ENDBRANCH   4   7
BRANCH   1  15
ATOM     15  N   LIG    1       23.865 -21.571   3.942  0.00  0.00    -0.326 N 
ATOM     16  H   LIG    1       22.903 -21.644   3.638  0.00  0.00    +0.145 HD
ATOM     17  H   LIG    1       24.533 -22.180   3.488  0.00  0.00    +0.145 HD
ENDBRANCH   1  15
BRANCH   3  18
ATOM     18  N   LIG    1       27.294 -18.466   4.288  0.00  0.00    -0.341 N 
ATOM     19  H   LIG    1       27.402 -17.465   4.443  0.00  0.00    +0.144 HD
ATOM     20  H   LIG    1       27.635 -19.008   5.075  0.00  0.00    +0.144 HD
ENDBRANCH   3  18
TORSDOF 3
ENDMDL
MODEL 5
REMARK VINA RESULT:      -3.6      2.527      5.286
REMARK  Name = *****
REMARK                            x       y       z     vdW  Elec       q    Type
REMARK                         _______ _______ _______ _____ _____    ______ ____
ROOT
ATOM      1  C   LIG    1       27.594 -20.111   6.163  0.00  0.00    +0.234 A 
ATOM      2  N   LIG    1       27.354 -19.849   4.874  0.00  0.00    -0.197 NA
ATOM      3  C   LIG    1       26.068 -19.914   4.486  0.00  0.00    +0.148 A 
ATOM      4  C   LIG    1       25.039 -20.202   5.383  0.00  0.00    +0.134 A 
ATOM      5  N   LIG    1       25.336 -20.471   6.671  0.00  0.00    -0.142 NA
ATOM      6  N   LIG    1       26.638 -20.419   7.062  0.00  0.00    -0.113 NA
ENDROOT
BRANCH   4   7
ATOM      7  C   LIG    1       23.621 -20.272   5.026  0.00  0.00    +0.025 A 
ATOM      8  C   LIG    1       22.940 -19.210   4.393  0.00  0.00    +0.069 A 
ATOM      9 CL   LIG    1       23.779 -17.726   4.043  0.00  0.00    -0.081 Cl
ATOM     10  C   LIG    1       21.580 -19.344   4.068  0.00  0.00    +0.060 A 
ATOM     11 CL   LIG    1       20.678 -18.091   3.287  0.00  0.00    -0.082 Cl
ATOM     12  C   LIG    1       20.894 -20.524   4.372  0.00  0.00    +0.021 A 
ATOM     13  C   LIG    1       21.552 -21.572   5.009  0.00  0.00    +0.002 A 
ATOM     14  C   LIG    1       22.902 -21.445   5.336  0.00  0.00    +0.012 A 
ENDBRANCH   4   7
BRANCH   1  15
ATOM     15  N   LIG    1       28.909 -20.019   6.590  0.00  0.00    -0.326 N 
ATOM     16  H   LIG    1       29.130 -19.051   6.784  0.00  0.00    +0.145 HD
ATOM     17  H   LIG    1       29.079 -20.682   7.334  0.00  0.00    +0.145 HD
ENDBRANCH   1  15
BRANCH   3  18
ATOM     18  N   LIG    1       25.842 -19.651   3.129  0.00  0.00    -0.341 N 
ATOM     19  H   LIG    1       24.866 -19.378   3.029  0.00  0.00    +0.144 HD
ATOM     20  H   LIG    1       26.470 -18.942   2.766  0.00  0.00    +0.144 HD
ENDBRANCH   3  18
TORSDOF 3
ENDMDL
MODEL 6
REMARK VINA RESULT:      -3.5      4.119      5.198
REMARK  Name = *****
REMARK                            x       y       z     vdW  Elec       q    Type
REMARK                         _______ _______ _______ _____ _____    ______ ____
ROOT
ATOM      1  C   LIG    1       24.040 -20.169   3.785  0.00  0.00    +0.234 A 
ATOM      2  N   LIG    1       23.011 -19.423   4.203  0.00  0.00    -0.197 NA
ATOM      3  C   LIG    1       23.217 -18.094   4.230  0.00  0.00    +0.148 A 
ATOM      4  C   LIG    1       24.418 -17.523   3.811  0.00  0.00    +0.134 A 
ATOM      5  N   LIG    1       25.429 -18.321   3.411  0.00  0.00    -0.142 NA
ATOM      6  N   LIG    1       25.229 -19.666   3.396  0.00  0.00    -0.113 NA
ENDROOT
BRANCH   4   7
ATOM      7  C   LIG    1       24.696 -16.086   3.801  0.00  0.00    +0.025 A 
ATOM      8  C   LIG    1       26.000 -15.561   3.663  0.00  0.00    +0.069 A 
ATOM      9 CL   LIG    1       27.361 -16.638   3.537  0.00  0.00    -0.081 Cl
ATOM     10  C   LIG    1       26.198 -14.171   3.652  0.00  0.00    +0.060 A 
ATOM     11 CL   LIG    1       27.763 -13.452   3.482  0.00  0.00    -0.082 Cl
ATOM     12  C   LIG    1       25.111 -13.301   3.781  0.00  0.00    +0.021 A 
ATOM     13  C   LIG    1       23.824 -13.807   3.931  0.00  0.00    +0.002 A 
ATOM     14  C   LIG    1       23.620 -15.187   3.945  0.00  0.00    +0.012 A 
ENDBRANCH   4   7
BRANCH   1  15
ATOM     15  N   LIG    1       23.839 -21.538   3.721  0.00  0.00    -0.326 N 
ATOM     16  H   LIG    1       24.558 -22.006   4.257  0.00  0.00    +0.145 HD
ATOM     17  H   LIG    1       22.881 -21.759   3.956  0.00  0.00    +0.145 HD
ENDBRANCH   1  15
BRANCH   3  18
ATOM     18  N   LIG    1       22.131 -17.334   4.684  0.00  0.00    -0.341 N 
ATOM     19  H   LIG    1       22.192 -17.291   5.700  0.00  0.00    +0.144 HD
ATOM     20  H   LIG    1       22.109 -16.409   4.269  0.00  0.00    +0.144 HD
ENDBRANCH   3  18
TORSDOF 3
ENDMDL
MODEL 7
REMARK VINA RESULT:      -2.8      1.524      2.180
REMARK  Name = *****
REMARK                            x       y       z     vdW  Elec       q    Type
REMARK                         _______ _______ _______ _____ _____    ______ ____
ROOT
ATOM      1  C   LIG    1       21.791 -19.156   3.967  0.00  0.00    +0.234 A 
ATOM      2  N   LIG    1       21.775 -20.156   4.856  0.00  0.00    -0.197 NA
ATOM      3  C   LIG    1       22.966 -20.514   5.366  0.00  0.00    +0.148 A 
ATOM      4  C   LIG    1       24.147 -19.858   5.018  0.00  0.00    +0.134 A 
ATOM      5  N   LIG    1       24.111 -18.865   4.106  0.00  0.00    -0.142 NA
ATOM      6  N   LIG    1       22.908 -18.510   3.578  0.00  0.00    -0.113 NA
ENDROOT
BRANCH   4   7
ATOM      7  C   LIG    1       25.470 -20.190   5.549  0.00  0.00    +0.025 A 
ATOM      8  C   LIG    1       26.648 -19.533   5.131  0.00  0.00    +0.069 A 
ATOM      9 CL   LIG    1       26.566 -18.299   3.906  0.00  0.00    -0.081 Cl
ATOM     10  C   LIG    1       27.886 -19.893   5.687  0.00  0.00    +0.060 A 
ATOM     11 CL   LIG    1       29.372 -19.131   5.231  0.00  0.00    -0.082 Cl
ATOM     12  C   LIG    1       27.961 -20.903   6.652  0.00  0.00    +0.021 A 
ATOM     13  C   LIG    1       26.808 -21.566   7.060  0.00  0.00    +0.002 A 
ATOM     14  C   LIG    1       25.575 -21.215   6.511  0.00  0.00    +0.012 A 
ENDBRANCH   4   7
BRANCH   1  15
ATOM     15  N   LIG    1       20.571 -18.751   3.453  0.00  0.00    -0.326 N 
ATOM     16  H   LIG    1       20.726 -18.206   2.615  0.00  0.00    +0.145 HD
ATOM     17  H   LIG    1       19.949 -19.545   3.369  0.00  0.00    +0.145 HD
ENDBRANCH   1  15
BRANCH   3  18
ATOM     18  N   LIG    1       22.926 -21.572   6.283  0.00  0.00    -0.341 N 
ATOM     19  H   LIG    1       22.707 -22.420   5.763  0.00  0.00    +0.144 HD
ATOM     20  H   LIG    1       23.793 -21.663   6.802  0.00  0.00    +0.144 HD
ENDBRANCH   3  18
TORSDOF 3
ENDMDL
MODEL 8
REMARK VINA RESULT:      -2.7      4.934      6.251
REMARK  Name = *****
REMARK                            x       y       z     vdW  Elec       q    Type
REMARK                         _______ _______ _______ _____ _____    ______ ____
ROOT
ATOM      1  C   LIG    1       24.623 -13.367   3.623  0.00  0.00    +0.234 A 
ATOM      2  N   LIG    1       25.820 -13.951   3.496  0.00  0.00    -0.197 NA
ATOM      3  C   LIG    1       25.833 -15.294   3.565  0.00  0.00    +0.148 A 
ATOM      4  C   LIG    1       24.663 -16.038   3.722  0.00  0.00    +0.134 A 
ATOM      5  N   LIG    1       23.483 -15.399   3.859  0.00  0.00    -0.142 NA
ATOM      6  N   LIG    1       23.469 -14.040   3.804  0.00  0.00    -0.113 NA
ENDROOT
BRANCH   4   7
ATOM      7  C   LIG    1       24.611 -17.499   3.789  0.00  0.00    +0.025 A 
ATOM      8  C   LIG    1       23.472 -18.202   4.238  0.00  0.00    +0.069 A 
ATOM      9 CL   LIG    1       22.069 -17.328   4.781  0.00  0.00    -0.081 Cl
ATOM     10  C   LIG    1       23.482 -19.607   4.268  0.00  0.00    +0.060 A 
ATOM     11 CL   LIG    1       22.125 -20.539   4.800  0.00  0.00    -0.082 Cl
ATOM     12  C   LIG    1       24.617 -20.314   3.859  0.00  0.00    +0.021 A 
ATOM     13  C   LIG    1       25.750 -19.631   3.428  0.00  0.00    +0.002 A 
ATOM     14  C   LIG    1       25.747 -18.236   3.396  0.00  0.00    +0.012 A 
ENDBRANCH   4   7
BRANCH   1  15
ATOM     15  N   LIG    1       24.583 -11.986   3.525  0.00  0.00    -0.326 N 
ATOM     16  H   LIG    1       24.989 -11.580   4.358  0.00  0.00    +0.145 HD
ATOM     17  H   LIG    1       24.973 -11.690   2.639  0.00  0.00    +0.145 HD
ENDBRANCH   1  15
BRANCH   3  18
ATOM     18  N   LIG    1       27.098 -15.883   3.443  0.00  0.00    -0.341 N 
ATOM     19  H   LIG    1       27.699 -15.466   4.152  0.00  0.00    +0.144 HD
ATOM     20  H   LIG    1       27.061 -16.893   3.529  0.00  0.00    +0.144 HD
ENDBRANCH   3  18
TORSDOF 3
ENDMDL
MODEL 9
REMARK VINA RESULT:      -2.6      4.465      6.393
REMARK  Name = *****
REMARK                            x       y       z     vdW  Elec       q    Type
REMARK                         _______ _______ _______ _____ _____    ______ ____
ROOT
ATOM      1  C   LIG    1       26.396 -14.268   3.180  0.00  0.00    +0.234 A 
ATOM      2  N   LIG    1       25.183 -14.017   3.685  0.00  0.00    -0.197 NA
ATOM      3  C   LIG    1       24.414 -15.091   3.940  0.00  0.00    +0.148 A 
ATOM      4  C   LIG    1       24.868 -16.393   3.727  0.00  0.00    +0.134 A 
ATOM      5  N   LIG    1       26.095 -16.591   3.204  0.00  0.00    -0.142 NA
ATOM      6  N   LIG    1       26.869 -15.505   2.931  0.00  0.00    -0.113 NA
ENDROOT
BRANCH   4   7
ATOM      7  C   LIG    1       24.087 -17.600   3.999  0.00  0.00    +0.025 A 
ATOM      8  C   LIG    1       24.680 -18.868   4.181  0.00  0.00    +0.069 A 
ATOM      9 CL   LIG    1       26.406 -19.048   4.043  0.00  0.00    -0.081 Cl
ATOM     10  C   LIG    1       23.874 -19.987   4.450  0.00  0.00    +0.060 A 
ATOM     11 CL   LIG    1       24.526 -21.572   4.690  0.00  0.00    -0.082 Cl
ATOM     12  C   LIG    1       22.485 -19.853   4.534  0.00  0.00    +0.021 A 
ATOM     13  C   LIG    1       21.889 -18.610   4.342  0.00  0.00    +0.002 A 
ATOM     14  C   LIG    1       22.683 -17.495   4.074  0.00  0.00    +0.012 A 
ENDBRANCH   4   7
BRANCH   1  15
ATOM     15  N   LIG    1       27.215 -13.177   2.938  0.00  0.00    -0.326 N 
ATOM     16  H   LIG    1       27.164 -12.541   3.723  0.00  0.00    +0.145 HD
ATOM     17  H   LIG    1       28.137 -13.490   2.667  0.00  0.00    +0.145 HD
ENDBRANCH   1  15
BRANCH   3  18
ATOM     18  N   LIG    1       23.143 -14.803   4.454  0.00  0.00    -0.341 N 
ATOM     19  H   LIG    1       23.083 -13.794   4.575  0.00  0.00    +0.144 HD
ATOM     20  H   LIG    1       22.400 -15.156   3.860  0.00  0.00    +0.144 HD
ENDBRANCH   3  18
TORSDOF 3
ENDMDL
