MODEL 1
REMARK VINA RESULT:      -4.7      0.000      0.000
REMARK  Name = *****
REMARK                            x       y       z     vdW  Elec       q    Type
REMARK                         _______ _______ _______ _____ _____    ______ ____
ROOT
ATOM      1  C   LIG    1       23.597 -18.104   4.122  0.00  0.00    -0.035 A 
ATOM      2  C   LIG    1       23.114 -16.783   4.109  0.00  0.00    +0.050 A 
ATOM      3  C   LIG    1       23.961 -15.694   3.798  0.00  0.00    +0.129 A 
ATOM      4  O   LIG    1       23.378 -14.451   3.825  0.00  0.00    -0.485 OA
ATOM      5  C   LIG    1       24.283 -13.320   3.913  0.00  0.00    +0.108 C 
ATOM      6  C   LIG    1       25.371 -13.454   2.810  0.00  0.00    +0.041 C 
ATOM      7  C   LIG    1       26.181 -14.764   2.958  0.00  0.00    +0.040 C 
ATOM      8  C   LIG    1       27.460 -14.642   3.799  0.00  0.00    +0.083 C 
ATOM      9  C   LIG    1       28.261 -13.406   3.485  0.00  0.00    +0.134 C 
ATOM     10  O   LIG    1       29.475 -13.430   3.411  0.00  0.00    -0.297 OA
ATOM     11  C   LIG    1       27.500 -12.117   3.448  0.00  0.00    +0.075 C 
ATOM     12  C   LIG    1       26.286 -12.243   2.539  0.00  0.00    +0.015 C 
ATOM     13  C   LIG    1       23.397 -12.085   3.656  0.00  0.00    +0.056 C 
ATOM     14  C   LIG    1       24.785 -13.228   5.362  0.00  0.00    +0.056 C 
ATOM     15  C   LIG    1       25.300 -15.897   3.448  0.00  0.00    +0.040 A 
ATOM     16  C   LIG    1       25.786 -17.202   3.514  0.00  0.00    +0.124 A 
ATOM     17  C   LIG    1       24.972 -18.270   3.880  0.00  0.00    +0.050 A 
ENDROOT
BRANCH   1  18
ATOM     18  C   LIG    1       22.733 -19.371   4.378  0.00  0.00    -0.010 C 
ATOM     19  C   LIG    1       21.305 -19.042   3.879  0.00  0.00    +0.016 C 
ATOM     20  C   LIG    1       23.204 -20.614   3.587  0.00  0.00    +0.016 C 
BRANCH  18  21
ATOM     21  C   LIG    1       22.728 -19.712   5.938  0.00  0.00    +0.011 C 
BRANCH  21  22
ATOM     22  C   LIG    1       23.194 -21.135   6.342  0.00  0.00    +0.001 C 
BRANCH  22  23
ATOM     23  C   LIG    1       24.578 -21.294   7.032  0.00  0.00    +0.000 C 
BRANCH  23  24
ATOM     24  C   LIG    1       25.812 -20.969   6.173  0.00  0.00    -0.000 C 
BRANCH  24  26
ATOM     25  C   LIG    1       28.125 -19.901   6.091  0.00  0.00    +0.004 C 
ATOM     26  C   LIG    1       27.027 -20.475   6.988  0.00  0.00    -0.003 C 
ENDBRANCH  24  26
ENDBRANCH  23  24
ENDBRANCH  22  23
ENDBRANCH  21  22
ENDBRANCH  18  21
ENDBRANCH   1  18
BRANCH  16  27
ATOM     27  O   LIG    1       27.082 -17.459   3.167  0.00  0.00    -0.506 OA
ATOM     28  H   LIG    1       27.498 -16.637   2.863  0.00  0.00    +0.292 HD
ENDBRANCH  16  27
TORSDOF 7
ENDMDL
MODEL 2
REMARK VINA RESULT:      -1.7      1.422      3.128
REMARK  Name = *****
REMARK                            x       y       z     vdW  Elec       q    Type
REMARK                         _______ _______ _______ _____ _____    ______ ____
ROOT
ATOM      1  C   LIG    1       24.280 -18.859   3.896  0.00  0.00    -0.035 A 
ATOM      2  C   LIG    1       25.505 -18.183   3.745  0.00  0.00    +0.050 A 
ATOM      3  C   LIG    1       25.587 -16.777   3.860  0.00  0.00    +0.129 A 
ATOM      4  O   LIG    1       26.836 -16.231   3.685  0.00  0.00    -0.485 OA
ATOM      5  C   LIG    1       26.879 -14.809   3.397  0.00  0.00    +0.108 C 
ATOM      6  C   LIG    1       26.029 -14.051   4.456  0.00  0.00    +0.041 C 
ATOM      7  C   LIG    1       24.556 -14.523   4.457  0.00  0.00    +0.040 C 
ATOM      8  C   LIG    1       23.618 -13.716   3.548  0.00  0.00    +0.083 C 
ATOM      9  C   LIG    1       23.830 -12.229   3.648  0.00  0.00    +0.134 C 
ATOM     10  O   LIG    1       22.898 -11.447   3.668  0.00  0.00    -0.297 OA
ATOM     11  C   LIG    1       25.246 -11.755   3.538  0.00  0.00    +0.075 C 
ATOM     12  C   LIG    1       26.138 -12.513   4.511  0.00  0.00    +0.015 C 
ATOM     13  C   LIG    1       28.366 -14.426   3.518  0.00  0.00    +0.056 C 
ATOM     14  C   LIG    1       26.475 -14.612   1.928  0.00  0.00    +0.056 C 
ATOM     15  C   LIG    1       24.461 -16.010   4.173  0.00  0.00    +0.040 A 
ATOM     16  C   LIG    1       23.241 -16.678   4.268  0.00  0.00    +0.124 A 
ATOM     17  C   LIG    1       23.144 -18.056   4.095  0.00  0.00    +0.050 A 
ENDROOT
BRANCH   1  18
ATOM     18  C   LIG    1       24.098 -20.402   3.861  0.00  0.00    -0.010 C 
ATOM     19  C   LIG    1       22.743 -20.704   4.545  0.00  0.00    +0.016 C 
ATOM     20  C   LIG    1       24.011 -20.986   2.430  0.00  0.00    +0.016 C 
BRANCH  18  21
ATOM     21  C   LIG    1       25.301 -21.103   4.643  0.00  0.00    +0.011 C 
BRANCH  21  22
ATOM     22  C   LIG    1       25.218 -21.106   6.192  0.00  0.00    +0.001 C 
BRANCH  22  23
ATOM     23  C   LIG    1       26.377 -20.454   6.998  0.00  0.00    +0.000 C 
BRANCH  23  24
ATOM     24  C   LIG    1       27.695 -21.244   7.062  0.00  0.00    -0.000 C 
BRANCH  24  26
ATOM     25  C   LIG    1       28.591 -19.326   5.641  0.00  0.00    +0.004 C 
ATOM     26  C   LIG    1       28.936 -20.421   6.652  0.00  0.00    -0.003 C 
ENDBRANCH  24  26
ENDBRANCH  23  24
ENDBRANCH  22  23
ENDBRANCH  21  22
ENDBRANCH  18  21
ENDBRANCH   1  18
BRANCH  16  27
ATOM     27  O   LIG    1       22.111 -15.980   4.588  0.00  0.00    -0.506 OA
ATOM     28  H   LIG    1       21.364 -16.337   4.083  0.00  0.00    +0.292 HD
ENDBRANCH  16  27
TORSDOF 7
ENDMDL
