MODEL 1
REMARK VINA RESULT:       5.6      0.000      0.000
REMARK  Name = *****
REMARK                            x       y       z     vdW  Elec       q    Type
REMARK                         _______ _______ _______ _____ _____    ______ ____
ROOT
ATOM      1  N   LIG    1       21.980 -19.372   4.693  0.00  0.00    -0.296 NA
ATOM      2  C   LIG    1       22.667 -20.585   4.188  0.00  0.00    +0.100 C 
ATOM      3  C   LIG    1       24.133 -20.344   3.719  0.00  0.00    +0.100 C 
ATOM      4  N   LIG    1       24.793 -19.226   4.405  0.00  0.00    -0.289 NA
ATOM      5  C   LIG    1       24.303 -19.023   5.775  0.00  0.00    +0.100 C 
ATOM      6  C   LIG    1       22.747 -18.929   5.880  0.00  0.00    +0.100 C 
ENDROOT
BRANCH   1   7
ATOM      7  C   LIG    1       21.920 -18.344   3.629  0.00  0.00    +0.119 C 
BRANCH   7  11
ATOM      8  C   LIG    1       23.518 -14.393   4.599  0.00  0.00    -0.042 A 
ATOM      9  C   LIG    1       23.849 -15.054   3.405  0.00  0.00    +0.004 A 
ATOM     10  C   LIG    1       23.342 -16.323   3.104  0.00  0.00    +0.005 A 
ATOM     11  C   LIG    1       22.482 -16.984   3.989  0.00  0.00    -0.033 A 
ATOM     12  C   LIG    1       22.130 -16.337   5.175  0.00  0.00    +0.005 A 
ATOM     13  C   LIG    1       22.643 -15.065   5.476  0.00  0.00    +0.004 A 
BRANCH   8  15
ATOM     14  C   LIG    1       24.198 -12.074   3.710  0.00  0.00    +0.015 C 
ATOM     15  C   LIG    1       24.070 -12.997   4.945  0.00  0.00    -0.013 C 
ATOM     16  C   LIG    1       23.138 -12.292   5.954  0.00  0.00    +0.015 C 
ATOM     17  C   LIG    1       25.478 -13.106   5.570  0.00  0.00    +0.015 C 
ENDBRANCH   8  15
ENDBRANCH   7  11
ENDBRANCH   1   7
BRANCH   4  18
ATOM     18  C   LIG    1       26.244 -19.040   4.192  0.00  0.00    +0.117 C 
BRANCH  18  19
ATOM     19  C   LIG    1       26.645 -17.580   3.897  0.00  0.00    -0.026 A 
ATOM     20  C   LIG    1       26.019 -16.809   2.896  0.00  0.00    +0.007 A 
ATOM     21  C   LIG    1       26.394 -15.479   2.674  0.00  0.00    +0.020 A 
ATOM     22  C   LIG    1       27.404 -14.904   3.429  0.00  0.00    +0.041 A 
ATOM     23 CL   LIG    1       27.860 -13.267   3.156  0.00  0.00    -0.084 Cl
ATOM     24  C   LIG    1       28.054 -15.648   4.415  0.00  0.00    +0.020 A 
ATOM     25  C   LIG    1       27.672 -16.976   4.642  0.00  0.00    +0.007 A 
ENDBRANCH  18  19
BRANCH  18  26
ATOM     26  C   LIG    1       27.129 -19.812   5.206  0.00  0.00    -0.026 A 
ATOM     27  C   LIG    1       28.508 -19.580   5.338  0.00  0.00    +0.005 A 
ATOM     28  C   LIG    1       29.286 -20.294   6.269  0.00  0.00    +0.000 A 
ATOM     29  C   LIG    1       28.711 -21.278   7.060  0.00  0.00    +0.000 A 
ATOM     30  C   LIG    1       27.357 -21.572   6.907  0.00  0.00    +0.000 A 
ATOM     31  C   LIG    1       26.581 -20.852   5.985  0.00  0.00    +0.005 A 
ENDBRANCH  18  26
ENDBRANCH   4  18
TORSDOF 6
ENDMDL
