MODEL 1
REMARK VINA RESULT:      -8.1      0.000      0.000
REMARK  Name = *****
REMARK                            x       y       z     vdW  Elec       q    Type
REMARK                         _______ _______ _______ _____ _____    ______ ____
ROOT
ATOM      1  C   LIG    1       26.758 -22.093   7.646  0.00  0.00    +0.125 C 
ENDROOT
BRANCH   1   2
ATOM      2  N   LIG    1       27.621 -21.118   7.015  0.00  0.00    -0.315 N 
ATOM      3  C   LIG    1       28.903 -20.796   7.375  0.00  0.00    +0.165 A 
ATOM      4  C   LIG    1       29.276 -19.794   6.491  0.00  0.00    +0.126 A 
ATOM      5  C   LIG    1       30.574 -19.320   6.620  0.00  0.00    +0.145 A 
ATOM      6  N   LIG    1       31.366 -19.810   7.608  0.00  0.00    -0.221 NA
ATOM      7  C   LIG    1       30.874 -20.769   8.413  0.00  0.00    +0.214 A 
ATOM      8  N   LIG    1       28.241 -19.462   5.654  0.00  0.00    -0.233 NA
ATOM      9  N   LIG    1       29.649 -21.320   8.361  0.00  0.00    -0.195 NA
ATOM     10  C   LIG    1       27.249 -20.243   6.026  0.00  0.00    +0.201 A 
BRANCH   7  11
ATOM     11  N   LIG    1       31.701 -21.183   9.440  0.00  0.00    -0.327 N 
ATOM     12  H   LIG    1       32.607 -21.422   9.064  0.00  0.00    +0.145 HD
ATOM     13  H   LIG    1       31.223 -21.900   9.970  0.00  0.00    +0.145 HD
ENDBRANCH   7  11
ENDBRANCH   1   2
BRANCH   1  14
ATOM     14  C   LIG    1       25.414 -21.565   8.194  0.00  0.00    +0.032 C 
BRANCH  14  15
ATOM     15  C   LIG    1       24.149 -21.925   7.376  0.00  0.00    +0.066 C 
BRANCH  15  16
ATOM     16  C   LIG    1       24.410 -23.046   6.353  0.00  0.00    +0.239 C 
BRANCH  16  17
ATOM     17  O   LIG    1       23.853 -24.296   6.804  0.00  0.00    -0.464 OA
BRANCH  17  19
ATOM     18  C   LIG    1       25.813 -25.609   6.698  0.00  0.00    +0.136 C 
ATOM     19  C   LIG    1       24.390 -25.428   6.269  0.00  0.00    +0.304 C 
ATOM     20  O   LIG    1       23.788 -26.239   5.578  0.00  0.00    -0.251 OA
ENDBRANCH  17  19
ENDBRANCH  16  17
ENDBRANCH  15  16
BRANCH  15  21
ATOM     21  C   LIG    1       23.549 -20.699   6.646  0.00  0.00    +0.239 C 
BRANCH  21  22
ATOM     22  O   LIG    1       23.517 -20.870   5.215  0.00  0.00    -0.464 OA
BRANCH  22  23
ATOM     23  C   LIG    1       23.529 -19.738   4.474  0.00  0.00    +0.304 C 
ATOM     24  O   LIG    1       24.417 -19.441   3.685  0.00  0.00    -0.251 OA
ATOM     25  C   LIG    1       22.321 -18.905   4.707  0.00  0.00    +0.136 C 
ENDBRANCH  22  23
ENDBRANCH  21  22
ENDBRANCH  15  21
ENDBRANCH  14  15
ENDBRANCH   1  14
TORSDOF 10
ENDMDL
MODEL 2
REMARK VINA RESULT:      -8.1      1.390      4.064
REMARK  Name = *****
REMARK                            x       y       z     vdW  Elec       q    Type
REMARK                         _______ _______ _______ _____ _____    ______ ____
ROOT
ATOM      1  C   LIG    1       26.540 -22.175   7.719  0.00  0.00    +0.125 C 
ENDROOT
BRANCH   1   2
ATOM      2  N   LIG    1       27.398 -21.219   7.054  0.00  0.00    -0.315 N 
ATOM      3  C   LIG    1       28.690 -20.901   7.383  0.00  0.00    +0.165 A 
ATOM      4  C   LIG    1       29.054 -19.919   6.474  0.00  0.00    +0.126 A 
ATOM      5  C   LIG    1       30.358 -19.453   6.569  0.00  0.00    +0.145 A 
ATOM      6  N   LIG    1       31.164 -19.931   7.550  0.00  0.00    -0.221 NA
ATOM      7  C   LIG    1       30.680 -20.871   8.382  0.00  0.00    +0.214 A 
ATOM      8  N   LIG    1       28.005 -19.595   5.651  0.00  0.00    -0.233 NA
ATOM      9  N   LIG    1       29.450 -21.413   8.365  0.00  0.00    -0.195 NA
ATOM     10  C   LIG    1       27.014 -20.360   6.055  0.00  0.00    +0.201 A 
BRANCH   7  11
ATOM     11  N   LIG    1       31.524 -21.273   9.401  0.00  0.00    -0.327 N 
ATOM     12  H   LIG    1       31.494 -20.593  10.147  0.00  0.00    +0.145 HD
ATOM     13  H   LIG    1       32.432 -21.479   9.006  0.00  0.00    +0.145 HD
ENDBRANCH   7  11
ENDBRANCH   1   2
BRANCH   1  14
ATOM     14  C   LIG    1       26.279 -23.499   6.968  0.00  0.00    +0.032 C 
BRANCH  14  15
ATOM     15  C   LIG    1       24.943 -23.596   6.190  0.00  0.00    +0.066 C 
BRANCH  15  16
ATOM     16  C   LIG    1       23.749 -23.060   7.002  0.00  0.00    +0.239 C 
BRANCH  16  17
ATOM     17  O   LIG    1       22.997 -22.096   6.238  0.00  0.00    -0.464 OA
BRANCH  17  19
ATOM     18  C   LIG    1       22.778 -19.878   5.457  0.00  0.00    +0.136 C 
ATOM     19  C   LIG    1       23.161 -20.789   6.582  0.00  0.00    +0.304 C 
ATOM     20  O   LIG    1       23.511 -20.385   7.683  0.00  0.00    -0.251 OA
ENDBRANCH  17  19
ENDBRANCH  16  17
ENDBRANCH  15  16
BRANCH  15  21
ATOM     21  C   LIG    1       24.634 -25.039   5.724  0.00  0.00    +0.239 C 
BRANCH  21  22
ATOM     22  O   LIG    1       25.590 -25.525   4.761  0.00  0.00    -0.464 OA
BRANCH  22  23
ATOM     23  C   LIG    1       25.998 -26.806   4.911  0.00  0.00    +0.304 C 
ATOM     24  O   LIG    1       27.150 -27.185   4.749  0.00  0.00    -0.251 OA
ATOM     25  C   LIG    1       24.887 -27.701   5.327  0.00  0.00    +0.136 C 
ENDBRANCH  22  23
ENDBRANCH  21  22
ENDBRANCH  15  21
ENDBRANCH  14  15
ENDBRANCH   1  14
TORSDOF 10
ENDMDL
MODEL 3
REMARK VINA RESULT:      -7.8      0.890      3.703
REMARK  Name = *****
REMARK                            x       y       z     vdW  Elec       q    Type
REMARK                         _______ _______ _______ _____ _____    ______ ____
ROOT
ATOM      1  C   LIG    1       26.942 -22.174   7.492  0.00  0.00    +0.125 C 
ENDROOT
BRANCH   1   2
ATOM      2  N   LIG    1       27.782 -21.142   6.923  0.00  0.00    -0.315 N 
ATOM      3  C   LIG    1       29.045 -20.793   7.323  0.00  0.00    +0.165 A 
ATOM      4  C   LIG    1       29.400 -19.740   6.492  0.00  0.00    +0.126 A 
ATOM      5  C   LIG    1       30.677 -19.228   6.668  0.00  0.00    +0.145 A 
ATOM      6  N   LIG    1       31.467 -19.734   7.649  0.00  0.00    -0.221 NA
ATOM      7  C   LIG    1       30.994 -20.746   8.401  0.00  0.00    +0.214 A 
ATOM      8  N   LIG    1       28.369 -19.407   5.650  0.00  0.00    -0.233 NA
ATOM      9  N   LIG    1       29.790 -21.335   8.300  0.00  0.00    -0.195 NA
ATOM     10  C   LIG    1       27.398 -20.237   5.966  0.00  0.00    +0.201 A 
BRANCH   7  11
ATOM     11  N   LIG    1       31.816 -21.177   9.426  0.00  0.00    -0.327 N 
ATOM     12  H   LIG    1       31.289 -21.770  10.049  0.00  0.00    +0.145 HD
ATOM     13  H   LIG    1       32.270 -20.371   9.836  0.00  0.00    +0.145 HD
ENDBRANCH   7  11
ENDBRANCH   1   2
BRANCH   1  14
ATOM     14  C   LIG    1       25.473 -21.786   7.767  0.00  0.00    +0.032 C 
BRANCH  14  15
ATOM     15  C   LIG    1       24.478 -21.991   6.597  0.00  0.00    +0.066 C 
BRANCH  15  16
ATOM     16  C   LIG    1       23.192 -21.161   6.766  0.00  0.00    +0.239 C 
BRANCH  16  17
ATOM     17  O   LIG    1       22.467 -21.075   5.523  0.00  0.00    -0.464 OA
BRANCH  17  19
ATOM     18  C   LIG    1       22.373 -18.851   4.734  0.00  0.00    +0.136 C 
ATOM     19  C   LIG    1       22.966 -20.219   4.588  0.00  0.00    +0.304 C 
ATOM     20  O   LIG    1       23.832 -20.491   3.768  0.00  0.00    -0.251 OA
ENDBRANCH  17  19
ENDBRANCH  16  17
ENDBRANCH  15  16
BRANCH  15  21
ATOM     21  C   LIG    1       24.100 -23.479   6.398  0.00  0.00    +0.239 C 
BRANCH  21  22
ATOM     22  O   LIG    1       24.924 -24.131   5.410  0.00  0.00    -0.464 OA
BRANCH  22  23
ATOM     23  C   LIG    1       25.362 -25.373   5.717  0.00  0.00    +0.304 C 
ATOM     24  O   LIG    1       26.542 -25.699   5.747  0.00  0.00    -0.251 OA
ATOM     25  C   LIG    1       24.245 -26.295   6.045  0.00  0.00    +0.136 C 
ENDBRANCH  22  23
ENDBRANCH  21  22
ENDBRANCH  15  21
ENDBRANCH  14  15
ENDBRANCH   1  14
TORSDOF 10
ENDMDL
MODEL 4
REMARK VINA RESULT:      -7.5      3.360      6.529
REMARK  Name = *****
REMARK                            x       y       z     vdW  Elec       q    Type
REMARK                         _______ _______ _______ _____ _____    ______ ____
ROOT
ATOM      1  C   LIG    1       26.284 -22.720   7.257  0.00  0.00    +0.125 C 
ENDROOT
BRANCH   1   2
ATOM      2  N   LIG    1       25.249 -23.672   6.916  0.00  0.00    -0.315 N 
ATOM      3  C   LIG    1       25.416 -24.892   6.314  0.00  0.00    +0.165 A 
ATOM      4  C   LIG    1       24.131 -25.395   6.176  0.00  0.00    +0.126 A 
ATOM      5  C   LIG    1       24.029 -26.665   5.625  0.00  0.00    +0.145 A 
ATOM      6  N   LIG    1       25.155 -27.303   5.214  0.00  0.00    -0.221 NA
ATOM      7  C   LIG    1       26.342 -26.693   5.388  0.00  0.00    +0.214 A 
ATOM      8  N   LIG    1       23.197 -24.493   6.618  0.00  0.00    -0.233 NA
ATOM      9  N   LIG    1       26.559 -25.484   5.934  0.00  0.00    -0.195 NA
ATOM     10  C   LIG    1       23.899 -23.452   7.013  0.00  0.00    +0.201 A 
BRANCH   7  11
ATOM     11  N   LIG    1       27.446 -27.362   4.893  0.00  0.00    -0.327 N 
ATOM     12  H   LIG    1       28.280 -26.836   5.109  0.00  0.00    +0.145 HD
ATOM     13  H   LIG    1       27.282 -27.578   3.918  0.00  0.00    +0.145 HD
ENDBRANCH   7  11
ENDBRANCH   1   2
BRANCH   1  14
ATOM     14  C   LIG    1       25.852 -21.240   7.344  0.00  0.00    +0.032 C 
BRANCH  14  15
ATOM     15  C   LIG    1       26.602 -20.250   6.419  0.00  0.00    +0.066 C 
BRANCH  15  16
ATOM     16  C   LIG    1       26.075 -20.281   4.973  0.00  0.00    +0.239 C 
BRANCH  16  17
ATOM     17  O   LIG    1       24.691 -20.683   4.937  0.00  0.00    -0.464 OA
BRANCH  17  19
ATOM     18  C   LIG    1       22.576 -19.713   5.339  0.00  0.00    +0.136 C 
ATOM     19  C   LIG    1       23.803 -19.757   4.481  0.00  0.00    +0.304 C 
ATOM     20  O   LIG    1       23.987 -19.003   3.535  0.00  0.00    -0.251 OA
ENDBRANCH  17  19
ENDBRANCH  16  17
ENDBRANCH  15  16
BRANCH  15  21
ATOM     21  C   LIG    1       28.130 -20.494   6.409  0.00  0.00    +0.239 C 
BRANCH  21  22
ATOM     22  O   LIG    1       28.830 -19.653   7.348  0.00  0.00    -0.464 OA
BRANCH  22  23
ATOM     23  C   LIG    1       30.006 -20.127   7.819  0.00  0.00    +0.304 C 
ATOM     24  O   LIG    1       30.108 -21.066   8.598  0.00  0.00    -0.251 OA
ATOM     25  C   LIG    1       31.170 -19.393   7.257  0.00  0.00    +0.136 C 
ENDBRANCH  22  23
ENDBRANCH  21  22
ENDBRANCH  15  21
ENDBRANCH  14  15
ENDBRANCH   1  14
TORSDOF 10
ENDMDL
MODEL 5
REMARK VINA RESULT:      -7.4      2.003      2.523
REMARK  Name = *****
REMARK                            x       y       z     vdW  Elec       q    Type
REMARK                         _______ _______ _______ _____ _____    ______ ____
ROOT
ATOM      1  C   LIG    1       27.745 -20.080   7.935  0.00  0.00    +0.125 C 
ENDROOT
BRANCH   1   2
ATOM      2  N   LIG    1       29.059 -19.585   7.583  0.00  0.00    -0.315 N 
ATOM      3  C   LIG    1       29.966 -18.987   8.417  0.00  0.00    +0.165 A 
ATOM      4  C   LIG    1       31.041 -18.669   7.600  0.00  0.00    +0.126 A 
ATOM      5  C   LIG    1       32.132 -18.083   8.227  0.00  0.00    +0.145 A 
ATOM      6  N   LIG    1       32.068 -17.815   9.556  0.00  0.00    -0.221 NA
ATOM      7  C   LIG    1       30.956 -18.157  10.232  0.00  0.00    +0.214 A 
ATOM      8  N   LIG    1       30.783 -19.000   6.294  0.00  0.00    -0.233 NA
ATOM      9  N   LIG    1       29.857 -18.751   9.735  0.00  0.00    -0.195 NA
ATOM     10  C   LIG    1       29.568 -19.505   6.311  0.00  0.00    +0.201 A 
BRANCH   7  11
ATOM     11  N   LIG    1       30.923 -17.800  11.567  0.00  0.00    -0.327 N 
ATOM     12  H   LIG    1       30.436 -18.513  12.091  0.00  0.00    +0.145 HD
ATOM     13  H   LIG    1       30.566 -16.857  11.640  0.00  0.00    +0.145 HD
ENDBRANCH   7  11
ENDBRANCH   1   2
BRANCH   1  14
ATOM     14  C   LIG    1       27.529 -21.603   7.800  0.00  0.00    +0.032 C 
BRANCH  14  15
ATOM     15  C   LIG    1       26.131 -22.057   7.311  0.00  0.00    +0.066 C 
BRANCH  15  16
ATOM     16  C   LIG    1       26.078 -23.564   6.999  0.00  0.00    +0.239 C 
BRANCH  16  17
ATOM     17  O   LIG    1       25.263 -23.822   5.838  0.00  0.00    -0.464 OA
BRANCH  17  19
ATOM     18  C   LIG    1       25.464 -26.028   5.018  0.00  0.00    +0.136 C 
ATOM     19  C   LIG    1       24.648 -25.036   5.788  0.00  0.00    +0.304 C 
ATOM     20  O   LIG    1       23.596 -25.320   6.345  0.00  0.00    -0.251 OA
ENDBRANCH  17  19
ENDBRANCH  16  17
ENDBRANCH  15  16
BRANCH  15  21
ATOM     21  C   LIG    1       25.653 -21.264   6.071  0.00  0.00    +0.239 C 
BRANCH  21  22
ATOM     22  O   LIG    1       24.545 -20.391   6.367  0.00  0.00    -0.464 OA
BRANCH  22  23
ATOM     23  C   LIG    1       23.371 -20.991   6.669  0.00  0.00    +0.304 C 
ATOM     24  O   LIG    1       23.059 -21.367   7.792  0.00  0.00    -0.251 OA
ATOM     25  C   LIG    1       22.486 -21.117   5.483  0.00  0.00    +0.136 C 
ENDBRANCH  22  23
ENDBRANCH  21  22
ENDBRANCH  15  21
ENDBRANCH  14  15
ENDBRANCH   1  14
TORSDOF 10
ENDMDL
MODEL 6
REMARK VINA RESULT:      -7.3      1.895      2.648
REMARK  Name = *****
REMARK                            x       y       z     vdW  Elec       q    Type
REMARK                         _______ _______ _______ _____ _____    ______ ____
ROOT
ATOM      1  C   LIG    1       27.662 -20.605   6.022  0.00  0.00    +0.125 C 
ENDROOT
BRANCH   1   2
ATOM      2  N   LIG    1       28.851 -19.848   6.350  0.00  0.00    -0.315 N 
ATOM      3  C   LIG    1       29.772 -20.137   7.321  0.00  0.00    +0.165 A 
ATOM      4  C   LIG    1       30.690 -19.099   7.257  0.00  0.00    +0.126 A 
ATOM      5  C   LIG    1       31.769 -19.184   8.126  0.00  0.00    +0.145 A 
ATOM      6  N   LIG    1       31.836 -20.219   9.002  0.00  0.00    -0.221 NA
ATOM      7  C   LIG    1       30.867 -21.152   8.974  0.00  0.00    +0.214 A 
ATOM      8  N   LIG    1       30.317 -18.167   6.322  0.00  0.00    -0.233 NA
ATOM      9  N   LIG    1       29.798 -21.185   8.160  0.00  0.00    -0.195 NA
ATOM     10  C   LIG    1       29.185 -18.623   5.829  0.00  0.00    +0.201 A 
BRANCH   7  11
ATOM     11  N   LIG    1       30.954 -22.146   9.931  0.00  0.00    -0.327 N 
ATOM     12  H   LIG    1       30.579 -21.803  10.803  0.00  0.00    +0.145 HD
ATOM     13  H   LIG    1       31.902 -22.496   9.947  0.00  0.00    +0.145 HD
ENDBRANCH   7  11
ENDBRANCH   1   2
BRANCH   1  14
ATOM     14  C   LIG    1       26.699 -19.961   5.002  0.00  0.00    +0.032 C 
BRANCH  14  15
ATOM     15  C   LIG    1       25.196 -20.296   5.170  0.00  0.00    +0.066 C 
BRANCH  15  16
ATOM     16  C   LIG    1       24.967 -21.590   5.973  0.00  0.00    +0.239 C 
BRANCH  16  17
ATOM     17  O   LIG    1       24.661 -21.295   7.351  0.00  0.00    -0.464 OA
BRANCH  17  19
ATOM     18  C   LIG    1       25.970 -23.212   7.791  0.00  0.00    +0.136 C 
ATOM     19  C   LIG    1       25.442 -21.901   8.288  0.00  0.00    +0.304 C 
ATOM     20  O   LIG    1       25.739 -21.428   9.376  0.00  0.00    -0.251 OA
ENDBRANCH  17  19
ENDBRANCH  16  17
ENDBRANCH  15  16
BRANCH  15  21
ATOM     21  C   LIG    1       24.459 -20.403   3.813  0.00  0.00    +0.239 C 
BRANCH  21  22
ATOM     22  O   LIG    1       23.603 -19.271   3.559  0.00  0.00    -0.464 OA
BRANCH  22  23
ATOM     23  C   LIG    1       22.528 -19.137   4.369  0.00  0.00    +0.304 C 
ATOM     24  O   LIG    1       21.905 -20.076   4.848  0.00  0.00    -0.251 OA
ATOM     25  C   LIG    1       22.203 -17.712   4.636  0.00  0.00    +0.136 C 
ENDBRANCH  22  23
ENDBRANCH  21  22
ENDBRANCH  15  21
ENDBRANCH  14  15
ENDBRANCH   1  14
TORSDOF 10
ENDMDL
MODEL 7
REMARK VINA RESULT:      -7.3      3.431      6.144
REMARK  Name = *****
REMARK                            x       y       z     vdW  Elec       q    Type
REMARK                         _______ _______ _______ _____ _____    ______ ____
ROOT
ATOM      1  C   LIG    1       26.703 -21.695   8.385  0.00  0.00    +0.125 C 
ENDROOT
BRANCH   1   2
ATOM      2  N   LIG    1       25.449 -22.195   7.865  0.00  0.00    -0.315 N 
ATOM      3  C   LIG    1       25.241 -23.378   7.207  0.00  0.00    +0.165 A 
ATOM      4  C   LIG    1       23.890 -23.373   6.890  0.00  0.00    +0.126 A 
ATOM      5  C   LIG    1       23.410 -24.505   6.247  0.00  0.00    +0.145 A 
ATOM      6  N   LIG    1       24.273 -25.503   5.926  0.00  0.00    -0.221 NA
ATOM      7  C   LIG    1       25.567 -25.374   6.275  0.00  0.00    +0.214 A 
ATOM      8  N   LIG    1       23.296 -22.200   7.282  0.00  0.00    -0.233 NA
ATOM      9  N   LIG    1       26.133 -24.340   6.921  0.00  0.00    -0.195 NA
ATOM     10  C   LIG    1       24.268 -21.497   7.822  0.00  0.00    +0.201 A 
BRANCH   7  11
ATOM     11  N   LIG    1       26.410 -26.391   5.865  0.00  0.00    -0.327 N 
ATOM     12  H   LIG    1       25.989 -27.282   6.082  0.00  0.00    +0.145 HD
ATOM     13  H   LIG    1       27.332 -26.217   6.242  0.00  0.00    +0.145 HD
ENDBRANCH   7  11
ENDBRANCH   1   2
BRANCH   1  14
ATOM     14  C   LIG    1       27.185 -20.339   7.825  0.00  0.00    +0.032 C 
BRANCH  14  15
ATOM     15  C   LIG    1       28.105 -20.399   6.580  0.00  0.00    +0.066 C 
BRANCH  15  16
ATOM     16  C   LIG    1       29.404 -19.594   6.768  0.00  0.00    +0.239 C 
BRANCH  16  17
ATOM     17  O   LIG    1       30.307 -20.275   7.662  0.00  0.00    -0.464 OA
BRANCH  17  19
ATOM     18  C   LIG    1       30.310 -18.176   8.744  0.00  0.00    +0.136 C 
ATOM     19  C   LIG    1       30.991 -19.495   8.544  0.00  0.00    +0.304 C 
ATOM     20  O   LIG    1       31.998 -19.829   9.153  0.00  0.00    -0.251 OA
ENDBRANCH  17  19
ENDBRANCH  16  17
ENDBRANCH  15  16
BRANCH  15  21
ATOM     21  C   LIG    1       27.390 -19.915   5.295  0.00  0.00    +0.239 C 
BRANCH  21  22
ATOM     22  O   LIG    1       25.955 -20.027   5.386  0.00  0.00    -0.464 OA
BRANCH  22  23
ATOM     23  C   LIG    1       25.266 -19.882   4.231  0.00  0.00    +0.304 C 
ATOM     24  O   LIG    1       25.386 -18.928   3.473  0.00  0.00    -0.251 OA
ATOM     25  C   LIG    1       24.365 -21.033   3.970  0.00  0.00    +0.136 C 
ENDBRANCH  22  23
ENDBRANCH  21  22
ENDBRANCH  15  21
ENDBRANCH  14  15
ENDBRANCH   1  14
TORSDOF 10
ENDMDL
MODEL 8
REMARK VINA RESULT:      -7.1      1.966      4.010
REMARK  Name = *****
REMARK                            x       y       z     vdW  Elec       q    Type
REMARK                         _______ _______ _______ _____ _____    ______ ____
ROOT
ATOM      1  C   LIG    1       28.007 -20.144   7.839  0.00  0.00    +0.125 C 
ENDROOT
BRANCH   1   2
ATOM      2  N   LIG    1       29.310 -19.580   7.562  0.00  0.00    -0.315 N 
ATOM      3  C   LIG    1       30.143 -18.951   8.449  0.00  0.00    +0.165 A 
ATOM      4  C   LIG    1       31.241 -18.569   7.693  0.00  0.00    +0.126 A 
ATOM      5  C   LIG    1       32.268 -17.939   8.383  0.00  0.00    +0.145 A 
ATOM      6  N   LIG    1       32.123 -17.693   9.710  0.00  0.00    -0.221 NA
ATOM      7  C   LIG    1       30.996 -18.100  10.322  0.00  0.00    +0.214 A 
ATOM      8  N   LIG    1       31.067 -18.893   6.371  0.00  0.00    -0.233 NA
ATOM      9  N   LIG    1       29.955 -18.740   9.762  0.00  0.00    -0.195 NA
ATOM     10  C   LIG    1       29.879 -19.457   6.319  0.00  0.00    +0.201 A 
BRANCH   7  11
ATOM     11  N   LIG    1       30.877 -17.765  11.659  0.00  0.00    -0.327 N 
ATOM     12  H   LIG    1       30.401 -18.508  12.148  0.00  0.00    +0.145 HD
ATOM     13  H   LIG    1       30.471 -16.841  11.724  0.00  0.00    +0.145 HD
ENDBRANCH   7  11
ENDBRANCH   1   2
BRANCH   1  14
ATOM     14  C   LIG    1       27.818 -21.636   7.487  0.00  0.00    +0.032 C 
BRANCH  14  15
ATOM     15  C   LIG    1       26.456 -22.025   6.858  0.00  0.00    +0.066 C 
BRANCH  15  16
ATOM     16  C   LIG    1       25.618 -20.796   6.461  0.00  0.00    +0.239 C 
BRANCH  16  17
ATOM     17  O   LIG    1       24.753 -21.099   5.349  0.00  0.00    -0.464 OA
BRANCH  17  19
ATOM     18  C   LIG    1       22.747 -19.886   5.638  0.00  0.00    +0.136 C 
ATOM     19  C   LIG    1       24.013 -20.067   4.858  0.00  0.00    +0.304 C 
ATOM     20  O   LIG    1       24.348 -19.328   3.941  0.00  0.00    -0.251 OA
ENDBRANCH  17  19
ENDBRANCH  16  17
ENDBRANCH  15  16
BRANCH  15  21
ATOM     21  C   LIG    1       25.617 -22.936   7.786  0.00  0.00    +0.239 C 
BRANCH  21  22
ATOM     22  O   LIG    1       25.476 -24.273   7.268  0.00  0.00    -0.464 OA
BRANCH  22  23
ATOM     23  C   LIG    1       24.635 -24.426   6.220  0.00  0.00    +0.304 C 
ATOM     24  O   LIG    1       24.984 -24.789   5.104  0.00  0.00    -0.251 OA
ATOM     25  C   LIG    1       23.226 -24.131   6.585  0.00  0.00    +0.136 C 
ENDBRANCH  22  23
ENDBRANCH  21  22
ENDBRANCH  15  21
ENDBRANCH  14  15
ENDBRANCH   1  14
TORSDOF 10
ENDMDL
MODEL 9
REMARK VINA RESULT:      -7.1      3.333      6.467
REMARK  Name = *****
REMARK                            x       y       z     vdW  Elec       q    Type
REMARK                         _______ _______ _______ _____ _____    ______ ____
ROOT
ATOM      1  C   LIG    1       27.008 -21.484   8.181  0.00  0.00    +0.125 C 
ENDROOT
BRANCH   1   2
ATOM      2  N   LIG    1       25.634 -21.792   7.850  0.00  0.00    -0.315 N 
ATOM      3  C   LIG    1       25.152 -22.967   7.338  0.00  0.00    +0.165 A 
ATOM      4  C   LIG    1       23.793 -22.748   7.167  0.00  0.00    +0.126 A 
ATOM      5  C   LIG    1       23.056 -23.824   6.694  0.00  0.00    +0.145 A 
ATOM      6  N   LIG    1       23.694 -24.981   6.383  0.00  0.00    -0.221 NA
ATOM      7  C   LIG    1       25.023 -25.057   6.577  0.00  0.00    +0.214 A 
ATOM      8  N   LIG    1       23.455 -21.461   7.503  0.00  0.00    -0.233 NA
ATOM      9  N   LIG    1       25.829 -24.092   7.054  0.00  0.00    -0.195 NA
ATOM     10  C   LIG    1       24.590 -20.901   7.864  0.00  0.00    +0.201 A 
BRANCH   7  11
ATOM     11  N   LIG    1       25.628 -26.236   6.182  0.00  0.00    -0.327 N 
ATOM     12  H   LIG    1       25.551 -26.332   5.180  0.00  0.00    +0.145 HD
ATOM     13  H   LIG    1       25.259 -26.992   6.744  0.00  0.00    +0.145 HD
ENDBRANCH   7  11
ENDBRANCH   1   2
BRANCH   1  14
ATOM     14  C   LIG    1       27.980 -21.326   6.992  0.00  0.00    +0.032 C 
BRANCH  14  15
ATOM     15  C   LIG    1       28.221 -19.880   6.489  0.00  0.00    +0.066 C 
BRANCH  15  16
ATOM     16  C   LIG    1       27.550 -19.611   5.130  0.00  0.00    +0.239 C 
BRANCH  16  17
ATOM     17  O   LIG    1       26.211 -20.145   5.101  0.00  0.00    -0.464 OA
BRANCH  17  19
ATOM     18  C   LIG    1       24.318 -20.694   3.801  0.00  0.00    +0.136 C 
ATOM     19  C   LIG    1       25.406 -19.708   4.093  0.00  0.00    +0.304 C 
ATOM     20  O   LIG    1       25.500 -18.626   3.529  0.00  0.00    -0.251 OA
ENDBRANCH  17  19
ENDBRANCH  16  17
ENDBRANCH  15  16
BRANCH  15  21
ATOM     21  C   LIG    1       29.727 -19.534   6.390  0.00  0.00    +0.239 C 
BRANCH  21  22
ATOM     22  O   LIG    1       30.052 -18.295   7.052  0.00  0.00    -0.464 OA
BRANCH  22  23
ATOM     23  C   LIG    1       30.831 -18.389   8.154  0.00  0.00    +0.304 C 
ATOM     24  O   LIG    1       31.898 -18.989   8.194  0.00  0.00    -0.251 OA
ATOM     25  C   LIG    1       30.256 -17.654   9.310  0.00  0.00    +0.136 C 
ENDBRANCH  22  23
ENDBRANCH  21  22
ENDBRANCH  15  21
ENDBRANCH  14  15
ENDBRANCH   1  14
TORSDOF 10
ENDMDL
