MODEL 1
REMARK VINA RESULT:      -8.3      0.000      0.000
REMARK  Name = *****
REMARK                            x       y       z     vdW  Elec       q    Type
REMARK                         _______ _______ _______ _____ _____    ______ ____
ROOT
ATOM      1  N   LIG    1       26.485 -20.856   5.570  0.00  0.00    -0.298 N 
ATOM      2  H   LIG    1       26.331 -21.661   6.181  0.00  0.00    +0.154 HD
ENDROOT
BRANCH   1   5
ATOM      3  C   LIG    1       27.986 -21.799   7.885  0.00  0.00    +0.047 C 
ATOM      4  C   LIG    1       28.461 -20.667   7.009  0.00  0.00    -0.011 A 
ATOM      5  C   LIG    1       27.677 -20.179   5.933  0.00  0.00    +0.037 A 
ATOM      6  C   LIG    1       28.109 -19.035   5.243  0.00  0.00    +0.023 A 
ATOM      7  C   LIG    1       29.344 -18.450   5.517  0.00  0.00    +0.003 A 
ATOM      8  C   LIG    1       30.154 -18.976   6.516  0.00  0.00    +0.020 A 
ATOM      9  C   LIG    1       29.702 -20.051   7.281  0.00  0.00    +0.046 A 
ATOM     10 CL   LIG    1       30.727 -20.589   8.568  0.00  0.00    -0.083 Cl
ENDBRANCH   1   5
BRANCH   1  11
ATOM     11  C   LIG    1       25.205 -20.369   5.259  0.00  0.00    +0.137 A 
ATOM     12  C   LIG    1       24.068 -20.501   6.063  0.00  0.00    +0.099 A 
ATOM     13  C   LIG    1       22.847 -19.987   5.597  0.00  0.00    +0.020 A 
ATOM     14  C   LIG    1       22.804 -19.279   4.404  0.00  0.00    +0.021 A 
ATOM     15  C   LIG    1       23.988 -19.116   3.716  0.00  0.00    +0.113 A 
ATOM     16  N   LIG    1       25.169 -19.653   4.109  0.00  0.00    -0.239 NA
BRANCH  12  17
ATOM     17  C   LIG    1       24.048 -21.062   7.431  0.00  0.00    +0.340 C 
ATOM     18  O   LIG    1       23.174 -21.820   7.808  0.00  0.00    -0.245 OA
BRANCH  17  19
ATOM     19  O   LIG    1       24.974 -20.533   8.259  0.00  0.00    -0.477 OA
ATOM     20  H   LIG    1       24.863 -20.786   9.198  0.00  0.00    +0.295 HD
ENDBRANCH  17  19
ENDBRANCH  12  17
ENDBRANCH   1  11
TORSDOF 4
ENDMDL
MODEL 2
REMARK VINA RESULT:      -8.0      3.373      5.696
REMARK  Name = *****
REMARK                            x       y       z     vdW  Elec       q    Type
REMARK                         _______ _______ _______ _____ _____    ______ ____
ROOT
ATOM      1  N   LIG    1       27.441 -21.628   7.235  0.00  0.00    -0.298 N 
ATOM      2  H   LIG    1       27.874 -22.497   6.913  0.00  0.00    +0.154 HD
ENDROOT
BRANCH   1   5
ATOM      3  C   LIG    1       26.243 -24.191   6.528  0.00  0.00    +0.047 C 
ATOM      4  C   LIG    1       25.424 -22.983   6.911  0.00  0.00    -0.011 A 
ATOM      5  C   LIG    1       26.028 -21.729   7.179  0.00  0.00    +0.037 A 
ATOM      6  C   LIG    1       25.205 -20.612   7.392  0.00  0.00    +0.023 A 
ATOM      7  C   LIG    1       23.818 -20.739   7.466  0.00  0.00    +0.003 A 
ATOM      8  C   LIG    1       23.227 -21.983   7.286  0.00  0.00    +0.020 A 
ATOM      9  C   LIG    1       24.017 -23.089   6.974  0.00  0.00    +0.046 A 
ATOM     10 CL   LIG    1       23.198 -24.583   6.672  0.00  0.00    -0.083 Cl
ENDBRANCH   1   5
BRANCH   1  11
ATOM     11  C   LIG    1       28.311 -20.602   6.832  0.00  0.00    +0.137 A 
ATOM     12  C   LIG    1       29.592 -20.373   7.345  0.00  0.00    +0.099 A 
ATOM     13  C   LIG    1       30.329 -19.281   6.860  0.00  0.00    +0.020 A 
ATOM     14  C   LIG    1       29.823 -18.510   5.823  0.00  0.00    +0.021 A 
ATOM     15  C   LIG    1       28.590 -18.858   5.312  0.00  0.00    +0.113 A 
ATOM     16  N   LIG    1       27.830 -19.867   5.800  0.00  0.00    -0.239 NA
BRANCH  12  17
ATOM     17  C   LIG    1       30.297 -21.248   8.307  0.00  0.00    +0.340 C 
ATOM     18  O   LIG    1       29.705 -21.881   9.161  0.00  0.00    -0.245 OA
BRANCH  17  19
ATOM     19  O   LIG    1       31.642 -21.148   8.261  0.00  0.00    -0.477 OA
ATOM     20  H   LIG    1       32.114 -21.956   8.547  0.00  0.00    +0.295 HD
ENDBRANCH  17  19
ENDBRANCH  12  17
ENDBRANCH   1  11
TORSDOF 4
ENDMDL
MODEL 3
REMARK VINA RESULT:      -7.9      2.687      5.218
REMARK  Name = *****
REMARK                            x       y       z     vdW  Elec       q    Type
REMARK                         _______ _______ _______ _____ _____    ______ ____
ROOT
ATOM      1  N   LIG    1       26.932 -20.466   5.002  0.00  0.00    -0.298 N 
ATOM      2  H   LIG    1       27.475 -20.778   4.194  0.00  0.00    +0.154 HD
ENDROOT
BRANCH   1   5
ATOM      3  C   LIG    1       24.624 -22.166   5.536  0.00  0.00    +0.047 C 
ATOM      4  C   LIG    1       24.504 -20.798   4.911  0.00  0.00    -0.011 A 
ATOM      5  C   LIG    1       25.648 -20.022   4.595  0.00  0.00    +0.037 A 
ATOM      6  C   LIG    1       25.478 -18.821   3.889  0.00  0.00    +0.023 A 
ATOM      7  C   LIG    1       24.207 -18.323   3.605  0.00  0.00    +0.003 A 
ATOM      8  C   LIG    1       23.081 -19.042   3.987  0.00  0.00    +0.020 A 
ATOM      9  C   LIG    1       23.226 -20.285   4.602  0.00  0.00    +0.046 A 
ATOM     10 CL   LIG    1       21.777 -21.160   4.962  0.00  0.00    -0.083 Cl
ENDBRANCH   1   5
BRANCH   1  11
ATOM     11  C   LIG    1       27.865 -19.904   5.888  0.00  0.00    +0.137 A 
ATOM     12  C   LIG    1       27.974 -20.201   7.250  0.00  0.00    +0.099 A 
ATOM     13  C   LIG    1       28.941 -19.528   8.015  0.00  0.00    +0.020 A 
ATOM     14  C   LIG    1       29.829 -18.659   7.397  0.00  0.00    +0.021 A 
ATOM     15  C   LIG    1       29.713 -18.490   6.033  0.00  0.00    +0.113 A 
ATOM     16  N   LIG    1       28.751 -19.078   5.280  0.00  0.00    -0.239 NA
BRANCH  12  17
ATOM     17  C   LIG    1       27.209 -21.249   7.961  0.00  0.00    +0.340 C 
ATOM     18  O   LIG    1       27.128 -22.388   7.542  0.00  0.00    -0.245 OA
BRANCH  17  19
ATOM     19  O   LIG    1       26.483 -20.792   9.003  0.00  0.00    -0.477 OA
ATOM     20  H   LIG    1       26.028 -19.942   8.833  0.00  0.00    +0.295 HD
ENDBRANCH  17  19
ENDBRANCH  12  17
ENDBRANCH   1  11
TORSDOF 4
ENDMDL
MODEL 4
REMARK VINA RESULT:      -7.9      3.630      6.331
REMARK  Name = *****
REMARK                            x       y       z     vdW  Elec       q    Type
REMARK                         _______ _______ _______ _____ _____    ______ ____
ROOT
ATOM      1  N   LIG    1       28.866 -21.146   7.229  0.00  0.00    -0.298 N 
ATOM      2  H   LIG    1       29.163 -21.298   6.263  0.00  0.00    +0.154 HD
ENDROOT
BRANCH   1   5
ATOM      3  C   LIG    1       27.254 -19.847   5.175  0.00  0.00    +0.047 C 
ATOM      4  C   LIG    1       26.651 -20.650   6.301  0.00  0.00    -0.011 A 
ATOM      5  C   LIG    1       27.452 -21.210   7.328  0.00  0.00    +0.037 A 
ATOM      6  C   LIG    1       26.822 -21.825   8.421  0.00  0.00    +0.023 A 
ATOM      7  C   LIG    1       25.439 -22.001   8.452  0.00  0.00    +0.003 A 
ATOM      8  C   LIG    1       24.657 -21.527   7.406  0.00  0.00    +0.020 A 
ATOM      9  C   LIG    1       25.251 -20.825   6.358  0.00  0.00    +0.046 A 
ATOM     10 CL   LIG    1       24.199 -20.185   5.142  0.00  0.00    -0.083 Cl
ENDBRANCH   1   5
BRANCH   1  11
ATOM     11  C   LIG    1       29.788 -20.235   7.769  0.00  0.00    +0.137 A 
ATOM     12  C   LIG    1       30.791 -20.545   8.693  0.00  0.00    +0.099 A 
ATOM     13  C   LIG    1       31.618 -19.514   9.166  0.00  0.00    +0.020 A 
ATOM     14  C   LIG    1       31.495 -18.234   8.644  0.00  0.00    +0.021 A 
ATOM     15  C   LIG    1       30.541 -18.032   7.669  0.00  0.00    +0.113 A 
ATOM     16  N   LIG    1       29.688 -18.993   7.238  0.00  0.00    -0.239 NA
BRANCH  12  17
ATOM     17  C   LIG    1       31.130 -21.907   9.163  0.00  0.00    +0.340 C 
ATOM     18  O   LIG    1       30.636 -22.388  10.166  0.00  0.00    -0.245 OA
BRANCH  17  19
ATOM     19  O   LIG    1       32.144 -22.487   8.488  0.00  0.00    -0.477 OA
ATOM     20  H   LIG    1       32.893 -22.768   9.053  0.00  0.00    +0.295 HD
ENDBRANCH  17  19
ENDBRANCH  12  17
ENDBRANCH   1  11
TORSDOF 4
ENDMDL
MODEL 5
REMARK VINA RESULT:      -7.8      2.746      5.571
REMARK  Name = *****
REMARK                            x       y       z     vdW  Elec       q    Type
REMARK                         _______ _______ _______ _____ _____    ______ ____
ROOT
ATOM      1  N   LIG    1       26.556 -20.468   4.997  0.00  0.00    -0.298 N 
ATOM      2  H   LIG    1       26.805 -20.259   4.028  0.00  0.00    +0.154 HD
ENDROOT
BRANCH   1   5
ATOM      3  C   LIG    1       25.064 -18.405   3.574  0.00  0.00    +0.047 C 
ATOM      4  C   LIG    1       24.397 -19.450   4.434  0.00  0.00    -0.011 A 
ATOM      5  C   LIG    1       25.150 -20.396   5.174  0.00  0.00    +0.037 A 
ATOM      6  C   LIG    1       24.480 -21.251   6.063  0.00  0.00    +0.023 A 
ATOM      7  C   LIG    1       23.087 -21.267   6.138  0.00  0.00    +0.003 A 
ATOM      8  C   LIG    1       22.341 -20.398   5.353  0.00  0.00    +0.020 A 
ATOM      9  C   LIG    1       22.989 -19.471   4.535  0.00  0.00    +0.046 A 
ATOM     10 CL   LIG    1       21.992 -18.360   3.660  0.00  0.00    -0.083 Cl
ENDBRANCH   1   5
BRANCH   1  11
ATOM     11  C   LIG    1       27.611 -19.963   5.775  0.00  0.00    +0.137 A 
ATOM     12  C   LIG    1       27.945 -20.387   7.065  0.00  0.00    +0.099 A 
ATOM     13  C   LIG    1       29.011 -19.759   7.729  0.00  0.00    +0.020 A 
ATOM     14  C   LIG    1       29.772 -18.805   7.068  0.00  0.00    +0.021 A 
ATOM     15  C   LIG    1       29.432 -18.509   5.764  0.00  0.00    +0.113 A 
ATOM     16  N   LIG    1       28.371 -19.053   5.119  0.00  0.00    -0.239 NA
BRANCH  12  17
ATOM     17  C   LIG    1       27.324 -21.524   7.779  0.00  0.00    +0.340 C 
ATOM     18  O   LIG    1       27.206 -22.623   7.269  0.00  0.00    -0.245 OA
BRANCH  17  19
ATOM     19  O   LIG    1       26.757 -21.193   8.958  0.00  0.00    -0.477 OA
ATOM     20  H   LIG    1       25.913 -21.654   9.141  0.00  0.00    +0.295 HD
ENDBRANCH  17  19
ENDBRANCH  12  17
ENDBRANCH   1  11
TORSDOF 4
ENDMDL
MODEL 6
REMARK VINA RESULT:      -7.8      2.521      3.559
REMARK  Name = *****
REMARK                            x       y       z     vdW  Elec       q    Type
REMARK                         _______ _______ _______ _____ _____    ______ ____
ROOT
ATOM      1  N   LIG    1       26.287 -22.341   7.538  0.00  0.00    -0.298 N 
ATOM      2  H   LIG    1       25.827 -21.993   8.382  0.00  0.00    +0.154 HD
ENDROOT
BRANCH   1   5
ATOM      3  C   LIG    1       28.987 -21.507   8.258  0.00  0.00    +0.047 C 
ATOM      4  C   LIG    1       28.224 -20.900   7.107  0.00  0.00    -0.011 A 
ATOM      5  C   LIG    1       26.885 -21.272   6.823  0.00  0.00    +0.037 A 
ATOM      6  C   LIG    1       26.183 -20.571   5.829  0.00  0.00    +0.023 A 
ATOM      7  C   LIG    1       26.814 -19.610   5.041  0.00  0.00    +0.003 A 
ATOM      8  C   LIG    1       28.151 -19.302   5.261  0.00  0.00    +0.020 A 
ATOM      9  C   LIG    1       28.841 -19.913   6.308  0.00  0.00    +0.046 A 
ATOM     10 CL   LIG    1       30.474 -19.407   6.577  0.00  0.00    -0.083 Cl
ENDBRANCH   1   5
BRANCH   1  11
ATOM     11  C   LIG    1       25.502 -23.419   7.099  0.00  0.00    +0.137 A 
ATOM     12  C   LIG    1       24.123 -23.382   6.871  0.00  0.00    +0.099 A 
ATOM     13  C   LIG    1       23.472 -24.557   6.464  0.00  0.00    +0.020 A 
ATOM     14  C   LIG    1       24.211 -25.702   6.203  0.00  0.00    +0.021 A 
ATOM     15  C   LIG    1       25.578 -25.630   6.366  0.00  0.00    +0.113 A 
ATOM     16  N   LIG    1       26.227 -24.529   6.816  0.00  0.00    -0.239 NA
BRANCH  12  17
ATOM     17  C   LIG    1       23.279 -22.168   6.931  0.00  0.00    +0.340 C 
ATOM     18  O   LIG    1       23.203 -21.480   7.932  0.00  0.00    -0.245 OA
BRANCH  17  19
ATOM     19  O   LIG    1       22.485 -21.994   5.854  0.00  0.00    -0.477 OA
ATOM     20  H   LIG    1       22.895 -22.259   5.005  0.00  0.00    +0.295 HD
ENDBRANCH  17  19
ENDBRANCH  12  17
ENDBRANCH   1  11
TORSDOF 4
ENDMDL
MODEL 7
REMARK VINA RESULT:      -7.8      2.563      3.792
REMARK  Name = *****
REMARK                            x       y       z     vdW  Elec       q    Type
REMARK                         _______ _______ _______ _____ _____    ______ ____
ROOT
ATOM      1  N   LIG    1       26.088 -22.028   7.822  0.00  0.00    -0.298 N 
ATOM      2  H   LIG    1       25.353 -21.340   8.004  0.00  0.00    +0.154 HD
ENDROOT
BRANCH   1   5
ATOM      3  C   LIG    1       26.076 -20.190   5.558  0.00  0.00    +0.047 C 
ATOM      4  C   LIG    1       27.296 -20.424   6.414  0.00  0.00    -0.011 A 
ATOM      5  C   LIG    1       27.296 -21.377   7.464  0.00  0.00    +0.037 A 
ATOM      6  C   LIG    1       28.500 -21.650   8.133  0.00  0.00    +0.023 A 
ATOM      7  C   LIG    1       29.656 -20.917   7.866  0.00  0.00    +0.003 A 
ATOM      8  C   LIG    1       29.638 -19.924   6.895  0.00  0.00    +0.020 A 
ATOM      9  C   LIG    1       28.481 -19.704   6.149  0.00  0.00    +0.046 A 
ATOM     10 CL   LIG    1       28.566 -18.514   4.894  0.00  0.00    -0.083 Cl
ENDBRANCH   1   5
BRANCH   1  11
ATOM     11  C   LIG    1       25.435 -23.138   7.262  0.00  0.00    +0.137 A 
ATOM     12  C   LIG    1       24.097 -23.176   6.859  0.00  0.00    +0.099 A 
ATOM     13  C   LIG    1       23.578 -24.375   6.346  0.00  0.00    +0.020 A 
ATOM     14  C   LIG    1       24.416 -25.466   6.157  0.00  0.00    +0.021 A 
ATOM     15  C   LIG    1       25.744 -25.317   6.497  0.00  0.00    +0.113 A 
ATOM     16  N   LIG    1       26.259 -24.193   7.051  0.00  0.00    -0.239 NA
BRANCH  12  17
ATOM     17  C   LIG    1       23.177 -22.017   6.836  0.00  0.00    +0.340 C 
ATOM     18  O   LIG    1       23.102 -21.231   7.762  0.00  0.00    -0.245 OA
BRANCH  17  19
ATOM     19  O   LIG    1       22.324 -22.010   5.790  0.00  0.00    -0.477 OA
ATOM     20  H   LIG    1       22.618 -21.460   5.036  0.00  0.00    +0.295 HD
ENDBRANCH  17  19
ENDBRANCH  12  17
ENDBRANCH   1  11
TORSDOF 4
ENDMDL
MODEL 8
REMARK VINA RESULT:      -7.5      3.677      5.892
REMARK  Name = *****
REMARK                            x       y       z     vdW  Elec       q    Type
REMARK                         _______ _______ _______ _____ _____    ______ ____
ROOT
ATOM      1  N   LIG    1       28.074 -21.853   7.826  0.00  0.00    -0.298 N 
ATOM      2  H   LIG    1       28.748 -22.613   7.940  0.00  0.00    +0.154 HD
ENDROOT
BRANCH   1   5
ATOM      3  C   LIG    1       25.695 -20.433   8.737  0.00  0.00    +0.047 C 
ATOM      4  C   LIG    1       25.629 -21.657   7.857  0.00  0.00    -0.011 A 
ATOM      5  C   LIG    1       26.797 -22.371   7.488  0.00  0.00    +0.037 A 
ATOM      6  C   LIG    1       26.660 -23.579   6.786  0.00  0.00    +0.023 A 
ATOM      7  C   LIG    1       25.413 -24.019   6.343  0.00  0.00    +0.003 A 
ATOM      8  C   LIG    1       24.274 -23.278   6.631  0.00  0.00    +0.020 A 
ATOM      9  C   LIG    1       24.375 -22.127   7.413  0.00  0.00    +0.046 A 
ATOM     10 CL   LIG    1       22.900 -21.311   7.807  0.00  0.00    -0.083 Cl
ENDBRANCH   1   5
BRANCH   1  11
ATOM     11  C   LIG    1       28.803 -20.778   7.295  0.00  0.00    +0.137 A 
ATOM     12  C   LIG    1       30.050 -20.337   7.751  0.00  0.00    +0.099 A 
ATOM     13  C   LIG    1       30.640 -19.221   7.135  0.00  0.00    +0.020 A 
ATOM     14  C   LIG    1       30.032 -18.638   6.033  0.00  0.00    +0.021 A 
ATOM     15  C   LIG    1       28.848 -19.189   5.590  0.00  0.00    +0.113 A 
ATOM     16  N   LIG    1       28.225 -20.226   6.201  0.00  0.00    -0.239 NA
BRANCH  12  17
ATOM     17  C   LIG    1       30.867 -21.007   8.786  0.00  0.00    +0.340 C 
ATOM     18  O   LIG    1       30.472 -21.985   9.391  0.00  0.00    -0.245 OA
BRANCH  17  19
ATOM     19  O   LIG    1       31.998 -20.345   9.111  0.00  0.00    -0.477 OA
ATOM     20  H   LIG    1       32.046 -19.434   8.756  0.00  0.00    +0.295 HD
ENDBRANCH  17  19
ENDBRANCH  12  17
ENDBRANCH   1  11
TORSDOF 4
ENDMDL
MODEL 9
REMARK VINA RESULT:      -7.5      3.244      5.660
REMARK  Name = *****
REMARK                            x       y       z     vdW  Elec       q    Type
REMARK                         _______ _______ _______ _____ _____    ______ ____
ROOT
ATOM      1  N   LIG    1       26.254 -20.901   7.781  0.00  0.00    -0.298 N 
ATOM      2  H   LIG    1       26.344 -20.815   8.796  0.00  0.00    +0.154 HD
ENDROOT
BRANCH   1   5
ATOM      3  C   LIG    1       23.352 -20.889   7.497  0.00  0.00    +0.047 C 
ATOM      4  C   LIG    1       24.194 -22.111   7.228  0.00  0.00    -0.011 A 
ATOM      5  C   LIG    1       25.595 -22.111   7.444  0.00  0.00    +0.037 A 
ATOM      6  C   LIG    1       26.303 -23.317   7.310  0.00  0.00    +0.023 A 
ATOM      7  C   LIG    1       25.675 -24.475   6.852  0.00  0.00    +0.003 A 
ATOM      8  C   LIG    1       24.317 -24.457   6.559  0.00  0.00    +0.020 A 
ATOM      9  C   LIG    1       23.575 -23.297   6.779  0.00  0.00    +0.046 A 
ATOM     10 CL   LIG    1       21.872 -23.383   6.480  0.00  0.00    -0.083 Cl
ENDBRANCH   1   5
BRANCH   1  11
ATOM     11  C   LIG    1       27.403 -20.295   7.248  0.00  0.00    +0.137 A 
ATOM     12  C   LIG    1       27.549 -19.846   5.932  0.00  0.00    +0.099 A 
ATOM     13  C   LIG    1       28.777 -19.290   5.539  0.00  0.00    +0.020 A 
ATOM     14  C   LIG    1       29.784 -19.106   6.475  0.00  0.00    +0.021 A 
ATOM     15  C   LIG    1       29.527 -19.494   7.774  0.00  0.00    +0.113 A 
ATOM     16  N   LIG    1       28.376 -20.090   8.169  0.00  0.00    -0.239 NA
BRANCH  12  17
ATOM     17  C   LIG    1       26.476 -19.817   4.914  0.00  0.00    +0.340 C 
ATOM     18  O   LIG    1       25.692 -20.737   4.772  0.00  0.00    -0.245 OA
BRANCH  17  19
ATOM     19  O   LIG    1       26.551 -18.773   4.062  0.00  0.00    -0.477 OA
ATOM     20  H   LIG    1       25.984 -18.013   4.306  0.00  0.00    +0.295 HD
ENDBRANCH  17  19
ENDBRANCH  12  17
ENDBRANCH   1  11
TORSDOF 4
ENDMDL
