MODEL 1
REMARK VINA RESULT:      -0.7      0.000      0.000
REMARK  Name = *****
REMARK                            x       y       z     vdW  Elec       q    Type
REMARK                         _______ _______ _______ _____ _____    ______ ____
ROOT
ATOM      1  N   LIG    1       25.401 -15.487   3.375  0.00  0.00    -0.297 N 
ATOM      2  C   LIG    1       24.454 -16.454   3.821  0.00  0.00    +0.050 A 
ATOM      3  C   LIG    1       23.243 -16.060   4.446  0.00  0.00    +0.034 A 
ATOM      4  C   LIG    1       22.288 -17.002   4.872  0.00  0.00    +0.019 A 
ATOM      5  C   LIG    1       22.515 -18.359   4.706  0.00  0.00    +0.030 A 
ATOM      6  C   LIG    1       23.697 -18.769   4.094  0.00  0.00    +0.107 A 
ATOM      7  S   LIG    1       22.846 -14.363   4.798  0.00  0.00    -0.086 S 
ATOM      8  C   LIG    1       23.896 -13.533   3.630  0.00  0.00    +0.034 A 
ATOM      9  C   LIG    1       23.536 -12.205   3.323  0.00  0.00    +0.017 A 
ATOM     10  C   LIG    1       24.298 -11.448   2.444  0.00  0.00    +0.001 A 
ATOM     11  C   LIG    1       25.396 -12.031   1.834  0.00  0.00    +0.002 A 
ATOM     12  C   LIG    1       25.741 -13.359   2.119  0.00  0.00    +0.024 A 
ATOM     13  C   LIG    1       24.639 -17.835   3.631  0.00  0.00    +0.053 A 
ATOM     14  C   LIG    1       25.035 -14.142   3.056  0.00  0.00    +0.048 A 
ENDROOT
BRANCH   6  15
ATOM     15  S   LIG    1       24.054 -20.512   4.020  0.00  0.00    +0.060 S 
ATOM     16  O   LIG    1       24.769 -20.745   2.793  0.00  0.00    -0.153 OA
ATOM     17  O   LIG    1       22.805 -21.215   4.304  0.00  0.00    -0.153 OA
BRANCH  15  18
ATOM     18  N   LIG    1       25.121 -20.757   5.317  0.00  0.00    -0.183 NA
ATOM     19  C   LIG    1       24.546 -20.744   6.666  0.00  0.00    +0.131 C 
ATOM     20  C   LIG    1       26.428 -20.074   5.245  0.00  0.00    +0.131 C 
ENDBRANCH  15  18
ENDBRANCH   6  15
BRANCH   1  21
ATOM     21  C   LIG    1       26.796 -15.934   3.050  0.00  0.00    +0.129 C 
BRANCH  21  23
ATOM     22  C   LIG    1       28.195 -16.134   5.162  0.00  0.00    +0.026 C 
ATOM     23  C   LIG    1       27.969 -15.293   3.891  0.00  0.00    +0.071 C 
BRANCH  23  24
ATOM     24  N   LIG    1       27.670 -13.867   4.287  0.00  0.00    -0.304 NA
ATOM     25  C   LIG    1       28.771 -12.938   4.007  0.00  0.00    +0.105 C 
ATOM     26  C   LIG    1       27.323 -13.731   5.712  0.00  0.00    +0.105 C 
ENDBRANCH  23  24
ENDBRANCH  21  23
ENDBRANCH   1  21
TORSDOF 5
ENDMDL
MODEL 2
REMARK VINA RESULT:      -0.2      2.911      6.383
REMARK  Name = *****
REMARK                            x       y       z     vdW  Elec       q    Type
REMARK                         _______ _______ _______ _____ _____    ______ ____
ROOT
ATOM      1  N   LIG    1       25.191 -18.636   4.327  0.00  0.00    -0.297 N 
ATOM      2  C   LIG    1       24.714 -17.323   4.047  0.00  0.00    +0.050 A 
ATOM      3  C   LIG    1       23.325 -17.037   4.022  0.00  0.00    +0.034 A 
ATOM      4  C   LIG    1       22.839 -15.741   3.769  0.00  0.00    +0.019 A 
ATOM      5  C   LIG    1       23.716 -14.697   3.518  0.00  0.00    +0.030 A 
ATOM      6  C   LIG    1       25.084 -14.954   3.539  0.00  0.00    +0.107 A 
ATOM      7  S   LIG    1       22.078 -18.285   4.247  0.00  0.00    -0.086 S 
ATOM      8  C   LIG    1       23.012 -19.528   5.107  0.00  0.00    +0.034 A 
ATOM      9  C   LIG    1       22.253 -20.473   5.826  0.00  0.00    +0.017 A 
ATOM     10  C   LIG    1       22.872 -21.506   6.514  0.00  0.00    +0.001 A 
ATOM     11  C   LIG    1       24.256 -21.572   6.524  0.00  0.00    +0.002 A 
ATOM     12  C   LIG    1       25.013 -20.619   5.830  0.00  0.00    +0.024 A 
ATOM     13  C   LIG    1       25.579 -16.236   3.827  0.00  0.00    +0.053 A 
ATOM     14  C   LIG    1       24.424 -19.593   5.063  0.00  0.00    +0.048 A 
ENDROOT
BRANCH   6  15
ATOM     15  S   LIG    1       26.200 -13.649   3.066  0.00  0.00    +0.060 S 
ATOM     16  O   LIG    1       25.453 -12.420   3.109  0.00  0.00    -0.153 OA
ATOM     17  O   LIG    1       26.864 -14.080   1.839  0.00  0.00    -0.153 OA
BRANCH  15  18
ATOM     18  N   LIG    1       27.343 -13.626   4.322  0.00  0.00    -0.183 NA
ATOM     19  C   LIG    1       26.843 -13.359   5.674  0.00  0.00    +0.131 C 
ATOM     20  C   LIG    1       28.628 -12.957   4.044  0.00  0.00    +0.131 C 
ENDBRANCH  15  18
ENDBRANCH   6  15
BRANCH   1  21
ATOM     21  C   LIG    1       26.616 -18.975   4.002  0.00  0.00    +0.129 C 
BRANCH  21  23
ATOM     22  C   LIG    1       28.708 -17.604   4.449  0.00  0.00    +0.026 C 
ATOM     23  C   LIG    1       27.707 -18.594   5.077  0.00  0.00    +0.071 C 
BRANCH  23  24
ATOM     24  N   LIG    1       28.457 -19.804   5.580  0.00  0.00    -0.304 NA
ATOM     25  C   LIG    1       27.586 -20.835   6.156  0.00  0.00    +0.105 C 
ATOM     26  C   LIG    1       29.475 -19.466   6.589  0.00  0.00    +0.105 C 
ENDBRANCH  23  24
ENDBRANCH  21  23
ENDBRANCH   1  21
TORSDOF 5
ENDMDL
