MODEL 1
REMARK VINA RESULT:      -5.4      0.000      0.000
REMARK  Name = *****
REMARK                            x       y       z     vdW  Elec       q    Type
REMARK                         _______ _______ _______ _____ _____    ______ ____
ROOT
ATOM      1  C   LIG    1       23.028 -18.958   3.936  0.00  0.00    +0.125 C 
ENDROOT
BRANCH   1   5
ATOM      2  C   LIG    1       25.304 -20.907   5.982  0.00  0.00    +0.233 A 
ATOM      3  S   LIG    1       23.998 -21.527   6.906  0.00  0.00    -0.041 S 
ATOM      4  C   LIG    1       22.908 -20.559   6.003  0.00  0.00    +0.074 A 
ATOM      5  C   LIG    1       23.570 -19.898   4.983  0.00  0.00    +0.062 A 
ATOM      6  N   LIG    1       24.948 -20.092   5.007  0.00  0.00    -0.213 NA
BRANCH   2   7
ATOM      7  N   LIG    1       26.580 -21.211   6.303  0.00  0.00    -0.222 N 
ATOM      8  H   LIG    1       26.745 -22.004   6.907  0.00  0.00    +0.267 HD
BRANCH   7  11
ATOM      9  N   LIG    1       27.872 -19.827   4.987  0.00  0.00    -0.129 NA
ATOM     10  H   LIG    1       28.795 -19.388   5.017  0.00  0.00    +0.306 HD
ATOM     11  C   LIG    1       27.696 -20.470   6.089  0.00  0.00    +0.383 C 
BRANCH  11  12
ATOM     12  N   LIG    1       28.635 -20.486   7.060  0.00  0.00    -0.289 N 
ATOM     13  H   LIG    1       29.317 -19.734   6.948  0.00  0.00    +0.255 HD
ATOM     14  H   LIG    1       29.066 -21.374   7.267  0.00  0.00    +0.255 HD
ENDBRANCH  11  12
ENDBRANCH   7  11
ENDBRANCH   2   7
ENDBRANCH   1   5
BRANCH   1  15
ATOM     15  S   LIG    1       22.409 -17.366   4.580  0.00  0.00    -0.154 S 
BRANCH  15  16
ATOM     16  C   LIG    1       23.796 -16.243   4.120  0.00  0.00    +0.081 C 
BRANCH  16  17
ATOM     17  C   LIG    1       23.531 -14.794   4.503  0.00  0.00    +0.140 C 
BRANCH  17  18
ATOM     18  C   LIG    1       24.388 -13.856   3.693  0.00  0.00    +0.303 C 
ATOM     19  N   LIG    1       23.873 -13.156   2.742  0.00  0.00    -0.102 NA
ATOM     20  H   LIG    1       24.581 -12.585   2.279  0.00  0.00    +0.363 HD
BRANCH  18  21
ATOM     21  N   LIG    1       25.738 -13.666   4.012  0.00  0.00    -0.085 N 
ATOM     22  H   LIG    1       26.025 -12.858   4.552  0.00  0.00    +0.327 HD
BRANCH  21  23
ATOM     23  S   LIG    1       27.015 -14.371   3.230  0.00  0.00    +0.168 S 
ATOM     24  O   LIG    1       26.695 -14.359   1.823  0.00  0.00    -0.118 OA
ATOM     25  O   LIG    1       27.489 -15.535   3.911  0.00  0.00    -0.118 OA
BRANCH  23  26
ATOM     26  N   LIG    1       28.144 -13.161   3.434  0.00  0.00    -0.173 NA
ATOM     27  H   LIG    1       27.884 -12.359   2.858  0.00  0.00    +0.147 HD
ATOM     28  H   LIG    1       29.063 -13.513   3.155  0.00  0.00    +0.147 HD
ENDBRANCH  23  26
ENDBRANCH  21  23
ENDBRANCH  18  21
ENDBRANCH  17  18
ENDBRANCH  16  17
ENDBRANCH  15  16
ENDBRANCH   1  15
TORSDOF 11
ENDMDL
MODEL 2
REMARK VINA RESULT:      -4.4      2.117      2.483
REMARK  Name = *****
REMARK                            x       y       z     vdW  Elec       q    Type
REMARK                         _______ _______ _______ _____ _____    ______ ____
ROOT
ATOM      1  C   LIG    1       24.277 -19.345   3.550  0.00  0.00    +0.125 C 
ENDROOT
BRANCH   1   5
ATOM      2  C   LIG    1       25.913 -20.925   6.376  0.00  0.00    +0.233 A 
ATOM      3  S   LIG    1       24.403 -21.450   7.002  0.00  0.00    -0.041 S 
ATOM      4  C   LIG    1       23.600 -20.648   5.716  0.00  0.00    +0.074 A 
ATOM      5  C   LIG    1       24.514 -20.115   4.825  0.00  0.00    +0.062 A 
ATOM      6  N   LIG    1       25.835 -20.263   5.238  0.00  0.00    -0.213 NA
BRANCH   2   7
ATOM      7  N   LIG    1       27.056 -21.145   7.062  0.00  0.00    -0.222 N 
ATOM      8  H   LIG    1       26.986 -21.482   8.012  0.00  0.00    +0.267 HD
BRANCH   7  11
ATOM      9  N   LIG    1       29.326 -21.539   6.983  0.00  0.00    -0.129 NA
ATOM     10  H   LIG    1       30.177 -21.049   6.697  0.00  0.00    +0.306 HD
ATOM     11  C   LIG    1       28.318 -20.781   6.723  0.00  0.00    +0.383 C 
BRANCH  11  12
ATOM     12  N   LIG    1       28.472 -19.565   6.155  0.00  0.00    -0.289 N 
ATOM     13  H   LIG    1       29.374 -19.144   6.386  0.00  0.00    +0.255 HD
ATOM     14  H   LIG    1       27.706 -18.915   6.246  0.00  0.00    +0.255 HD
ENDBRANCH  11  12
ENDBRANCH   7  11
ENDBRANCH   2   7
ENDBRANCH   1   5
BRANCH   1  15
ATOM     15  S   LIG    1       24.411 -17.531   3.714  0.00  0.00    -0.154 S 
BRANCH  15  16
ATOM     16  C   LIG    1       26.093 -17.243   3.018  0.00  0.00    +0.081 C 
BRANCH  16  17
ATOM     17  C   LIG    1       26.842 -16.129   3.734  0.00  0.00    +0.140 C 
BRANCH  17  18
ATOM     18  C   LIG    1       26.368 -14.776   3.271  0.00  0.00    +0.303 C 
ATOM     19  N   LIG    1       26.502 -14.420   2.040  0.00  0.00    -0.102 NA
ATOM     20  H   LIG    1       26.150 -13.475   1.887  0.00  0.00    +0.363 HD
BRANCH  18  21
ATOM     21  N   LIG    1       25.698 -13.915   4.149  0.00  0.00    -0.085 N 
ATOM     22  H   LIG    1       26.023 -13.805   5.103  0.00  0.00    +0.327 HD
BRANCH  21  23
ATOM     23  S   LIG    1       24.145 -13.374   3.960  0.00  0.00    +0.168 S 
ATOM     24  O   LIG    1       24.006 -12.214   4.807  0.00  0.00    -0.118 OA
ATOM     25  O   LIG    1       23.199 -14.445   3.946  0.00  0.00    -0.118 OA
BRANCH  23  26
ATOM     26  N   LIG    1       24.267 -12.774   2.410  0.00  0.00    -0.173 NA
ATOM     27  H   LIG    1       24.997 -13.282   1.909  0.00  0.00    +0.147 HD
ATOM     28  H   LIG    1       24.499 -11.778   2.457  0.00  0.00    +0.147 HD
ENDBRANCH  23  26
ENDBRANCH  21  23
ENDBRANCH  18  21
ENDBRANCH  17  18
ENDBRANCH  16  17
ENDBRANCH  15  16
ENDBRANCH   1  15
TORSDOF 11
ENDMDL
MODEL 3
REMARK VINA RESULT:      -4.3      1.314      1.584
REMARK  Name = *****
REMARK                            x       y       z     vdW  Elec       q    Type
REMARK                         _______ _______ _______ _____ _____    ______ ____
ROOT
ATOM      1  C   LIG    1       21.989 -17.784   4.100  0.00  0.00    +0.125 C 
ENDROOT
BRANCH   1   5
ATOM      2  C   LIG    1       24.746 -20.096   4.563  0.00  0.00    +0.233 A 
ATOM      3  S   LIG    1       23.682 -21.298   5.171  0.00  0.00    -0.041 S 
ATOM      4  C   LIG    1       22.373 -20.199   5.032  0.00  0.00    +0.074 A 
ATOM      5  C   LIG    1       22.784 -19.019   4.438  0.00  0.00    +0.062 A 
ATOM      6  N   LIG    1       24.156 -18.973   4.201  0.00  0.00    -0.213 NA
BRANCH   2   7
ATOM      7  N   LIG    1       26.079 -20.309   4.533  0.00  0.00    -0.222 N 
ATOM      8  H   LIG    1       26.474 -20.751   3.715  0.00  0.00    +0.267 HD
BRANCH   7  11
ATOM      9  N   LIG    1       26.605 -20.345   6.778  0.00  0.00    -0.129 NA
ATOM     10  H   LIG    1       27.414 -20.160   7.375  0.00  0.00    +0.306 HD
ATOM     11  C   LIG    1       26.968 -20.194   5.551  0.00  0.00    +0.383 C 
BRANCH  11  12
ATOM     12  N   LIG    1       28.234 -19.860   5.222  0.00  0.00    -0.289 N 
ATOM     13  H   LIG    1       28.277 -18.988   4.691  0.00  0.00    +0.255 HD
ATOM     14  H   LIG    1       28.813 -20.585   4.825  0.00  0.00    +0.255 HD
ENDBRANCH  11  12
ENDBRANCH   7  11
ENDBRANCH   2   7
ENDBRANCH   1   5
BRANCH   1  15
ATOM     15  S   LIG    1       22.360 -16.327   5.136  0.00  0.00    -0.154 S 
BRANCH  15  16
ATOM     16  C   LIG    1       23.098 -15.191   3.886  0.00  0.00    +0.081 C 
BRANCH  16  17
ATOM     17  C   LIG    1       24.441 -14.627   4.325  0.00  0.00    +0.140 C 
BRANCH  17  18
ATOM     18  C   LIG    1       24.855 -13.475   3.447  0.00  0.00    +0.303 C 
ATOM     19  N   LIG    1       23.992 -12.595   3.070  0.00  0.00    -0.102 NA
ATOM     20  H   LIG    1       24.421 -11.891   2.469  0.00  0.00    +0.363 HD
BRANCH  18  21
ATOM     21  N   LIG    1       26.198 -13.292   3.095  0.00  0.00    -0.085 N 
ATOM     22  H   LIG    1       26.452 -13.120   2.129  0.00  0.00    +0.327 HD
BRANCH  21  23
ATOM     23  S   LIG    1       27.499 -13.770   4.000  0.00  0.00    +0.168 S 
ATOM     24  O   LIG    1       28.597 -12.909   3.631  0.00  0.00    -0.118 OA
ATOM     25  O   LIG    1       27.614 -15.192   4.069  0.00  0.00    -0.118 OA
BRANCH  23  26
ATOM     26  N   LIG    1       26.992 -13.221   5.490  0.00  0.00    -0.173 NA
ATOM     27  H   LIG    1       27.068 -12.204   5.517  0.00  0.00    +0.147 HD
ATOM     28  H   LIG    1       27.582 -13.638   6.215  0.00  0.00    +0.147 HD
ENDBRANCH  23  26
ENDBRANCH  21  23
ENDBRANCH  18  21
ENDBRANCH  17  18
ENDBRANCH  16  17
ENDBRANCH  15  16
ENDBRANCH   1  15
TORSDOF 11
ENDMDL
MODEL 4
REMARK VINA RESULT:      -4.2      3.175      6.900
REMARK  Name = *****
REMARK                            x       y       z     vdW  Elec       q    Type
REMARK                         _______ _______ _______ _____ _____    ______ ____
ROOT
ATOM      1  C   LIG    1       23.194 -15.051   4.444  0.00  0.00    +0.125 C 
ENDROOT
BRANCH   1   5
ATOM      2  C   LIG    1       25.985 -13.269   2.963  0.00  0.00    +0.233 A 
ATOM      3  S   LIG    1       24.920 -12.160   2.201  0.00  0.00    -0.041 S 
ATOM      4  C   LIG    1       23.580 -13.029   2.828  0.00  0.00    +0.074 A 
ATOM      5  C   LIG    1       24.004 -14.047   3.664  0.00  0.00    +0.062 A 
ATOM      6  N   LIG    1       25.389 -14.182   3.706  0.00  0.00    -0.213 NA
BRANCH   2   7
ATOM      7  N   LIG    1       27.316 -13.207   2.742  0.00  0.00    -0.222 N 
ATOM      8  H   LIG    1       27.636 -12.957   1.816  0.00  0.00    +0.267 HD
BRANCH   7  11
ATOM      9  N   LIG    1       29.390 -12.938   3.713  0.00  0.00    -0.129 NA
ATOM     10  H   LIG    1       30.029 -13.470   4.308  0.00  0.00    +0.306 HD
ATOM     11  C   LIG    1       28.319 -13.635   3.548  0.00  0.00    +0.383 C 
BRANCH  11  12
ATOM     12  N   LIG    1       28.167 -14.849   4.121  0.00  0.00    -0.289 N 
ATOM     13  H   LIG    1       28.998 -15.136   4.642  0.00  0.00    +0.255 HD
ATOM     14  H   LIG    1       27.797 -15.587   3.542  0.00  0.00    +0.255 HD
ENDBRANCH  11  12
ENDBRANCH   7  11
ENDBRANCH   2   7
ENDBRANCH   1   5
BRANCH   1  15
ATOM     15  S   LIG    1       23.588 -16.797   4.087  0.00  0.00    -0.154 S 
BRANCH  15  16
ATOM     16  C   LIG    1       22.132 -17.642   4.838  0.00  0.00    +0.081 C 
BRANCH  16  17
ATOM     17  C   LIG    1       21.786 -18.949   4.141  0.00  0.00    +0.140 C 
BRANCH  17  18
ATOM     18  C   LIG    1       22.378 -20.125   4.872  0.00  0.00    +0.303 C 
ATOM     19  N   LIG    1       21.755 -21.252   4.914  0.00  0.00    -0.102 NA
ATOM     20  H   LIG    1       22.273 -21.942   5.459  0.00  0.00    +0.363 HD
BRANCH  18  21
ATOM     21  N   LIG    1       23.652 -20.041   5.448  0.00  0.00    -0.085 N 
ATOM     22  H   LIG    1       23.902 -19.241   6.017  0.00  0.00    +0.327 HD
BRANCH  21  23
ATOM     23  S   LIG    1       24.986 -20.884   4.948  0.00  0.00    +0.168 S 
ATOM     24  O   LIG    1       24.609 -21.571   3.736  0.00  0.00    -0.118 OA
ATOM     25  O   LIG    1       25.654 -21.530   6.033  0.00  0.00    -0.118 OA
BRANCH  23  26
ATOM     26  N   LIG    1       25.930 -19.603   4.451  0.00  0.00    -0.173 NA
ATOM     27  H   LIG    1       26.914 -19.873   4.499  0.00  0.00    +0.147 HD
ATOM     28  H   LIG    1       25.753 -18.803   5.063  0.00  0.00    +0.147 HD
ENDBRANCH  23  26
ENDBRANCH  21  23
ENDBRANCH  18  21
ENDBRANCH  17  18
ENDBRANCH  16  17
ENDBRANCH  15  16
ENDBRANCH   1  15
TORSDOF 11
ENDMDL
MODEL 5
REMARK VINA RESULT:      -4.1      2.913      7.565
REMARK  Name = *****
REMARK                            x       y       z     vdW  Elec       q    Type
REMARK                         _______ _______ _______ _____ _____    ______ ____
ROOT
ATOM      1  C   LIG    1       27.379 -17.460   4.072  0.00  0.00    +0.125 C 
ENDROOT
BRANCH   1   5
ATOM      2  C   LIG    1       26.365 -14.200   2.846  0.00  0.00    +0.233 A 
ATOM      3  S   LIG    1       27.625 -13.437   3.728  0.00  0.00    -0.041 S 
ATOM      4  C   LIG    1       28.078 -14.957   4.380  0.00  0.00    +0.074 A 
ATOM      5  C   LIG    1       27.326 -15.975   3.821  0.00  0.00    +0.062 A 
ATOM      6  N   LIG    1       26.331 -15.514   2.963  0.00  0.00    -0.213 NA
BRANCH   2   7
ATOM      7  N   LIG    1       25.470 -13.466   2.151  0.00  0.00    -0.222 N 
ATOM      8  H   LIG    1       25.680 -13.240   1.189  0.00  0.00    +0.267 HD
BRANCH   7  11
ATOM      9  N   LIG    1       23.907 -11.778   2.002  0.00  0.00    -0.129 NA
ATOM     10  H   LIG    1       23.138 -11.397   2.559  0.00  0.00    +0.306 HD
ATOM     11  C   LIG    1       24.389 -12.797   2.624  0.00  0.00    +0.383 C 
BRANCH  11  12
ATOM     12  N   LIG    1       23.879 -13.214   3.804  0.00  0.00    -0.289 N 
ATOM     13  H   LIG    1       23.074 -13.831   3.679  0.00  0.00    +0.255 HD
ATOM     14  H   LIG    1       23.725 -12.512   4.511  0.00  0.00    +0.255 HD
ENDBRANCH  11  12
ENDBRANCH   7  11
ENDBRANCH   2   7
ENDBRANCH   1   5
BRANCH   1  15
ATOM     15  S   LIG    1       28.721 -18.001   5.186  0.00  0.00    -0.154 S 
BRANCH  15  16
ATOM     16  C   LIG    1       28.307 -19.786   5.386  0.00  0.00    +0.081 C 
BRANCH  16  17
ATOM     17  C   LIG    1       27.418 -20.051   6.592  0.00  0.00    +0.140 C 
BRANCH  17  18
ATOM     18  C   LIG    1       26.156 -20.767   6.186  0.00  0.00    +0.303 C 
ATOM     19  N   LIG    1       25.446 -21.390   7.062  0.00  0.00    -0.102 NA
ATOM     20  H   LIG    1       24.636 -21.838   6.631  0.00  0.00    +0.363 HD
BRANCH  18  21
ATOM     21  N   LIG    1       25.689 -20.700   4.867  0.00  0.00    -0.085 N 
ATOM     22  H   LIG    1       26.344 -20.663   4.096  0.00  0.00    +0.327 HD
BRANCH  21  23
ATOM     23  S   LIG    1       24.173 -20.214   4.413  0.00  0.00    +0.168 S 
ATOM     24  O   LIG    1       24.350 -19.144   3.461  0.00  0.00    -0.118 OA
ATOM     25  O   LIG    1       23.279 -20.127   5.525  0.00  0.00    -0.118 OA
BRANCH  23  26
ATOM     26  N   LIG    1       23.737 -21.542   3.505  0.00  0.00    -0.173 NA
ATOM     27  H   LIG    1       22.760 -21.772   3.694  0.00  0.00    +0.147 HD
ATOM     28  H   LIG    1       24.340 -22.329   3.757  0.00  0.00    +0.147 HD
ENDBRANCH  23  26
ENDBRANCH  21  23
ENDBRANCH  18  21
ENDBRANCH  17  18
ENDBRANCH  16  17
ENDBRANCH  15  16
ENDBRANCH   1  15
TORSDOF 11
ENDMDL
MODEL 6
REMARK VINA RESULT:      -3.7      2.678      3.992
REMARK  Name = *****
REMARK                            x       y       z     vdW  Elec       q    Type
REMARK                         _______ _______ _______ _____ _____    ______ ____
ROOT
ATOM      1  C   LIG    1       27.297 -18.197   4.170  0.00  0.00    +0.125 C 
ENDROOT
BRANCH   1   5
ATOM      2  C   LIG    1       24.921 -20.740   5.193  0.00  0.00    +0.233 A 
ATOM      3  S   LIG    1       26.003 -21.318   6.393  0.00  0.00    -0.041 S 
ATOM      4  C   LIG    1       27.173 -20.174   5.879  0.00  0.00    +0.074 A 
ATOM      5  C   LIG    1       26.652 -19.346   4.901  0.00  0.00    +0.062 A 
ATOM      6  N   LIG    1       25.366 -19.706   4.505  0.00  0.00    -0.213 NA
BRANCH   2   7
ATOM      7  N   LIG    1       23.744 -21.363   4.970  0.00  0.00    -0.222 N 
ATOM      8  H   LIG    1       23.764 -22.317   4.635  0.00  0.00    +0.267 HD
BRANCH   7  11
ATOM      9  N   LIG    1       21.450 -21.558   4.861  0.00  0.00    -0.129 NA
ATOM     10  H   LIG    1       20.634 -20.945   4.792  0.00  0.00    +0.306 HD
ATOM     11  C   LIG    1       22.502 -20.819   4.937  0.00  0.00    +0.383 C 
BRANCH  11  12
ATOM     12  N   LIG    1       22.425 -19.471   4.929  0.00  0.00    -0.289 N 
ATOM     13  H   LIG    1       23.270 -19.034   5.303  0.00  0.00    +0.255 HD
ATOM     14  H   LIG    1       21.580 -19.058   5.294  0.00  0.00    +0.255 HD
ENDBRANCH  11  12
ENDBRANCH   7  11
ENDBRANCH   2   7
ENDBRANCH   1   5
BRANCH   1  15
ATOM     15  S   LIG    1       26.129 -17.041   3.374  0.00  0.00    -0.154 S 
BRANCH  15  16
ATOM     16  C   LIG    1       27.208 -15.567   3.133  0.00  0.00    +0.081 C 
BRANCH  16  17
ATOM     17  C   LIG    1       27.597 -14.902   4.446  0.00  0.00    +0.140 C 
BRANCH  17  18
ATOM     18  C   LIG    1       26.660 -13.769   4.775  0.00  0.00    +0.303 C 
ATOM     19  N   LIG    1       26.611 -13.287   5.969  0.00  0.00    -0.102 NA
ATOM     20  H   LIG    1       25.920 -12.539   6.038  0.00  0.00    +0.363 HD
BRANCH  18  21
ATOM     21  N   LIG    1       25.890 -13.165   3.775  0.00  0.00    -0.085 N 
ATOM     22  H   LIG    1       26.333 -12.594   3.065  0.00  0.00    +0.327 HD
BRANCH  21  23
ATOM     23  S   LIG    1       24.259 -12.891   3.856  0.00  0.00    +0.168 S 
ATOM     24  O   LIG    1       23.785 -12.812   2.495  0.00  0.00    -0.118 OA
ATOM     25  O   LIG    1       23.924 -11.927   4.855  0.00  0.00    -0.118 OA
BRANCH  23  26
ATOM     26  N   LIG    1       23.773 -14.389   4.403  0.00  0.00    -0.173 NA
ATOM     27  H   LIG    1       24.590 -14.911   4.724  0.00  0.00    +0.147 HD
ATOM     28  H   LIG    1       23.313 -14.889   3.638  0.00  0.00    +0.147 HD
ENDBRANCH  23  26
ENDBRANCH  21  23
ENDBRANCH  18  21
ENDBRANCH  17  18
ENDBRANCH  16  17
ENDBRANCH  15  16
ENDBRANCH   1  15
TORSDOF 11
ENDMDL
MODEL 7
REMARK VINA RESULT:      -3.6      3.438      7.364
REMARK  Name = *****
REMARK                            x       y       z     vdW  Elec       q    Type
REMARK                         _______ _______ _______ _____ _____    ______ ____
ROOT
ATOM      1  C   LIG    1       24.440 -16.540   3.792  0.00  0.00    +0.125 C 
ENDROOT
BRANCH   1   5
ATOM      2  C   LIG    1       25.849 -13.331   4.728  0.00  0.00    +0.233 A 
ATOM      3  S   LIG    1       24.450 -12.513   4.164  0.00  0.00    -0.041 S 
ATOM      4  C   LIG    1       23.793 -14.009   3.644  0.00  0.00    +0.074 A 
ATOM      5  C   LIG    1       24.613 -15.060   4.016  0.00  0.00    +0.062 A 
ATOM      6  N   LIG    1       25.800 -14.645   4.614  0.00  0.00    -0.213 NA
BRANCH   2   7
ATOM      7  N   LIG    1       26.912 -12.639   5.190  0.00  0.00    -0.222 N 
ATOM      8  H   LIG    1       26.755 -11.940   5.903  0.00  0.00    +0.267 HD
BRANCH   7  11
ATOM      9  N   LIG    1       29.104 -11.926   5.260  0.00  0.00    -0.129 NA
ATOM     10  H   LIG    1       29.946 -11.989   4.683  0.00  0.00    +0.306 HD
ATOM     11  C   LIG    1       28.170 -12.601   4.683  0.00  0.00    +0.383 C 
BRANCH  11  12
ATOM     12  N   LIG    1       28.380 -13.253   3.519  0.00  0.00    -0.289 N 
ATOM     13  H   LIG    1       28.833 -12.659   2.822  0.00  0.00    +0.255 HD
ATOM     14  H   LIG    1       27.607 -13.777   3.140  0.00  0.00    +0.255 HD
ENDBRANCH  11  12
ENDBRANCH   7  11
ENDBRANCH   2   7
ENDBRANCH   1   5
BRANCH   1  15
ATOM     15  S   LIG    1       25.931 -17.405   3.191  0.00  0.00    -0.154 S 
BRANCH  15  16
ATOM     16  C   LIG    1       25.481 -19.157   3.540  0.00  0.00    +0.081 C 
BRANCH  16  17
ATOM     17  C   LIG    1       26.290 -19.757   4.681  0.00  0.00    +0.140 C 
BRANCH  17  18
ATOM     18  C   LIG    1       25.425 -20.623   5.559  0.00  0.00    +0.303 C 
ATOM     19  N   LIG    1       25.690 -20.756   6.813  0.00  0.00    -0.102 NA
ATOM     20  H   LIG    1       25.027 -21.385   7.267  0.00  0.00    +0.363 HD
BRANCH  18  21
ATOM     21  N   LIG    1       24.271 -21.232   5.049  0.00  0.00    -0.085 N 
ATOM     22  H   LIG    1       24.246 -21.549   4.087  0.00  0.00    +0.327 HD
BRANCH  21  23
ATOM     23  S   LIG    1       22.754 -21.101   5.696  0.00  0.00    +0.168 S 
ATOM     24  O   LIG    1       22.844 -21.571   7.057  0.00  0.00    -0.118 OA
ATOM     25  O   LIG    1       21.740 -21.535   4.787  0.00  0.00    -0.118 OA
BRANCH  23  26
ATOM     26  N   LIG    1       22.664 -19.440   5.811  0.00  0.00    -0.173 NA
ATOM     27  H   LIG    1       23.161 -19.134   6.649  0.00  0.00    +0.147 HD
ATOM     28  H   LIG    1       21.681 -19.163   5.864  0.00  0.00    +0.147 HD
ENDBRANCH  23  26
ENDBRANCH  21  23
ENDBRANCH  18  21
ENDBRANCH  17  18
ENDBRANCH  16  17
ENDBRANCH  15  16
ENDBRANCH   1  15
TORSDOF 11
ENDMDL
MODEL 8
REMARK VINA RESULT:      -3.6      3.071      6.030
REMARK  Name = *****
REMARK                            x       y       z     vdW  Elec       q    Type
REMARK                         _______ _______ _______ _____ _____    ______ ____
ROOT
ATOM      1  C   LIG    1       23.467 -14.060   3.682  0.00  0.00    +0.125 C 
ENDROOT
BRANCH   1   5
ATOM      2  C   LIG    1       26.982 -14.948   3.799  0.00  0.00    +0.233 A 
ATOM      3  S   LIG    1       27.405 -13.533   2.925  0.00  0.00    -0.041 S 
ATOM      4  C   LIG    1       25.744 -13.128   2.791  0.00  0.00    +0.074 A 
ATOM      5  C   LIG    1       24.963 -14.023   3.500  0.00  0.00    +0.062 A 
ATOM      6  N   LIG    1       25.693 -15.074   4.049  0.00  0.00    -0.213 NA
BRANCH   2   7
ATOM      7  N   LIG    1       27.922 -15.859   4.131  0.00  0.00    -0.222 N 
ATOM      8  H   LIG    1       28.873 -15.540   4.258  0.00  0.00    +0.267 HD
BRANCH   7  11
ATOM      9  N   LIG    1       26.784 -17.800   3.628  0.00  0.00    -0.129 NA
ATOM     10  H   LIG    1       26.886 -18.806   3.779  0.00  0.00    +0.306 HD
ATOM     11  C   LIG    1       27.816 -17.211   4.125  0.00  0.00    +0.383 C 
BRANCH  11  12
ATOM     12  N   LIG    1       28.813 -17.905   4.715  0.00  0.00    -0.289 N 
ATOM     13  H   LIG    1       29.541 -18.174   4.050  0.00  0.00    +0.255 HD
ATOM     14  H   LIG    1       28.547 -18.662   5.326  0.00  0.00    +0.255 HD
ENDBRANCH  11  12
ENDBRANCH   7  11
ENDBRANCH   2   7
ENDBRANCH   1   5
BRANCH   1  15
ATOM     15  S   LIG    1       22.880 -15.202   4.980  0.00  0.00    -0.154 S 
BRANCH  15  16
ATOM     16  C   LIG    1       23.132 -16.828   4.151  0.00  0.00    +0.081 C 
BRANCH  16  17
ATOM     17  C   LIG    1       22.034 -17.830   4.477  0.00  0.00    +0.140 C 
BRANCH  17  18
ATOM     18  C   LIG    1       22.608 -19.203   4.712  0.00  0.00    +0.303 C 
ATOM     19  N   LIG    1       21.833 -20.226   4.830  0.00  0.00    -0.102 NA
ATOM     20  H   LIG    1       22.368 -21.078   5.002  0.00  0.00    +0.363 HD
BRANCH  18  21
ATOM     21  N   LIG    1       23.994 -19.406   4.724  0.00  0.00    -0.085 N 
ATOM     22  H   LIG    1       24.617 -18.687   4.376  0.00  0.00    +0.327 HD
BRANCH  21  23
ATOM     23  S   LIG    1       24.745 -20.877   4.824  0.00  0.00    +0.168 S 
ATOM     24  O   LIG    1       24.466 -21.568   3.588  0.00  0.00    -0.118 OA
ATOM     25  O   LIG    1       24.578 -21.481   6.108  0.00  0.00    -0.118 OA
BRANCH  23  26
ATOM     26  N   LIG    1       26.327 -20.369   4.695  0.00  0.00    -0.173 NA
ATOM     27  H   LIG    1       26.609 -19.922   5.569  0.00  0.00    +0.147 HD
ATOM     28  H   LIG    1       26.401 -19.706   3.920  0.00  0.00    +0.147 HD
ENDBRANCH  23  26
ENDBRANCH  21  23
ENDBRANCH  18  21
ENDBRANCH  17  18
ENDBRANCH  16  17
ENDBRANCH  15  16
ENDBRANCH   1  15
TORSDOF 11
ENDMDL
MODEL 9
REMARK VINA RESULT:      -2.9      3.448      8.027
REMARK  Name = *****
REMARK                            x       y       z     vdW  Elec       q    Type
REMARK                         _______ _______ _______ _____ _____    ______ ____
ROOT
ATOM      1  C   LIG    1       27.403 -16.623   4.019  0.00  0.00    +0.125 C 
ENDROOT
BRANCH   1   5
ATOM      2  C   LIG    1       26.622 -13.272   2.872  0.00  0.00    +0.233 A 
ATOM      3  S   LIG    1       28.007 -12.639   3.664  0.00  0.00    -0.041 S 
ATOM      4  C   LIG    1       28.358 -14.201   4.281  0.00  0.00    +0.074 A 
ATOM      5  C   LIG    1       27.474 -15.138   3.775  0.00  0.00    +0.062 A 
ATOM      6  N   LIG    1       26.471 -14.577   2.989  0.00  0.00    -0.213 NA
BRANCH   2   7
ATOM      7  N   LIG    1       25.755 -12.450   2.243  0.00  0.00    -0.222 N 
ATOM      8  H   LIG    1       26.127 -11.659   1.735  0.00  0.00    +0.267 HD
BRANCH   7  11
ATOM      9  N   LIG    1       23.711 -11.474   1.812  0.00  0.00    -0.129 NA
ATOM     10  H   LIG    1       22.731 -11.608   2.071  0.00  0.00    +0.306 HD
ATOM     11  C   LIG    1       24.404 -12.413   2.357  0.00  0.00    +0.383 C 
BRANCH  11  12
ATOM     12  N   LIG    1       23.828 -13.371   3.115  0.00  0.00    -0.289 N 
ATOM     13  H   LIG    1       23.335 -12.981   3.921  0.00  0.00    +0.255 HD
ATOM     14  H   LIG    1       24.395 -14.170   3.356  0.00  0.00    +0.255 HD
ENDBRANCH  11  12
ENDBRANCH   7  11
ENDBRANCH   2   7
ENDBRANCH   1   5
BRANCH   1  15
ATOM     15  S   LIG    1       25.895 -17.434   3.385  0.00  0.00    -0.154 S 
BRANCH  15  16
ATOM     16  C   LIG    1       26.378 -19.208   3.505  0.00  0.00    +0.081 C 
BRANCH  16  17
ATOM     17  C   LIG    1       25.243 -20.152   3.136  0.00  0.00    +0.140 C 
BRANCH  17  18
ATOM     18  C   LIG    1       24.862 -21.022   4.306  0.00  0.00    +0.303 C 
ATOM     19  N   LIG    1       25.701 -21.242   5.258  0.00  0.00    -0.102 NA
ATOM     20  H   LIG    1       25.302 -21.861   5.966  0.00  0.00    +0.363 HD
BRANCH  18  21
ATOM     21  N   LIG    1       23.564 -21.535   4.422  0.00  0.00    -0.085 N 
ATOM     22  H   LIG    1       23.212 -22.190   3.733  0.00  0.00    +0.327 HD
BRANCH  21  23
ATOM     23  S   LIG    1       22.343 -20.859   5.311  0.00  0.00    +0.168 S 
ATOM     24  O   LIG    1       21.137 -21.572   4.965  0.00  0.00    -0.118 OA
ATOM     25  O   LIG    1       22.423 -19.433   5.341  0.00  0.00    -0.118 OA
BRANCH  23  26
ATOM     26  N   LIG    1       22.773 -21.431   6.817  0.00  0.00    -0.173 NA
ATOM     27  H   LIG    1       22.131 -21.054   7.516  0.00  0.00    +0.147 HD
ATOM     28  H   LIG    1       23.731 -21.137   7.023  0.00  0.00    +0.147 HD
ENDBRANCH  23  26
ENDBRANCH  21  23
ENDBRANCH  18  21
ENDBRANCH  17  18
ENDBRANCH  16  17
ENDBRANCH  15  16
ENDBRANCH   1  15
TORSDOF 11
ENDMDL
