MODEL 1
REMARK VINA RESULT:      -7.1      0.000      0.000
REMARK  Name = *****
REMARK                            x       y       z     vdW  Elec       q    Type
REMARK                         _______ _______ _______ _____ _____    ______ ____
ROOT
ATOM      1  C   LIG    1       23.492 -20.612   6.897  0.00  0.00    +0.009 C 
ATOM      2  C   LIG    1       24.533 -21.068   5.869  0.00  0.00    +0.009 C 
ATOM      3  C   LIG    1       25.852 -21.582   6.522  0.00  0.00    +0.095 C 
ATOM      4  C   LIG    1       25.555 -22.981   7.199  0.00  0.00    +0.130 C 
ATOM      5  N   LIG    1       24.804 -23.942   6.345  0.00  0.00    -0.299 N 
ATOM      6  C   LIG    1       25.106 -25.303   6.408  0.00  0.00    +0.230 C 
ATOM      7  O   LIG    1       26.028 -25.730   7.108  0.00  0.00    -0.275 OA
ATOM      8  C   LIG    1       23.595 -23.413   5.723  0.00  0.00    +0.108 C 
ATOM      9  C   LIG    1       23.944 -22.155   4.949  0.00  0.00    +0.024 C 
ENDROOT
BRANCH   3  10
ATOM     10  N   LIG    1       26.465 -20.594   7.504  0.00  0.00    -0.313 N 
ATOM     11  C   LIG    1       26.015 -20.815   8.893  0.00  0.00    +0.131 C 
BRANCH  10  12
ATOM     12  C   LIG    1       27.897 -20.583   7.571  0.00  0.00    +0.134 A 
ATOM     13  C   LIG    1       28.738 -19.766   6.753  0.00  0.00    +0.059 A 
ATOM     14  C   LIG    1       30.110 -19.852   6.969  0.00  0.00    +0.143 A 
ATOM     15  N   LIG    1       30.758 -18.996   6.121  0.00  0.00    -0.346 N 
ATOM     16  H   LIG    1       31.762 -18.875   6.102  0.00  0.00    +0.167 HD
ATOM     17  C   LIG    1       29.843 -18.364   5.322  0.00  0.00    +0.085 A 
ATOM     18  N   LIG    1       30.747 -20.628   7.853  0.00  0.00    -0.218 NA
ATOM     19  C   LIG    1       29.877 -21.357   8.565  0.00  0.00    +0.225 A 
ATOM     20  C   LIG    1       28.589 -18.823   5.683  0.00  0.00    +0.032 A 
ATOM     21  N   LIG    1       28.530 -21.366   8.492  0.00  0.00    -0.220 NA
ENDBRANCH  10  12
ENDBRANCH   3  10
BRANCH   6  22
ATOM     22  C   LIG    1       24.313 -26.279   5.555  0.00  0.00    +0.214 C 
BRANCH  22  23
ATOM     23  C   LIG    1       24.352 -27.621   6.124  0.00  0.00    +0.072 C 
ATOM     24  N   LIG    1       24.363 -28.711   6.538  0.00  0.00    -0.196 NA
ENDBRANCH  22  23
ENDBRANCH   6  22
TORSDOF 4
ENDMDL
MODEL 2
REMARK VINA RESULT:      -7.1      3.069      7.814
REMARK  Name = *****
REMARK                            x       y       z     vdW  Elec       q    Type
REMARK                         _______ _______ _______ _____ _____    ______ ____
ROOT
ATOM      1  C   LIG    1       29.553 -21.828   6.915  0.00  0.00    +0.009 C 
ATOM      2  C   LIG    1       28.998 -20.442   6.568  0.00  0.00    +0.009 C 
ATOM      3  C   LIG    1       27.989 -19.906   7.628  0.00  0.00    +0.095 C 
ATOM      4  C   LIG    1       28.801 -19.518   8.931  0.00  0.00    +0.130 C 
ATOM      5  N   LIG    1       30.023 -18.704   8.686  0.00  0.00    -0.299 N 
ATOM      6  C   LIG    1       30.378 -17.705   9.593  0.00  0.00    +0.230 C 
ATOM      7  O   LIG    1       29.671 -17.431  10.566  0.00  0.00    -0.275 OA
ATOM      8  C   LIG    1       30.924 -19.220   7.661  0.00  0.00    +0.108 C 
ATOM      9  C   LIG    1       30.145 -19.432   6.376  0.00  0.00    +0.024 C 
ENDROOT
BRANCH   3  10
ATOM     10  N   LIG    1       26.857 -20.877   7.932  0.00  0.00    -0.313 N 
ATOM     11  C   LIG    1       25.899 -20.346   8.923  0.00  0.00    +0.131 C 
BRANCH  10  12
ATOM     12  C   LIG    1       26.055 -21.275   6.812  0.00  0.00    +0.134 A 
ATOM     13  C   LIG    1       25.673 -22.624   6.533  0.00  0.00    +0.059 A 
ATOM     14  C   LIG    1       24.862 -22.836   5.421  0.00  0.00    +0.143 A 
ATOM     15  N   LIG    1       24.578 -24.170   5.314  0.00  0.00    -0.346 N 
ATOM     16  H   LIG    1       23.993 -24.564   4.588  0.00  0.00    +0.167 HD
ATOM     17  C   LIG    1       25.209 -24.855   6.317  0.00  0.00    +0.085 A 
ATOM     18  N   LIG    1       24.403 -21.918   4.563  0.00  0.00    -0.218 NA
ATOM     19  C   LIG    1       24.820 -20.691   4.904  0.00  0.00    +0.225 A 
ATOM     20  C   LIG    1       25.898 -23.929   7.081  0.00  0.00    +0.032 A 
ATOM     21  N   LIG    1       25.580 -20.324   5.957  0.00  0.00    -0.220 NA
ENDBRANCH  10  12
ENDBRANCH   3  10
BRANCH   6  22
ATOM     22  C   LIG    1       31.645 -16.899   9.350  0.00  0.00    +0.214 C 
BRANCH  22  23
ATOM     23  C   LIG    1       32.434 -16.788  10.571  0.00  0.00    +0.072 C 
ATOM     24  N   LIG    1       33.025 -16.709  11.574  0.00  0.00    -0.196 NA
ENDBRANCH  22  23
ENDBRANCH   6  22
TORSDOF 4
ENDMDL
MODEL 3
REMARK VINA RESULT:      -7.0      3.422      4.885
REMARK  Name = *****
REMARK                            x       y       z     vdW  Elec       q    Type
REMARK                         _______ _______ _______ _____ _____    ______ ____
ROOT
ATOM      1  C   LIG    1       27.412 -22.257   7.731  0.00  0.00    +0.009 C 
ATOM      2  C   LIG    1       27.058 -20.769   7.825  0.00  0.00    +0.009 C 
ATOM      3  C   LIG    1       27.581 -19.940   6.612  0.00  0.00    +0.095 C 
ATOM      4  C   LIG    1       26.709 -20.313   5.345  0.00  0.00    +0.130 C 
ATOM      5  N   LIG    1       25.239 -20.318   5.579  0.00  0.00    -0.299 N 
ATOM      6  C   LIG    1       24.380 -19.873   4.572  0.00  0.00    +0.230 C 
ATOM      7  O   LIG    1       24.809 -19.412   3.511  0.00  0.00    -0.275 OA
ATOM      8  C   LIG    1       24.792 -21.075   6.743  0.00  0.00    +0.108 C 
ATOM      9  C   LIG    1       25.535 -20.582   7.971  0.00  0.00    +0.024 C 
ENDROOT
BRANCH   3  10
ATOM     10  N   LIG    1       29.070 -20.122   6.352  0.00  0.00    -0.313 N 
ATOM     11  C   LIG    1       29.645 -19.034   5.535  0.00  0.00    +0.131 C 
BRANCH  10  12
ATOM     12  C   LIG    1       29.905 -20.200   7.514  0.00  0.00    +0.134 A 
ATOM     13  C   LIG    1       30.193 -19.097   8.377  0.00  0.00    +0.059 A 
ATOM     14  C   LIG    1       30.997 -19.351   9.485  0.00  0.00    +0.143 A 
ATOM     15  N   LIG    1       31.153 -18.199  10.206  0.00  0.00    -0.346 N 
ATOM     16  H   LIG    1       31.688 -18.140  11.062  0.00  0.00    +0.167 HD
ATOM     17  C   LIG    1       30.492 -17.175   9.583  0.00  0.00    +0.085 A 
ATOM     18  N   LIG    1       31.552 -20.516   9.836  0.00  0.00    -0.218 NA
ATOM     19  C   LIG    1       31.231 -21.482   8.966  0.00  0.00    +0.225 A 
ATOM     20  C   LIG    1       29.895 -17.697   8.448  0.00  0.00    +0.032 A 
ATOM     21  N   LIG    1       30.448 -21.400   7.869  0.00  0.00    -0.220 NA
ENDBRANCH  10  12
ENDBRANCH   3  10
BRANCH   6  22
ATOM     22  C   LIG    1       22.879 -19.910   4.808  0.00  0.00    +0.214 C 
BRANCH  22  23
ATOM     23  C   LIG    1       22.291 -18.586   4.642  0.00  0.00    +0.072 C 
ATOM     24  N   LIG    1       21.858 -17.516   4.477  0.00  0.00    -0.196 NA
ENDBRANCH  22  23
ENDBRANCH   6  22
TORSDOF 4
ENDMDL
MODEL 4
REMARK VINA RESULT:      -7.0      0.800      1.938
REMARK  Name = *****
REMARK                            x       y       z     vdW  Elec       q    Type
REMARK                         _______ _______ _______ _____ _____    ______ ____
ROOT
ATOM      1  C   LIG    1       23.838 -20.325   6.325  0.00  0.00    +0.009 C 
ATOM      2  C   LIG    1       24.940 -20.829   5.386  0.00  0.00    +0.009 C 
ATOM      3  C   LIG    1       26.203 -21.338   6.146  0.00  0.00    +0.095 C 
ATOM      4  C   LIG    1       25.839 -22.710   6.846  0.00  0.00    +0.130 C 
ATOM      5  N   LIG    1       25.134 -23.688   5.972  0.00  0.00    -0.299 N 
ATOM      6  C   LIG    1       25.410 -25.050   6.100  0.00  0.00    +0.230 C 
ATOM      7  O   LIG    1       26.275 -25.466   6.875  0.00  0.00    -0.275 OA
ATOM      8  C   LIG    1       23.979 -23.165   5.251  0.00  0.00    +0.108 C 
ATOM      9  C   LIG    1       24.400 -21.938   4.463  0.00  0.00    +0.024 C 
ENDROOT
BRANCH   3  10
ATOM     10  N   LIG    1       26.762 -20.326   7.135  0.00  0.00    -0.313 N 
ATOM     11  C   LIG    1       26.713 -20.805   8.532  0.00  0.00    +0.131 C 
BRANCH  10  12
ATOM     12  C   LIG    1       28.123 -19.927   6.924  0.00  0.00    +0.134 A 
ATOM     13  C   LIG    1       29.244 -20.485   7.613  0.00  0.00    +0.059 A 
ATOM     14  C   LIG    1       30.505 -20.008   7.264  0.00  0.00    +0.143 A 
ATOM     15  N   LIG    1       31.456 -20.659   8.000  0.00  0.00    -0.346 N 
ATOM     16  H   LIG    1       32.450 -20.489   7.911  0.00  0.00    +0.167 HD
ATOM     17  C   LIG    1       30.851 -21.539   8.856  0.00  0.00    +0.085 A 
ATOM     18  N   LIG    1       30.796 -19.067   6.358  0.00  0.00    -0.218 NA
ATOM     19  C   LIG    1       29.683 -18.603   5.774  0.00  0.00    +0.225 A 
ATOM     20  C   LIG    1       29.486 -21.450   8.645  0.00  0.00    +0.032 A 
ATOM     21  N   LIG    1       28.404 -18.980   5.983  0.00  0.00    -0.220 NA
ENDBRANCH  10  12
ENDBRANCH   3  10
BRANCH   6  22
ATOM     22  C   LIG    1       24.663 -26.044   5.226  0.00  0.00    +0.214 C 
BRANCH  22  23
ATOM     23  C   LIG    1       24.490 -27.318   5.914  0.00  0.00    +0.072 C 
ATOM     24  N   LIG    1       24.400 -28.342   6.465  0.00  0.00    -0.196 NA
ENDBRANCH  22  23
ENDBRANCH   6  22
TORSDOF 4
ENDMDL
MODEL 5
REMARK VINA RESULT:      -6.8      2.427      7.266
REMARK  Name = *****
REMARK                            x       y       z     vdW  Elec       q    Type
REMARK                         _______ _______ _______ _____ _____    ______ ____
ROOT
ATOM      1  C   LIG    1       25.971 -20.685   8.875  0.00  0.00    +0.009 C 
ATOM      2  C   LIG    1       26.784 -21.570   7.924  0.00  0.00    +0.009 C 
ATOM      3  C   LIG    1       26.751 -21.071   6.447  0.00  0.00    +0.095 C 
ATOM      4  C   LIG    1       27.621 -19.752   6.352  0.00  0.00    +0.130 C 
ATOM      5  N   LIG    1       28.955 -19.835   7.008  0.00  0.00    -0.299 N 
ATOM      6  C   LIG    1       30.049 -19.191   6.429  0.00  0.00    +0.230 C 
ATOM      7  O   LIG    1       29.958 -18.603   5.347  0.00  0.00    -0.275 OA
ATOM      8  C   LIG    1       28.949 -20.340   8.376  0.00  0.00    +0.108 C 
ATOM      9  C   LIG    1       28.244 -21.684   8.407  0.00  0.00    +0.024 C 
ENDROOT
BRANCH   3  10
ATOM     10  N   LIG    1       25.341 -20.862   5.912  0.00  0.00    -0.313 N 
ATOM     11  C   LIG    1       25.309 -20.675   4.447  0.00  0.00    +0.131 C 
BRANCH  10  12
ATOM     12  C   LIG    1       24.407 -21.916   6.176  0.00  0.00    +0.134 A 
ATOM     13  C   LIG    1       24.732 -23.308   6.150  0.00  0.00    +0.059 A 
ATOM     14  C   LIG    1       23.713 -24.204   6.465  0.00  0.00    +0.143 A 
ATOM     15  N   LIG    1       24.199 -25.481   6.411  0.00  0.00    -0.346 N 
ATOM     16  H   LIG    1       23.644 -26.303   6.613  0.00  0.00    +0.167 HD
ATOM     17  C   LIG    1       25.515 -25.455   6.036  0.00  0.00    +0.085 A 
ATOM     18  N   LIG    1       22.445 -23.914   6.779  0.00  0.00    -0.218 NA
ATOM     19  C   LIG    1       22.239 -22.591   6.770  0.00  0.00    +0.225 A 
ATOM     20  C   LIG    1       25.871 -24.129   5.862  0.00  0.00    +0.032 A 
ATOM     21  N   LIG    1       23.123 -21.603   6.514  0.00  0.00    -0.220 NA
ENDBRANCH  10  12
ENDBRANCH   3  10
BRANCH   6  22
ATOM     22  C   LIG    1       31.400 -19.255   7.122  0.00  0.00    +0.214 C 
BRANCH  22  23
ATOM     23  C   LIG    1       31.579 -18.122   8.022  0.00  0.00    +0.072 C 
ATOM     24  N   LIG    1       31.754 -17.195   8.709  0.00  0.00    -0.196 NA
ENDBRANCH  22  23
ENDBRANCH   6  22
TORSDOF 4
ENDMDL
MODEL 6
REMARK VINA RESULT:      -6.1      3.031      4.924
REMARK  Name = *****
REMARK                            x       y       z     vdW  Elec       q    Type
REMARK                         _______ _______ _______ _____ _____    ______ ____
ROOT
ATOM      1  C   LIG    1       24.640 -22.857   7.592  0.00  0.00    +0.009 C 
ATOM      2  C   LIG    1       24.671 -21.344   7.835  0.00  0.00    +0.009 C 
ATOM      3  C   LIG    1       25.892 -20.643   7.165  0.00  0.00    +0.095 C 
ATOM      4  C   LIG    1       25.657 -20.630   5.600  0.00  0.00    +0.130 C 
ATOM      5  N   LIG    1       24.302 -20.181   5.176  0.00  0.00    -0.299 N 
ATOM      6  C   LIG    1       24.161 -19.416   4.017  0.00  0.00    +0.230 C 
ATOM      7  O   LIG    1       25.139 -19.044   3.363  0.00  0.00    -0.275 OA
ATOM      8  C   LIG    1       23.187 -20.834   5.851  0.00  0.00    +0.108 C 
ATOM      9  C   LIG    1       23.361 -20.691   7.352  0.00  0.00    +0.024 C 
ENDROOT
BRANCH   3  10
ATOM     10  N   LIG    1       27.228 -21.273   7.534  0.00  0.00    -0.313 N 
ATOM     11  C   LIG    1       27.463 -22.559   6.845  0.00  0.00    +0.131 C 
BRANCH  10  12
ATOM     12  C   LIG    1       28.391 -20.483   7.260  0.00  0.00    +0.134 A 
ATOM     13  C   LIG    1       29.665 -20.679   7.878  0.00  0.00    +0.059 A 
ATOM     14  C   LIG    1       30.703 -19.843   7.473  0.00  0.00    +0.143 A 
ATOM     15  N   LIG    1       31.845 -20.180   8.146  0.00  0.00    -0.346 N 
ATOM     16  H   LIG    1       32.735 -19.718   8.009  0.00  0.00    +0.167 HD
ATOM     17  C   LIG    1       31.581 -21.204   9.014  0.00  0.00    +0.085 A 
ATOM     18  N   LIG    1       30.646 -18.855   6.573  0.00  0.00    -0.218 NA
ATOM     19  C   LIG    1       29.415 -18.746   6.057  0.00  0.00    +0.225 A 
ATOM     20  C   LIG    1       30.243 -21.530   8.877  0.00  0.00    +0.032 A 
ATOM     21  N   LIG    1       28.322 -19.491   6.325  0.00  0.00    -0.220 NA
ENDBRANCH  10  12
ENDBRANCH   3  10
BRANCH   6  22
ATOM     22  C   LIG    1       22.771 -18.988   3.575  0.00  0.00    +0.214 C 
BRANCH  22  23
ATOM     23  C   LIG    1       22.348 -17.782   4.278  0.00  0.00    +0.072 C 
ATOM     24  N   LIG    1       22.056 -16.812   4.855  0.00  0.00    -0.196 NA
ENDBRANCH  22  23
ENDBRANCH   6  22
TORSDOF 4
ENDMDL
MODEL 7
REMARK VINA RESULT:      -5.9      3.344      4.575
REMARK  Name = *****
REMARK                            x       y       z     vdW  Elec       q    Type
REMARK                         _______ _______ _______ _____ _____    ______ ____
ROOT
ATOM      1  C   LIG    1       26.926 -22.324   7.467  0.00  0.00    +0.009 C 
ATOM      2  C   LIG    1       26.625 -20.846   7.743  0.00  0.00    +0.009 C 
ATOM      3  C   LIG    1       27.145 -19.898   6.619  0.00  0.00    +0.095 C 
ATOM      4  C   LIG    1       26.229 -20.095   5.343  0.00  0.00    +0.130 C 
ATOM      5  N   LIG    1       24.765 -20.082   5.617  0.00  0.00    -0.299 N 
ATOM      6  C   LIG    1       23.897 -19.497   4.695  0.00  0.00    +0.230 C 
ATOM      7  O   LIG    1       24.313 -18.929   3.682  0.00  0.00    -0.275 OA
ATOM      8  C   LIG    1       24.323 -20.955   6.699  0.00  0.00    +0.108 C 
ATOM      9  C   LIG    1       25.114 -20.631   7.954  0.00  0.00    +0.024 C 
ENDROOT
BRANCH   3  10
ATOM     10  N   LIG    1       28.619 -20.095   6.296  0.00  0.00    -0.313 N 
ATOM     11  C   LIG    1       29.045 -19.348   5.094  0.00  0.00    +0.131 C 
BRANCH  10  12
ATOM     12  C   LIG    1       29.543 -19.711   7.322  0.00  0.00    +0.134 A 
ATOM     13  C   LIG    1       30.301 -20.631   8.111  0.00  0.00    +0.059 A 
ATOM     14  C   LIG    1       31.181 -20.091   9.045  0.00  0.00    +0.143 A 
ATOM     15  N   LIG    1       31.833 -21.104   9.693  0.00  0.00    -0.346 N 
ATOM     16  H   LIG    1       32.533 -20.956  10.409  0.00  0.00    +0.167 HD
ATOM     17  C   LIG    1       31.383 -22.310   9.229  0.00  0.00    +0.085 A 
ATOM     18  N   LIG    1       31.395 -18.797   9.307  0.00  0.00    -0.218 NA
ATOM     19  C   LIG    1       30.636 -18.018   8.524  0.00  0.00    +0.225 A 
ATOM     20  C   LIG    1       30.432 -22.051   8.257  0.00  0.00    +0.032 A 
ATOM     21  N   LIG    1       29.764 -18.387   7.563  0.00  0.00    -0.220 NA
ENDBRANCH  10  12
ENDBRANCH   3  10
BRANCH   6  22
ATOM     22  C   LIG    1       22.401 -19.516   4.969  0.00  0.00    +0.214 C 
BRANCH  22  23
ATOM     23  C   LIG    1       21.874 -20.873   4.895  0.00  0.00    +0.072 C 
ATOM     24  N   LIG    1       21.437 -21.954   4.882  0.00  0.00    -0.196 NA
ENDBRANCH  22  23
ENDBRANCH   6  22
TORSDOF 4
ENDMDL
MODEL 8
REMARK VINA RESULT:      -5.9      3.744      8.938
REMARK  Name = *****
REMARK                            x       y       z     vdW  Elec       q    Type
REMARK                         _______ _______ _______ _____ _____    ______ ____
ROOT
ATOM      1  C   LIG    1       25.853 -27.872   4.623  0.00  0.00    +0.009 C 
ATOM      2  C   LIG    1       24.703 -27.413   5.525  0.00  0.00    +0.009 C 
ATOM      3  C   LIG    1       25.126 -27.251   7.018  0.00  0.00    +0.095 C 
ATOM      4  C   LIG    1       26.048 -25.970   7.134  0.00  0.00    +0.130 C 
ATOM      5  N   LIG    1       25.525 -24.759   6.444  0.00  0.00    -0.299 N 
ATOM      6  C   LIG    1       25.719 -23.502   7.017  0.00  0.00    +0.230 C 
ATOM      7  O   LIG    1       26.260 -23.367   8.118  0.00  0.00    -0.275 OA
ATOM      8  C   LIG    1       25.107 -24.959   5.061  0.00  0.00    +0.108 C 
ATOM      9  C   LIG    1       24.100 -26.093   5.005  0.00  0.00    +0.024 C 
ENDROOT
BRANCH   3  10
ATOM     10  N   LIG    1       25.798 -28.490   7.593  0.00  0.00    -0.313 N 
ATOM     11  C   LIG    1       26.430 -28.240   8.904  0.00  0.00    +0.131 C 
BRANCH  10  12
ATOM     12  C   LIG    1       24.949 -29.627   7.796  0.00  0.00    +0.134 A 
ATOM     13  C   LIG    1       24.901 -30.764   6.932  0.00  0.00    +0.059 A 
ATOM     14  C   LIG    1       24.043 -31.800   7.292  0.00  0.00    +0.143 A 
ATOM     15  N   LIG    1       24.137 -32.808   6.373  0.00  0.00    -0.346 N 
ATOM     16  H   LIG    1       23.615 -33.673   6.431  0.00  0.00    +0.167 HD
ATOM     17  C   LIG    1       25.018 -32.450   5.388  0.00  0.00    +0.085 A 
ATOM     18  N   LIG    1       23.237 -31.854   8.359  0.00  0.00    -0.218 NA
ATOM     19  C   LIG    1       23.349 -30.744   9.101  0.00  0.00    +0.225 A 
ATOM     20  C   LIG    1       25.501 -31.191   5.702  0.00  0.00    +0.032 A 
ATOM     21  N   LIG    1       24.147 -29.674   8.899  0.00  0.00    -0.220 NA
ENDBRANCH  10  12
ENDBRANCH   3  10
BRANCH   6  22
ATOM     22  C   LIG    1       25.209 -22.268   6.289  0.00  0.00    +0.214 C 
BRANCH  22  23
ATOM     23  C   LIG    1       24.135 -21.628   7.039  0.00  0.00    +0.072 C 
ATOM     24  N   LIG    1       23.293 -21.136   7.680  0.00  0.00    -0.196 NA
ENDBRANCH  22  23
ENDBRANCH   6  22
TORSDOF 4
ENDMDL
MODEL 9
REMARK VINA RESULT:      -5.8      1.775      2.489
REMARK  Name = *****
REMARK                            x       y       z     vdW  Elec       q    Type
REMARK                         _______ _______ _______ _____ _____    ______ ____
ROOT
ATOM      1  C   LIG    1       23.471 -23.032   5.917  0.00  0.00    +0.009 C 
ATOM      2  C   LIG    1       24.834 -23.476   5.373  0.00  0.00    +0.009 C 
ATOM      3  C   LIG    1       25.925 -23.592   6.481  0.00  0.00    +0.095 C 
ATOM      4  C   LIG    1       25.595 -24.862   7.367  0.00  0.00    +0.130 C 
ATOM      5  N   LIG    1       25.279 -26.096   6.597  0.00  0.00    -0.299 N 
ATOM      6  C   LIG    1       25.706 -27.335   7.076  0.00  0.00    +0.230 C 
ATOM      7  O   LIG    1       26.398 -27.434   8.093  0.00  0.00    -0.275 OA
ATOM      8  C   LIG    1       24.280 -25.939   5.546  0.00  0.00    +0.108 C 
ATOM      9  C   LIG    1       24.706 -24.815   4.620  0.00  0.00    +0.024 C 
ENDROOT
BRANCH   3  10
ATOM     10  N   LIG    1       26.067 -22.332   7.323  0.00  0.00    -0.313 N 
ATOM     11  C   LIG    1       26.492 -22.617   8.709  0.00  0.00    +0.131 C 
BRANCH  10  12
ATOM     12  C   LIG    1       26.999 -21.356   6.839  0.00  0.00    +0.134 A 
ATOM     13  C   LIG    1       26.725 -20.434   5.781  0.00  0.00    +0.059 A 
ATOM     14  C   LIG    1       27.729 -19.527   5.455  0.00  0.00    +0.143 A 
ATOM     15  N   LIG    1       27.295 -18.713   4.445  0.00  0.00    -0.346 N 
ATOM     16  H   LIG    1       27.849 -17.966   4.047  0.00  0.00    +0.167 HD
ATOM     17  C   LIG    1       26.031 -19.081   4.071  0.00  0.00    +0.085 A 
ATOM     18  N   LIG    1       28.942 -19.422   6.010  0.00  0.00    -0.218 NA
ATOM     19  C   LIG    1       29.105 -20.330   6.982  0.00  0.00    +0.225 A 
ATOM     20  C   LIG    1       25.655 -20.144   4.873  0.00  0.00    +0.032 A 
ATOM     21  N   LIG    1       28.224 -21.250   7.428  0.00  0.00    -0.220 NA
ENDBRANCH  10  12
ENDBRANCH   3  10
BRANCH   6  22
ATOM     22  C   LIG    1       25.351 -28.593   6.299  0.00  0.00    +0.214 C 
BRANCH  22  23
ATOM     23  C   LIG    1       24.498 -29.472   7.090  0.00  0.00    +0.072 C 
ATOM     24  N   LIG    1       23.790 -30.186   7.683  0.00  0.00    -0.196 NA
ENDBRANCH  22  23
ENDBRANCH   6  22
TORSDOF 4
ENDMDL
