MODEL 1
REMARK VINA RESULT:      -3.9      0.000      0.000
REMARK  Name = *****
REMARK                            x       y       z     vdW  Elec       q    Type
REMARK                         _______ _______ _______ _____ _____    ______ ____
ROOT
ATOM      1  C   LIG    1       24.237 -18.358   3.548  0.00  0.00    +0.119 C 
ATOM      2  N   LIG    1       23.991 -16.943   3.909  0.00  0.00    -0.330 N 
ATOM      3  H   LIG    1       23.058 -16.567   3.749  0.00  0.00    +0.147 HD
ATOM      4  C   LIG    1       24.992 -15.992   3.678  0.00  0.00    +0.133 C 
ATOM      5  C   LIG    1       26.286 -16.298   3.410  0.00  0.00    +0.149 C 
ATOM      6  N   LIG    1       27.276 -15.356   3.279  0.00  0.00    -0.199 NA
ATOM      7  C   LIG    1       26.957 -14.108   3.390  0.00  0.00    +0.195 C 
ATOM      8  N   LIG    1       25.691 -13.680   3.611  0.00  0.00    -0.294 N 
ATOM      9  H   LIG    1       25.468 -12.701   3.595  0.00  0.00    +0.172 HD
ATOM     10  N   LIG    1       26.626 -17.644   3.277  0.00  0.00    -0.326 N 
ATOM     11  H   LIG    1       27.622 -17.773   3.425  0.00  0.00    +0.148 HD
ATOM     12  C   LIG    1       24.636 -14.542   3.701  0.00  0.00    +0.276 C 
ATOM     13  O   LIG    1       23.476 -14.156   3.776  0.00  0.00    -0.266 OA
ATOM     14  C   LIG    1       25.744 -18.702   3.787  0.00  0.00    +0.128 C 
ENDROOT
BRANCH   7  15
ATOM     15  N   LIG    1       27.912 -13.148   3.301  0.00  0.00    -0.329 N 
ATOM     16  H   LIG    1       28.600 -13.134   4.042  0.00  0.00    +0.145 HD
ATOM     17  H   LIG    1       28.337 -13.134   2.378  0.00  0.00    +0.145 HD
ENDBRANCH   7  15
BRANCH   1  18
ATOM     18  C   LIG    1       23.229 -19.269   4.315  0.00  0.00    +0.164 C 
BRANCH  18  20
ATOM     19  C   LIG    1       24.209 -21.570   4.798  0.00  0.00    +0.040 C 
ATOM     20  C   LIG    1       23.900 -20.182   5.360  0.00  0.00    +0.142 C 
BRANCH  20  21
ATOM     21  O   LIG    1       23.034 -20.350   6.486  0.00  0.00    -0.389 OA
ATOM     22  H   LIG    1       23.531 -20.869   7.146  0.00  0.00    +0.210 HD
ENDBRANCH  20  21
ENDBRANCH  18  20
BRANCH  18  23
ATOM     23  O   LIG    1       22.181 -18.531   4.970  0.00  0.00    -0.387 OA
ATOM     24  H   LIG    1       22.587 -17.893   5.579  0.00  0.00    +0.210 HD
ENDBRANCH  18  23
ENDBRANCH   1  18
TORSDOF 5
ENDMDL
MODEL 2
REMARK VINA RESULT:      -3.7      2.460      6.106
REMARK  Name = *****
REMARK                            x       y       z     vdW  Elec       q    Type
REMARK                         _______ _______ _______ _____ _____    ______ ____
ROOT
ATOM      1  C   LIG    1       24.127 -15.697   3.673  0.00  0.00    +0.119 C 
ATOM      2  N   LIG    1       24.787 -17.021   3.737  0.00  0.00    -0.330 N 
ATOM      3  H   LIG    1       25.540 -17.208   3.078  0.00  0.00    +0.147 HD
ATOM      4  C   LIG    1       24.016 -18.161   3.998  0.00  0.00    +0.133 C 
ATOM      5  C   LIG    1       22.750 -18.128   4.481  0.00  0.00    +0.149 C 
ATOM      6  N   LIG    1       22.040 -19.253   4.822  0.00  0.00    -0.199 NA
ATOM      7  C   LIG    1       22.595 -20.407   4.649  0.00  0.00    +0.195 C 
ATOM      8  N   LIG    1       23.837 -20.566   4.130  0.00  0.00    -0.294 N 
ATOM      9  H   LIG    1       24.195 -21.481   3.921  0.00  0.00    +0.172 HD
ATOM     10  N   LIG    1       22.147 -16.883   4.655  0.00  0.00    -0.326 N 
ATOM     11  H   LIG    1       21.381 -16.950   5.318  0.00  0.00    +0.148 HD
ATOM     12  C   LIG    1       24.593 -19.508   3.714  0.00  0.00    +0.276 C 
ATOM     13  O   LIG    1       25.661 -19.652   3.133  0.00  0.00    -0.266 OA
ATOM     14  C   LIG    1       22.949 -15.653   4.701  0.00  0.00    +0.128 C 
ENDROOT
BRANCH   7  15
ATOM     15  N   LIG    1       21.940 -21.541   5.004  0.00  0.00    -0.329 N 
ATOM     16  H   LIG    1       21.166 -21.812   4.414  0.00  0.00    +0.145 HD
ATOM     17  H   LIG    1       22.588 -22.306   5.168  0.00  0.00    +0.145 HD
ENDBRANCH   7  15
BRANCH   1  18
ATOM     18  C   LIG    1       25.197 -14.577   3.858  0.00  0.00    +0.164 C 
BRANCH  18  20
ATOM     19  C   LIG    1       27.731 -14.360   4.008  0.00  0.00    +0.040 C 
ATOM     20  C   LIG    1       26.552 -14.908   3.203  0.00  0.00    +0.142 C 
BRANCH  20  21
ATOM     21  O   LIG    1       26.613 -14.335   1.894  0.00  0.00    -0.389 OA
ATOM     22  H   LIG    1       26.016 -13.563   1.899  0.00  0.00    +0.210 HD
ENDBRANCH  20  21
ENDBRANCH  18  20
BRANCH  18  23
ATOM     23  O   LIG    1       24.765 -13.293   3.374  0.00  0.00    -0.387 OA
ATOM     24  H   LIG    1       24.615 -13.359   2.417  0.00  0.00    +0.210 HD
ENDBRANCH  18  23
ENDBRANCH   1  18
TORSDOF 5
ENDMDL
MODEL 3
REMARK VINA RESULT:      -3.5      3.810      5.020
REMARK  Name = *****
REMARK                            x       y       z     vdW  Elec       q    Type
REMARK                         _______ _______ _______ _____ _____    ______ ____
ROOT
ATOM      1  C   LIG    1       23.322 -20.880   5.263  0.00  0.00    +0.119 C 
ATOM      2  N   LIG    1       24.361 -19.928   4.808  0.00  0.00    -0.330 N 
ATOM      3  H   LIG    1       24.335 -19.626   3.836  0.00  0.00    +0.147 HD
ATOM      4  C   LIG    1       25.669 -20.059   5.288  0.00  0.00    +0.133 C 
ATOM      5  C   LIG    1       26.014 -20.815   6.360  0.00  0.00    +0.149 C 
ATOM      6  N   LIG    1       27.286 -20.860   6.877  0.00  0.00    -0.199 NA
ATOM      7  C   LIG    1       28.211 -20.167   6.298  0.00  0.00    +0.195 C 
ATOM      8  N   LIG    1       27.994 -19.412   5.194  0.00  0.00    -0.294 N 
ATOM      9  H   LIG    1       28.758 -18.965   4.717  0.00  0.00    +0.172 HD
ATOM     10  N   LIG    1       25.018 -21.572   6.975  0.00  0.00    -0.326 N 
ATOM     11  H   LIG    1       25.288 -21.806   7.925  0.00  0.00    +0.148 HD
ATOM     12  C   LIG    1       26.777 -19.350   4.580  0.00  0.00    +0.276 C 
ATOM     13  O   LIG    1       26.605 -18.770   3.516  0.00  0.00    -0.266 OA
ATOM     14  C   LIG    1       23.597 -21.279   6.750  0.00  0.00    +0.128 C 
ENDROOT
BRANCH   7  15
ATOM     15  N   LIG    1       29.472 -20.158   6.798  0.00  0.00    -0.329 N 
ATOM     16  H   LIG    1       29.817 -21.040   7.152  0.00  0.00    +0.145 HD
ATOM     17  H   LIG    1       30.122 -19.718   6.153  0.00  0.00    +0.145 HD
ENDBRANCH   7  15
BRANCH   1  18
ATOM     18  C   LIG    1       21.911 -20.268   5.001  0.00  0.00    +0.164 C 
BRANCH  18  20
ATOM     19  C   LIG    1       22.315 -17.758   4.854  0.00  0.00    +0.040 C 
ATOM     20  C   LIG    1       21.939 -19.027   4.089  0.00  0.00    +0.142 C 
BRANCH  20  21
ATOM     21  O   LIG    1       20.648 -18.820   3.508  0.00  0.00    -0.389 OA
ATOM     22  H   LIG    1       20.053 -18.557   4.234  0.00  0.00    +0.210 HD
ENDBRANCH  20  21
ENDBRANCH  18  20
BRANCH  18  23
ATOM     23  O   LIG    1       20.976 -21.212   4.447  0.00  0.00    -0.387 OA
ATOM     24  H   LIG    1       21.056 -22.048   4.935  0.00  0.00    +0.210 HD
ENDBRANCH  18  23
ENDBRANCH   1  18
TORSDOF 5
ENDMDL
MODEL 4
REMARK VINA RESULT:      -3.4      3.312      6.262
REMARK  Name = *****
REMARK                            x       y       z     vdW  Elec       q    Type
REMARK                         _______ _______ _______ _____ _____    ______ ____
ROOT
ATOM      1  C   LIG    1       27.358 -15.066   3.255  0.00  0.00    +0.119 C 
ATOM      2  N   LIG    1       27.938 -16.083   4.162  0.00  0.00    -0.330 N 
ATOM      3  H   LIG    1       28.952 -16.114   4.255  0.00  0.00    +0.147 HD
ATOM      4  C   LIG    1       27.361 -17.357   4.225  0.00  0.00    +0.133 C 
ATOM      5  C   LIG    1       26.135 -17.661   3.732  0.00  0.00    +0.149 C 
ATOM      6  N   LIG    1       25.542 -18.890   3.883  0.00  0.00    -0.199 NA
ATOM      7  C   LIG    1       26.195 -19.817   4.504  0.00  0.00    +0.195 C 
ATOM      8  N   LIG    1       27.444 -19.644   4.998  0.00  0.00    -0.294 N 
ATOM      9  H   LIG    1       27.956 -20.416   5.388  0.00  0.00    +0.172 HD
ATOM     10  N   LIG    1       25.437 -16.664   3.051  0.00  0.00    -0.326 N 
ATOM     11  H   LIG    1       24.444 -16.874   3.038  0.00  0.00    +0.148 HD
ATOM     12  C   LIG    1       28.132 -18.474   4.847  0.00  0.00    +0.276 C 
ATOM     13  O   LIG    1       29.303 -18.352   5.181  0.00  0.00    -0.266 OA
ATOM     14  C   LIG    1       25.807 -15.250   3.192  0.00  0.00    +0.128 C 
ENDROOT
BRANCH   7  15
ATOM     15  N   LIG    1       25.631 -21.035   4.703  0.00  0.00    -0.329 N 
ATOM     16  H   LIG    1       24.866 -21.068   5.364  0.00  0.00    +0.145 HD
ATOM     17  H   LIG    1       25.401 -21.484   3.821  0.00  0.00    +0.145 HD
ENDBRANCH   7  15
BRANCH   1  18
ATOM     18  C   LIG    1       27.830 -13.647   3.700  0.00  0.00    +0.164 C 
BRANCH  18  20
ATOM     19  C   LIG    1       26.210 -13.199   5.614  0.00  0.00    +0.040 C 
ATOM     20  C   LIG    1       27.673 -13.394   5.212  0.00  0.00    +0.142 C 
BRANCH  20  21
ATOM     21  O   LIG    1       28.389 -12.214   5.586  0.00  0.00    -0.389 OA
ATOM     22  H   LIG    1       28.019 -11.919   6.438  0.00  0.00    +0.210 HD
ENDBRANCH  20  21
ENDBRANCH  18  20
BRANCH  18  23
ATOM     23  O   LIG    1       29.193 -13.361   3.337  0.00  0.00    -0.387 OA
ATOM     24  H   LIG    1       29.190 -12.704   2.621  0.00  0.00    +0.210 HD
ENDBRANCH  18  23
ENDBRANCH   1  18
TORSDOF 5
ENDMDL
MODEL 5
REMARK VINA RESULT:      -3.3      1.177      1.213
REMARK  Name = *****
REMARK                            x       y       z     vdW  Elec       q    Type
REMARK                         _______ _______ _______ _____ _____    ______ ____
ROOT
ATOM      1  C   LIG    1       23.998 -19.326   3.748  0.00  0.00    +0.119 C 
ATOM      2  N   LIG    1       23.631 -18.005   4.309  0.00  0.00    -0.330 N 
ATOM      3  H   LIG    1       22.641 -17.791   4.411  0.00  0.00    +0.147 HD
ATOM      4  C   LIG    1       24.384 -16.878   3.960  0.00  0.00    +0.133 C 
ATOM      5  C   LIG    1       25.604 -16.931   3.368  0.00  0.00    +0.149 C 
ATOM      6  N   LIG    1       26.372 -15.821   3.117  0.00  0.00    -0.199 NA
ATOM      7  C   LIG    1       25.900 -14.661   3.435  0.00  0.00    +0.195 C 
ATOM      8  N   LIG    1       24.676 -14.480   3.987  0.00  0.00    -0.294 N 
ATOM      9  H   LIG    1       24.306 -13.557   4.130  0.00  0.00    +0.172 HD
ATOM     10  N   LIG    1       26.106 -18.183   3.015  0.00  0.00    -0.326 N 
ATOM     11  H   LIG    1       27.115 -18.143   2.914  0.00  0.00    +0.148 HD
ATOM     12  C   LIG    1       23.823 -15.520   4.222  0.00  0.00    +0.276 C 
ATOM     13  O   LIG    1       22.672 -15.352   4.605  0.00  0.00    -0.266 OA
ATOM     14  C   LIG    1       25.552 -19.412   3.595  0.00  0.00    +0.128 C 
ENDROOT
BRANCH   7  15
ATOM     15  N   LIG    1       26.642 -13.543   3.234  0.00  0.00    -0.329 N 
ATOM     16  H   LIG    1       26.561 -12.821   3.937  0.00  0.00    +0.145 HD
ATOM     17  H   LIG    1       27.610 -13.774   3.027  0.00  0.00    +0.145 HD
ENDBRANCH   7  15
BRANCH   1  18
ATOM     18  C   LIG    1       23.364 -20.452   4.622  0.00  0.00    +0.164 C 
BRANCH  18  20
ATOM     19  C   LIG    1       25.148 -21.571   6.055  0.00  0.00    +0.040 C 
ATOM     20  C   LIG    1       23.994 -20.569   6.024  0.00  0.00    +0.142 C 
BRANCH  20  21
ATOM     21  O   LIG    1       23.010 -21.008   6.965  0.00  0.00    -0.389 OA
ATOM     22  H   LIG    1       23.196 -20.543   7.802  0.00  0.00    +0.210 HD
ENDBRANCH  20  21
ENDBRANCH  18  20
BRANCH  18  23
ATOM     23  O   LIG    1       21.940 -20.316   4.779  0.00  0.00    -0.387 OA
ATOM     24  H   LIG    1       21.766 -19.807   5.588  0.00  0.00    +0.210 HD
ENDBRANCH  18  23
ENDBRANCH   1  18
TORSDOF 5
ENDMDL
MODEL 6
REMARK VINA RESULT:      -3.3      1.951      2.823
REMARK  Name = *****
REMARK                            x       y       z     vdW  Elec       q    Type
REMARK                         _______ _______ _______ _____ _____    ______ ____
ROOT
ATOM      1  C   LIG    1       23.755 -18.901   4.449  0.00  0.00    +0.119 C 
ATOM      2  N   LIG    1       24.701 -18.012   3.737  0.00  0.00    -0.330 N 
ATOM      3  H   LIG    1       25.685 -18.275   3.729  0.00  0.00    +0.147 HD
ATOM      4  C   LIG    1       24.524 -16.625   3.806  0.00  0.00    +0.133 C 
ATOM      5  C   LIG    1       23.388 -16.024   4.239  0.00  0.00    +0.149 C 
ATOM      6  N   LIG    1       23.193 -14.665   4.212  0.00  0.00    -0.199 NA
ATOM      7  C   LIG    1       24.151 -13.914   3.777  0.00  0.00    +0.195 C 
ATOM      8  N   LIG    1       25.346 -14.397   3.363  0.00  0.00    -0.294 N 
ATOM      9  H   LIG    1       26.099 -13.776   3.123  0.00  0.00    +0.172 HD
ATOM     10  N   LIG    1       22.361 -16.834   4.720  0.00  0.00    -0.326 N 
ATOM     11  H   LIG    1       21.474 -16.340   4.685  0.00  0.00    +0.148 HD
ATOM     12  C   LIG    1       25.648 -15.728   3.404  0.00  0.00    +0.276 C 
ATOM     13  O   LIG    1       26.766 -16.157   3.149  0.00  0.00    -0.266 OA
ATOM     14  C   LIG    1       22.324 -18.270   4.416  0.00  0.00    +0.128 C 
ENDROOT
BRANCH   7  15
ATOM     15  N   LIG    1       23.985 -12.569   3.703  0.00  0.00    -0.329 N 
ATOM     16  H   LIG    1       23.045 -12.227   3.851  0.00  0.00    +0.145 HD
ATOM     17  H   LIG    1       24.669 -12.081   4.274  0.00  0.00    +0.145 HD
ENDBRANCH   7  15
BRANCH   1  18
ATOM     18  C   LIG    1       23.849 -20.339   3.851  0.00  0.00    +0.164 C 
BRANCH  18  20
ATOM     19  C   LIG    1       24.828 -21.568   5.856  0.00  0.00    +0.040 C 
ATOM     20  C   LIG    1       25.036 -21.156   4.398  0.00  0.00    +0.142 C 
BRANCH  20  21
ATOM     21  O   LIG    1       26.234 -20.378   4.331  0.00  0.00    -0.389 OA
ATOM     22  H   LIG    1       26.925 -20.887   4.795  0.00  0.00    +0.210 HD
ENDBRANCH  20  21
ENDBRANCH  18  20
BRANCH  18  23
ATOM     23  O   LIG    1       22.648 -21.111   4.037  0.00  0.00    -0.387 OA
ATOM     24  H   LIG    1       22.721 -21.598   4.874  0.00  0.00    +0.210 HD
ENDBRANCH  18  23
ENDBRANCH   1  18
TORSDOF 5
ENDMDL
MODEL 7
REMARK VINA RESULT:      -3.3      2.512      5.941
REMARK  Name = *****
REMARK                            x       y       z     vdW  Elec       q    Type
REMARK                         _______ _______ _______ _____ _____    ______ ____
ROOT
ATOM      1  C   LIG    1       24.971 -14.949   3.176  0.00  0.00    +0.119 C 
ATOM      2  N   LIG    1       25.423 -16.349   3.343  0.00  0.00    -0.330 N 
ATOM      3  H   LIG    1       26.117 -16.705   2.687  0.00  0.00    +0.147 HD
ATOM      4  C   LIG    1       24.497 -17.330   3.718  0.00  0.00    +0.133 C 
ATOM      5  C   LIG    1       23.267 -17.060   4.223  0.00  0.00    +0.149 C 
ATOM      6  N   LIG    1       22.406 -18.029   4.675  0.00  0.00    -0.199 NA
ATOM      7  C   LIG    1       22.772 -19.266   4.593  0.00  0.00    +0.195 C 
ATOM      8  N   LIG    1       23.956 -19.658   4.065  0.00  0.00    -0.294 N 
ATOM      9  H   LIG    1       24.163 -20.632   3.930  0.00  0.00    +0.172 HD
ATOM     10  N   LIG    1       22.868 -15.727   4.299  0.00  0.00    -0.326 N 
ATOM     11  H   LIG    1       22.124 -15.619   4.981  0.00  0.00    +0.148 HD
ATOM     12  C   LIG    1       24.851 -18.769   3.542  0.00  0.00    +0.276 C 
ATOM     13  O   LIG    1       25.864 -19.125   2.955  0.00  0.00    -0.266 OA
ATOM     14  C   LIG    1       23.849 -14.637   4.221  0.00  0.00    +0.128 C 
ENDROOT
BRANCH   7  15
ATOM     15  N   LIG    1       21.964 -20.251   5.060  0.00  0.00    -0.329 N 
ATOM     16  H   LIG    1       22.378 -20.889   5.725  0.00  0.00    +0.145 HD
ATOM     17  H   LIG    1       21.075 -19.878   5.383  0.00  0.00    +0.145 HD
ENDBRANCH   7  15
BRANCH   1  18
ATOM     18  C   LIG    1       26.206 -13.997   3.241  0.00  0.00    +0.164 C 
BRANCH  18  20
ATOM     19  C   LIG    1       27.992 -13.063   4.799  0.00  0.00    +0.040 C 
ATOM     20  C   LIG    1       27.137 -14.278   4.437  0.00  0.00    +0.142 C 
BRANCH  20  21
ATOM     21  O   LIG    1       28.021 -15.357   4.122  0.00  0.00    -0.389 OA
ATOM     22  H   LIG    1       28.059 -15.413   3.149  0.00  0.00    +0.210 HD
ENDBRANCH  20  21
ENDBRANCH  18  20
BRANCH  18  23
ATOM     23  O   LIG    1       27.000 -14.014   2.040  0.00  0.00    -0.387 OA
ATOM     24  H   LIG    1       27.799 -13.483   2.191  0.00  0.00    +0.210 HD
ENDBRANCH  18  23
ENDBRANCH   1  18
TORSDOF 5
ENDMDL
MODEL 8
REMARK VINA RESULT:      -2.9      2.072      2.811
REMARK  Name = *****
REMARK                            x       y       z     vdW  Elec       q    Type
REMARK                         _______ _______ _______ _____ _____    ______ ____
ROOT
ATOM      1  C   LIG    1       24.660 -18.085   4.113  0.00  0.00    +0.119 C 
ATOM      2  N   LIG    1       25.464 -17.058   3.412  0.00  0.00    -0.330 N 
ATOM      3  H   LIG    1       26.477 -17.167   3.413  0.00  0.00    +0.147 HD
ATOM      4  C   LIG    1       25.075 -15.715   3.483  0.00  0.00    +0.133 C 
ATOM      5  C   LIG    1       23.856 -15.298   3.907  0.00  0.00    +0.149 C 
ATOM      6  N   LIG    1       23.455 -13.985   3.882  0.00  0.00    -0.199 NA
ATOM      7  C   LIG    1       24.289 -13.094   3.458  0.00  0.00    +0.195 C 
ATOM      8  N   LIG    1       25.548 -13.386   3.053  0.00  0.00    -0.294 N 
ATOM      9  H   LIG    1       26.198 -12.655   2.822  0.00  0.00    +0.172 HD
ATOM     10  N   LIG    1       22.962 -16.259   4.377  0.00  0.00    -0.326 N 
ATOM     11  H   LIG    1       22.011 -15.907   4.335  0.00  0.00    +0.148 HD
ATOM     12  C   LIG    1       26.051 -14.655   3.094  0.00  0.00    +0.276 C 
ATOM     13  O   LIG    1       27.224 -14.906   2.848  0.00  0.00    -0.266 OA
ATOM     14  C   LIG    1       23.149 -17.682   4.069  0.00  0.00    +0.128 C 
ENDROOT
BRANCH   7  15
ATOM     15  N   LIG    1       23.919 -11.790   3.386  0.00  0.00    -0.329 N 
ATOM     16  H   LIG    1       23.434 -11.511   2.544  0.00  0.00    +0.145 HD
ATOM     17  H   LIG    1       23.433 -11.497   4.229  0.00  0.00    +0.145 HD
ENDBRANCH   7  15
BRANCH   1  18
ATOM     18  C   LIG    1       24.979 -19.489   3.513  0.00  0.00    +0.164 C 
BRANCH  18  20
ATOM     19  C   LIG    1       24.957 -20.543   5.831  0.00  0.00    +0.040 C 
ATOM     20  C   LIG    1       25.698 -20.431   4.499  0.00  0.00    +0.142 C 
BRANCH  20  21
ATOM     21  O   LIG    1       27.013 -19.939   4.770  0.00  0.00    -0.389 OA
ATOM     22  H   LIG    1       27.390 -19.662   3.914  0.00  0.00    +0.210 HD
ENDBRANCH  20  21
ENDBRANCH  18  20
BRANCH  18  23
ATOM     23  O   LIG    1       23.815 -20.170   3.009  0.00  0.00    -0.387 OA
ATOM     24  H   LIG    1       23.384 -20.631   3.747  0.00  0.00    +0.210 HD
ENDBRANCH  18  23
ENDBRANCH   1  18
TORSDOF 5
ENDMDL
MODEL 9
REMARK VINA RESULT:      -2.7      2.221      5.648
REMARK  Name = *****
REMARK                            x       y       z     vdW  Elec       q    Type
REMARK                         _______ _______ _______ _____ _____    ______ ____
ROOT
ATOM      1  C   LIG    1       26.127 -14.565   3.421  0.00  0.00    +0.119 C 
ATOM      2  N   LIG    1       25.628 -15.930   3.141  0.00  0.00    -0.330 N 
ATOM      3  H   LIG    1       24.620 -16.063   3.073  0.00  0.00    +0.147 HD
ATOM      4  C   LIG    1       26.269 -17.029   3.725  0.00  0.00    +0.133 C 
ATOM      5  C   LIG    1       27.492 -16.974   4.308  0.00  0.00    +0.149 C 
ATOM      6  N   LIG    1       28.149 -18.078   4.793  0.00  0.00    -0.199 NA
ATOM      7  C   LIG    1       27.563 -19.227   4.716  0.00  0.00    +0.195 C 
ATOM      8  N   LIG    1       26.323 -19.397   4.198  0.00  0.00    -0.294 N 
ATOM      9  H   LIG    1       25.863 -20.289   4.244  0.00  0.00    +0.172 HD
ATOM     10  N   LIG    1       28.118 -15.732   4.402  0.00  0.00    -0.326 N 
ATOM     11  H   LIG    1       29.119 -15.849   4.522  0.00  0.00    +0.148 HD
ATOM     12  C   LIG    1       25.574 -18.351   3.742  0.00  0.00    +0.276 C 
ATOM     13  O   LIG    1       24.410 -18.481   3.387  0.00  0.00    -0.266 OA
ATOM     14  C   LIG    1       27.683 -14.601   3.573  0.00  0.00    +0.128 C 
ENDROOT
BRANCH   7  15
ATOM     15  N   LIG    1       28.193 -20.347   5.154  0.00  0.00    -0.329 N 
ATOM     16  H   LIG    1       29.044 -20.597   4.669  0.00  0.00    +0.145 HD
ATOM     17  H   LIG    1       28.312 -20.333   6.163  0.00  0.00    +0.145 HD
ENDBRANCH   7  15
BRANCH   1  18
ATOM     18  C   LIG    1       25.601 -13.587   2.325  0.00  0.00    +0.164 C 
BRANCH  18  20
ATOM     19  C   LIG    1       24.061 -11.561   2.448  0.00  0.00    +0.040 C 
ATOM     20  C   LIG    1       24.170 -13.080   2.590  0.00  0.00    +0.142 C 
BRANCH  20  21
ATOM     21  O   LIG    1       23.770 -13.424   3.919  0.00  0.00    -0.389 OA
ATOM     22  H   LIG    1       23.170 -14.190   3.841  0.00  0.00    +0.210 HD
ENDBRANCH  20  21
ENDBRANCH  18  20
BRANCH  18  23
ATOM     23  O   LIG    1       26.453 -12.445   2.125  0.00  0.00    -0.387 OA
ATOM     24  H   LIG    1       26.741 -12.120   2.993  0.00  0.00    +0.210 HD
ENDBRANCH  18  23
ENDBRANCH   1  18
TORSDOF 5
ENDMDL
