MODEL 1
REMARK VINA RESULT:      -6.1      0.000      0.000
REMARK  Name = *****
REMARK                            x       y       z     vdW  Elec       q    Type
REMARK                         _______ _______ _______ _____ _____    ______ ____
ROOT
ATOM      1  C   LIG    1       29.590 -20.358   7.731  0.00  0.00    +0.285 C 
ENDROOT
BRANCH   1   3
ATOM      2  O   LIG    1       31.111 -22.180  10.130  0.00  0.00    -0.255 OA
ATOM      3  P   LIG    1       30.415 -21.347   9.032  0.00  0.00    +0.373 P 
BRANCH   3   4
ATOM      4  O   LIG    1       31.769 -21.430   8.101  0.00  0.00    -0.322 OA
ATOM      5  H   LIG    1       31.765 -20.640   7.519  0.00  0.00    +0.220 HD
ENDBRANCH   3   4
BRANCH   3   6
ATOM      6  O   LIG    1       30.850 -19.949   9.805  0.00  0.00    -0.322 OA
ATOM      7  H   LIG    1       30.092 -19.699  10.380  0.00  0.00    +0.220 HD
ENDBRANCH   3   6
ENDBRANCH   1   3
BRANCH   1   8
ATOM      8  P   LIG    1       30.500 -18.782   7.461  0.00  0.00    +0.373 P 
ATOM      9  O   LIG    1       31.984 -18.824   7.433  0.00  0.00    -0.255 OA
BRANCH   8  10
ATOM     10  O   LIG    1       29.931 -17.726   8.542  0.00  0.00    -0.322 OA
ATOM     11  H   LIG    1       30.332 -17.794   9.421  0.00  0.00    +0.220 HD
ENDBRANCH   8  10
BRANCH   8  12
ATOM     12  O   LIG    1       29.911 -18.140   6.110  0.00  0.00    -0.322 OA
ATOM     13  H   LIG    1       29.453 -18.794   5.542  0.00  0.00    +0.220 HD
ENDBRANCH   8  12
ENDBRANCH   1   8
BRANCH   1  14
ATOM     14  O   LIG    1       29.640 -21.087   6.455  0.00  0.00    -0.366 OA
ATOM     15  H   LIG    1       29.310 -21.986   6.690  0.00  0.00    +0.212 HD
ENDBRANCH   1  14
BRANCH   1  16
ATOM     16  C   LIG    1       28.108 -20.027   7.956  0.00  0.00    +0.183 C 
BRANCH  16  17
ATOM     17  N   LIG    1       27.116 -20.900   7.365  0.00  0.00    -0.333 N 
ATOM     18  C   LIG    1       26.308 -20.566   6.313  0.00  0.00    +0.199 A 
ATOM     19  N   LIG    1       25.313 -21.417   6.179  0.00  0.00    -0.244 NA
ATOM     20  C   LIG    1       25.479 -22.330   7.184  0.00  0.00    +0.130 A 
ATOM     21  C   LIG    1       26.608 -22.046   7.917  0.00  0.00    +0.107 A 
ENDBRANCH  16  17
ENDBRANCH   1  16
TORSDOF 9
ENDMDL
MODEL 2
REMARK VINA RESULT:      -5.8      5.266      6.648
REMARK  Name = *****
REMARK                            x       y       z     vdW  Elec       q    Type
REMARK                         _______ _______ _______ _____ _____    ______ ____
ROOT
ATOM      1  C   LIG    1       24.810 -22.614   5.750  0.00  0.00    +0.285 C 
ENDROOT
BRANCH   1   3
ATOM      2  O   LIG    1       25.310 -19.640   4.236  0.00  0.00    -0.255 OA
ATOM      3  P   LIG    1       25.081 -21.001   4.929  0.00  0.00    +0.373 P 
BRANCH   3   4
ATOM      4  O   LIG    1       24.026 -21.434   3.744  0.00  0.00    -0.322 OA
ATOM      5  H   LIG    1       23.706 -20.603   3.328  0.00  0.00    +0.220 HD
ENDBRANCH   3   4
BRANCH   3   6
ATOM      6  O   LIG    1       23.935 -20.319   5.910  0.00  0.00    -0.322 OA
ATOM      7  H   LIG    1       23.773 -19.413   5.564  0.00  0.00    +0.220 HD
ENDBRANCH   3   6
ENDBRANCH   1   3
BRANCH   1   8
ATOM      8  P   LIG    1       23.168 -22.634   6.579  0.00  0.00    +0.373 P 
ATOM      9  O   LIG    1       23.014 -21.887   7.852  0.00  0.00    -0.255 OA
BRANCH   8  10
ATOM     10  O   LIG    1       22.736 -24.185   6.716  0.00  0.00    -0.322 OA
ATOM     11  H   LIG    1       22.262 -24.400   7.533  0.00  0.00    +0.220 HD
ENDBRANCH   8  10
BRANCH   8  12
ATOM     12  O   LIG    1       22.097 -22.146   5.484  0.00  0.00    -0.322 OA
ATOM     13  H   LIG    1       22.268 -21.238   5.159  0.00  0.00    +0.220 HD
ENDBRANCH   8  12
ENDBRANCH   1   8
BRANCH   1  14
ATOM     14  O   LIG    1       24.774 -23.680   4.738  0.00  0.00    -0.366 OA
ATOM     15  H   LIG    1       25.062 -24.481   5.236  0.00  0.00    +0.212 HD
ENDBRANCH   1  14
BRANCH   1  16
ATOM     16  C   LIG    1       25.871 -23.053   6.769  0.00  0.00    +0.183 C 
BRANCH  16  17
ATOM     17  N   LIG    1       26.636 -22.027   7.444  0.00  0.00    -0.333 N 
ATOM     18  C   LIG    1       26.179 -21.269   8.487  0.00  0.00    +0.199 A 
ATOM     19  N   LIG    1       26.955 -20.229   8.706  0.00  0.00    -0.244 NA
ATOM     20  C   LIG    1       27.947 -20.313   7.766  0.00  0.00    +0.130 A 
ATOM     21  C   LIG    1       27.786 -21.438   6.989  0.00  0.00    +0.107 A 
ENDBRANCH  16  17
ENDBRANCH   1  16
TORSDOF 9
ENDMDL
MODEL 3
REMARK VINA RESULT:      -5.8      5.297      6.628
REMARK  Name = *****
REMARK                            x       y       z     vdW  Elec       q    Type
REMARK                         _______ _______ _______ _____ _____    ______ ____
ROOT
ATOM      1  C   LIG    1       24.900 -22.977   6.259  0.00  0.00    +0.285 C 
ENDROOT
BRANCH   1   3
ATOM      2  O   LIG    1       27.060 -20.454   6.849  0.00  0.00    -0.255 OA
ATOM      3  P   LIG    1       26.072 -21.609   6.579  0.00  0.00    +0.373 P 
BRANCH   3   4
ATOM      4  O   LIG    1       24.872 -20.521   6.288  0.00  0.00    -0.322 OA
ATOM      5  H   LIG    1       25.034 -20.149   5.394  0.00  0.00    +0.220 HD
ENDBRANCH   3   4
BRANCH   3   6
ATOM      6  O   LIG    1       25.767 -21.738   8.201  0.00  0.00    -0.322 OA
ATOM      7  H   LIG    1       25.014 -22.364   8.296  0.00  0.00    +0.220 HD
ENDBRANCH   3   6
ENDBRANCH   1   3
BRANCH   1   8
ATOM      8  P   LIG    1       23.191 -22.465   6.708  0.00  0.00    +0.373 P 
ATOM      9  O   LIG    1       23.002 -21.640   7.927  0.00  0.00    -0.255 OA
BRANCH   8  10
ATOM     10  O   LIG    1       22.293 -23.809   6.726  0.00  0.00    -0.322 OA
ATOM     11  H   LIG    1       21.607 -23.825   7.410  0.00  0.00    +0.220 HD
ENDBRANCH   8  10
BRANCH   8  12
ATOM     12  O   LIG    1       22.576 -21.740   5.413  0.00  0.00    -0.322 OA
ATOM     13  H   LIG    1       22.353 -20.798   5.569  0.00  0.00    +0.220 HD
ENDBRANCH   8  12
ENDBRANCH   1   8
BRANCH   1  14
ATOM     14  O   LIG    1       24.876 -23.277   4.820  0.00  0.00    -0.366 OA
ATOM     15  H   LIG    1       24.666 -24.240   4.789  0.00  0.00    +0.212 HD
ENDBRANCH   1  14
BRANCH   1  16
ATOM     16  C   LIG    1       25.200 -24.315   6.951  0.00  0.00    +0.183 C 
BRANCH  16  17
ATOM     17  N   LIG    1       25.259 -25.508   6.135  0.00  0.00    -0.333 N 
ATOM     18  C   LIG    1       24.190 -26.309   5.840  0.00  0.00    +0.199 A 
ATOM     19  N   LIG    1       24.573 -27.465   5.343  0.00  0.00    -0.244 NA
ATOM     20  C   LIG    1       25.941 -27.414   5.320  0.00  0.00    +0.130 A 
ATOM     21  C   LIG    1       26.389 -26.197   5.780  0.00  0.00    +0.107 A 
ENDBRANCH  16  17
ENDBRANCH   1  16
TORSDOF 9
ENDMDL
MODEL 4
REMARK VINA RESULT:      -5.8      1.719      2.204
REMARK  Name = *****
REMARK                            x       y       z     vdW  Elec       q    Type
REMARK                         _______ _______ _______ _____ _____    ______ ____
ROOT
ATOM      1  C   LIG    1       31.049 -19.095   8.101  0.00  0.00    +0.285 C 
ENDROOT
BRANCH   1   3
ATOM      2  O   LIG    1       30.696 -21.994   9.791  0.00  0.00    -0.255 OA
ATOM      3  P   LIG    1       30.857 -20.668   9.018  0.00  0.00    +0.373 P 
BRANCH   3   4
ATOM      4  O   LIG    1       32.482 -20.708   9.275  0.00  0.00    -0.322 OA
ATOM      5  H   LIG    1       32.793 -19.777   9.285  0.00  0.00    +0.220 HD
ENDBRANCH   3   4
BRANCH   3   6
ATOM      6  O   LIG    1       30.509 -19.813  10.393  0.00  0.00    -0.322 OA
ATOM      7  H   LIG    1       29.549 -19.605  10.357  0.00  0.00    +0.220 HD
ENDBRANCH   3   6
ENDBRANCH   1   3
BRANCH   1   8
ATOM      8  P   LIG    1       31.610 -17.763   9.240  0.00  0.00    +0.373 P 
ATOM      9  O   LIG    1       32.379 -18.150  10.449  0.00  0.00    -0.255 OA
BRANCH   8  10
ATOM     10  O   LIG    1       30.307 -16.876   9.594  0.00  0.00    -0.322 OA
ATOM     11  H   LIG    1       30.290 -16.528  10.498  0.00  0.00    +0.220 HD
ENDBRANCH   8  10
BRANCH   8  12
ATOM     12  O   LIG    1       32.426 -16.709   8.342  0.00  0.00    -0.322 OA
ATOM     13  H   LIG    1       32.175 -15.779   8.520  0.00  0.00    +0.220 HD
ENDBRANCH   8  12
ENDBRANCH   1   8
BRANCH   1  14
ATOM     14  O   LIG    1       32.103 -19.243   7.088  0.00  0.00    -0.366 OA
ATOM     15  H   LIG    1       32.843 -18.697   7.444  0.00  0.00    +0.212 HD
ENDBRANCH   1  14
BRANCH   1  16
ATOM     16  C   LIG    1       29.816 -18.591   7.338  0.00  0.00    +0.183 C 
BRANCH  16  17
ATOM     17  N   LIG    1       28.754 -19.532   7.057  0.00  0.00    -0.333 N 
ATOM     18  C   LIG    1       28.305 -19.856   5.805  0.00  0.00    +0.199 A 
ATOM     19  N   LIG    1       27.156 -20.493   5.853  0.00  0.00    -0.244 NA
ATOM     20  C   LIG    1       26.844 -20.580   7.183  0.00  0.00    +0.130 A 
ATOM     21  C   LIG    1       27.836 -20.016   7.952  0.00  0.00    +0.107 A 
ENDBRANCH  16  17
ENDBRANCH   1  16
TORSDOF 9
ENDMDL
MODEL 5
REMARK VINA RESULT:      -5.7      5.533      6.347
REMARK  Name = *****
REMARK                            x       y       z     vdW  Elec       q    Type
REMARK                         _______ _______ _______ _____ _____    ______ ____
ROOT
ATOM      1  C   LIG    1       24.223 -21.598   6.761  0.00  0.00    +0.285 C 
ENDROOT
BRANCH   1   3
ATOM      2  O   LIG    1       25.288 -24.650   5.794  0.00  0.00    -0.255 OA
ATOM      3  P   LIG    1       24.801 -23.253   6.236  0.00  0.00    +0.373 P 
BRANCH   3   4
ATOM      4  O   LIG    1       23.254 -23.809   6.310  0.00  0.00    -0.322 OA
ATOM      5  H   LIG    1       23.103 -24.110   7.233  0.00  0.00    +0.220 HD
ENDBRANCH   3   4
BRANCH   3   6
ATOM      6  O   LIG    1       24.712 -22.772   4.654  0.00  0.00    -0.322 OA
ATOM      7  H   LIG    1       23.805 -22.416   4.520  0.00  0.00    +0.220 HD
ENDBRANCH   3   6
ENDBRANCH   1   3
BRANCH   1   8
ATOM      8  P   LIG    1       23.463 -20.712   5.339  0.00  0.00    +0.373 P 
ATOM      9  O   LIG    1       24.345 -20.286   4.223  0.00  0.00    -0.255 OA
BRANCH   8  10
ATOM     10  O   LIG    1       22.612 -19.486   5.957  0.00  0.00    -0.322 OA
ATOM     11  H   LIG    1       22.653 -19.413   6.922  0.00  0.00    +0.220 HD
ENDBRANCH   8  10
BRANCH   8  12
ATOM     12  O   LIG    1       22.263 -21.642   4.810  0.00  0.00    -0.322 OA
ATOM     13  H   LIG    1       21.463 -21.133   4.564  0.00  0.00    +0.220 HD
ENDBRANCH   8  12
ENDBRANCH   1   8
BRANCH   1  14
ATOM     14  O   LIG    1       23.163 -21.744   7.770  0.00  0.00    -0.366 OA
ATOM     15  H   LIG    1       22.350 -21.883   7.231  0.00  0.00    +0.212 HD
ENDBRANCH   1  14
BRANCH   1  16
ATOM     16  C   LIG    1       25.271 -20.675   7.400  0.00  0.00    +0.183 C 
BRANCH  16  17
ATOM     17  N   LIG    1       26.662 -20.878   7.054  0.00  0.00    -0.333 N 
ATOM     18  C   LIG    1       27.582 -21.506   7.848  0.00  0.00    +0.199 A 
ATOM     19  N   LIG    1       28.810 -21.288   7.430  0.00  0.00    -0.244 NA
ATOM     20  C   LIG    1       28.682 -20.485   6.329  0.00  0.00    +0.130 A 
ATOM     21  C   LIG    1       27.354 -20.240   6.059  0.00  0.00    +0.107 A 
ENDBRANCH  16  17
ENDBRANCH   1  16
TORSDOF 9
ENDMDL
MODEL 6
REMARK VINA RESULT:      -5.7      4.778      5.905
REMARK  Name = *****
REMARK                            x       y       z     vdW  Elec       q    Type
REMARK                         _______ _______ _______ _____ _____    ______ ____
ROOT
ATOM      1  C   LIG    1       24.967 -22.475   6.581  0.00  0.00    +0.285 C 
ENDROOT
BRANCH   1   3
ATOM      2  O   LIG    1       27.463 -21.479   8.622  0.00  0.00    -0.255 OA
ATOM      3  P   LIG    1       26.321 -21.935   7.688  0.00  0.00    +0.373 P 
BRANCH   3   4
ATOM      4  O   LIG    1       26.045 -20.372   7.254  0.00  0.00    -0.322 OA
ATOM      5  H   LIG    1       25.742 -19.901   8.060  0.00  0.00    +0.220 HD
ENDBRANCH   3   4
BRANCH   3   6
ATOM      6  O   LIG    1       25.264 -21.926   8.962  0.00  0.00    -0.322 OA
ATOM      7  H   LIG    1       25.709 -22.401   9.699  0.00  0.00    +0.220 HD
ENDBRANCH   3   6
ENDBRANCH   1   3
BRANCH   1   8
ATOM      8  P   LIG    1       23.647 -21.195   6.526  0.00  0.00    +0.373 P 
ATOM      9  O   LIG    1       23.275 -20.513   7.791  0.00  0.00    -0.255 OA
BRANCH   8  10
ATOM     10  O   LIG    1       22.376 -21.871   5.791  0.00  0.00    -0.322 OA
ATOM     11  H   LIG    1       22.534 -22.131   4.872  0.00  0.00    +0.220 HD
ENDBRANCH   8  10
BRANCH   8  12
ATOM     12  O   LIG    1       24.085 -20.135   5.400  0.00  0.00    -0.322 OA
ATOM     13  H   LIG    1       24.955 -20.338   4.999  0.00  0.00    +0.220 HD
ENDBRANCH   8  12
ENDBRANCH   1   8
BRANCH   1  14
ATOM     14  O   LIG    1       25.477 -22.601   5.208  0.00  0.00    -0.366 OA
ATOM     15  H   LIG    1       26.019 -21.787   5.087  0.00  0.00    +0.212 HD
ENDBRANCH   1  14
BRANCH   1  16
ATOM     16  C   LIG    1       24.316 -23.827   6.902  0.00  0.00    +0.183 C 
BRANCH  16  17
ATOM     17  N   LIG    1       24.905 -25.021   6.335  0.00  0.00    -0.333 N 
ATOM     18  C   LIG    1       26.202 -25.417   6.518  0.00  0.00    +0.199 A 
ATOM     19  N   LIG    1       26.546 -26.355   5.663  0.00  0.00    -0.244 NA
ATOM     20  C   LIG    1       25.435 -26.571   4.894  0.00  0.00    +0.130 A 
ATOM     21  C   LIG    1       24.393 -25.774   5.311  0.00  0.00    +0.107 A 
ENDBRANCH  16  17
ENDBRANCH   1  16
TORSDOF 9
ENDMDL
MODEL 7
REMARK VINA RESULT:      -5.7      5.045      6.711
REMARK  Name = *****
REMARK                            x       y       z     vdW  Elec       q    Type
REMARK                         _______ _______ _______ _____ _____    ______ ____
ROOT
ATOM      1  C   LIG    1       24.798 -21.295   5.860  0.00  0.00    +0.285 C 
ENDROOT
BRANCH   1   3
ATOM      2  O   LIG    1       23.944 -19.406   3.197  0.00  0.00    -0.255 OA
ATOM      3  P   LIG    1       24.335 -20.270   4.415  0.00  0.00    +0.373 P 
BRANCH   3   4
ATOM      4  O   LIG    1       25.903 -20.273   3.919  0.00  0.00    -0.322 OA
ATOM      5  H   LIG    1       25.898 -20.077   2.956  0.00  0.00    +0.220 HD
ENDBRANCH   3   4
BRANCH   3   6
ATOM      6  O   LIG    1       23.913 -21.642   3.589  0.00  0.00    -0.322 OA
ATOM      7  H   LIG    1       24.672 -21.860   3.003  0.00  0.00    +0.220 HD
ENDBRANCH   3   6
ENDBRANCH   1   3
BRANCH   1   8
ATOM      8  P   LIG    1       23.300 -22.079   6.586  0.00  0.00    +0.373 P 
ATOM      9  O   LIG    1       22.939 -21.742   7.986  0.00  0.00    -0.255 OA
BRANCH   8  10
ATOM     10  O   LIG    1       23.449 -23.670   6.352  0.00  0.00    -0.322 OA
ATOM     11  H   LIG    1       23.228 -23.968   5.457  0.00  0.00    +0.220 HD
ENDBRANCH   8  10
BRANCH   8  12
ATOM     12  O   LIG    1       22.086 -21.765   5.580  0.00  0.00    -0.322 OA
ATOM     13  H   LIG    1       21.450 -21.111   5.938  0.00  0.00    +0.220 HD
ENDBRANCH   8  12
ENDBRANCH   1   8
BRANCH   1  14
ATOM     14  O   LIG    1       25.668 -22.396   5.422  0.00  0.00    -0.366 OA
ATOM     15  H   LIG    1       25.455 -23.123   6.052  0.00  0.00    +0.212 HD
ENDBRANCH   1  14
BRANCH   1  16
ATOM     16  C   LIG    1       25.566 -20.588   6.985  0.00  0.00    +0.183 C 
BRANCH  16  17
ATOM     17  N   LIG    1       26.987 -20.836   7.103  0.00  0.00    -0.333 N 
ATOM     18  C   LIG    1       27.571 -21.590   8.084  0.00  0.00    +0.199 A 
ATOM     19  N   LIG    1       28.873 -21.404   8.126  0.00  0.00    -0.244 NA
ATOM     20  C   LIG    1       29.141 -20.492   7.142  0.00  0.00    +0.130 A 
ATOM     21  C   LIG    1       27.989 -20.146   6.473  0.00  0.00    +0.107 A 
ENDBRANCH  16  17
ENDBRANCH   1  16
TORSDOF 9
ENDMDL
MODEL 8
REMARK VINA RESULT:      -5.6      4.763      6.419
REMARK  Name = *****
REMARK                            x       y       z     vdW  Elec       q    Type
REMARK                         _______ _______ _______ _____ _____    ______ ____
ROOT
ATOM      1  C   LIG    1       23.956 -22.078   6.772  0.00  0.00    +0.285 C 
ENDROOT
BRANCH   1   3
ATOM      2  O   LIG    1       26.579 -20.087   7.508  0.00  0.00    -0.255 OA
ATOM      3  P   LIG    1       25.379 -20.998   7.171  0.00  0.00    +0.373 P 
BRANCH   3   4
ATOM      4  O   LIG    1       25.656 -21.876   8.535  0.00  0.00    -0.322 OA
ATOM      5  H   LIG    1       25.020 -22.624   8.527  0.00  0.00    +0.220 HD
ENDBRANCH   3   4
BRANCH   3   6
ATOM      6  O   LIG    1       26.344 -21.925   6.197  0.00  0.00    -0.322 OA
ATOM      7  H   LIG    1       25.747 -22.382   5.563  0.00  0.00    +0.220 HD
ENDBRANCH   3   6
ENDBRANCH   1   3
BRANCH   1   8
ATOM      8  P   LIG    1       24.539 -23.786   6.413  0.00  0.00    +0.373 P 
ATOM      9  O   LIG    1       25.640 -24.341   7.239  0.00  0.00    -0.255 OA
BRANCH   8  10
ATOM     10  O   LIG    1       24.865 -23.842   4.831  0.00  0.00    -0.322 OA
ATOM     11  H   LIG    1       24.121 -24.116   4.276  0.00  0.00    +0.220 HD
ENDBRANCH   8  10
BRANCH   8  12
ATOM     12  O   LIG    1       23.241 -24.732   6.461  0.00  0.00    -0.322 OA
ATOM     13  H   LIG    1       23.397 -25.574   6.937  0.00  0.00    +0.220 HD
ENDBRANCH   8  12
ENDBRANCH   1   8
BRANCH   1  14
ATOM     14  O   LIG    1       23.075 -22.182   7.944  0.00  0.00    -0.366 OA
ATOM     15  H   LIG    1       22.173 -22.059   7.566  0.00  0.00    +0.212 HD
ENDBRANCH   1  14
BRANCH   1  16
ATOM     16  C   LIG    1       23.051 -21.624   5.619  0.00  0.00    +0.183 C 
BRANCH  16  17
ATOM     17  N   LIG    1       23.314 -20.338   5.009  0.00  0.00    -0.333 N 
ATOM     18  C   LIG    1       22.497 -19.245   5.105  0.00  0.00    +0.199 A 
ATOM     19  N   LIG    1       22.819 -18.322   4.225  0.00  0.00    -0.244 NA
ATOM     20  C   LIG    1       23.879 -18.838   3.529  0.00  0.00    +0.130 A 
ATOM     21  C   LIG    1       24.223 -20.078   4.018  0.00  0.00    +0.107 A 
ENDBRANCH  16  17
ENDBRANCH   1  16
TORSDOF 9
ENDMDL
MODEL 9
REMARK VINA RESULT:      -5.6      1.130      3.079
REMARK  Name = *****
REMARK                            x       y       z     vdW  Elec       q    Type
REMARK                         _______ _______ _______ _____ _____    ______ ____
ROOT
ATOM      1  C   LIG    1       29.633 -20.232   8.029  0.00  0.00    +0.285 C 
ENDROOT
BRANCH   1   3
ATOM      2  O   LIG    1       30.326 -18.243   5.393  0.00  0.00    -0.255 OA
ATOM      3  P   LIG    1       30.009 -19.153   6.599  0.00  0.00    +0.373 P 
BRANCH   3   4
ATOM      4  O   LIG    1       30.274 -17.895   7.626  0.00  0.00    -0.322 OA
ATOM      5  H   LIG    1       29.698 -18.038   8.408  0.00  0.00    +0.220 HD
ENDBRANCH   3   4
BRANCH   3   6
ATOM      6  O   LIG    1       31.574 -19.692   6.616  0.00  0.00    -0.322 OA
ATOM      7  H   LIG    1       32.145 -18.894   6.686  0.00  0.00    +0.220 HD
ENDBRANCH   3   6
ENDBRANCH   1   3
BRANCH   1   8
ATOM      8  P   LIG    1       31.184 -20.668   8.918  0.00  0.00    +0.373 P 
ATOM      9  O   LIG    1       32.130 -19.575   9.258  0.00  0.00    -0.255 OA
BRANCH   8  10
ATOM     10  O   LIG    1       31.886 -21.852   8.073  0.00  0.00    -0.322 OA
ATOM     11  H   LIG    1       32.477 -21.549   7.368  0.00  0.00    +0.220 HD
ENDBRANCH   8  10
BRANCH   8  12
ATOM     12  O   LIG    1       30.745 -21.487  10.229  0.00  0.00    -0.322 OA
ATOM     13  H   LIG    1       30.132 -20.985  10.807  0.00  0.00    +0.220 HD
ENDBRANCH   8  12
ENDBRANCH   1   8
BRANCH   1  14
ATOM     14  O   LIG    1       28.799 -19.498   8.992  0.00  0.00    -0.366 OA
ATOM     15  H   LIG    1       29.164 -19.768   9.867  0.00  0.00    +0.212 HD
ENDBRANCH   1  14
BRANCH   1  16
ATOM     16  C   LIG    1       28.868 -21.528   7.729  0.00  0.00    +0.183 C 
BRANCH  16  17
ATOM     17  N   LIG    1       27.442 -21.442   7.498  0.00  0.00    -0.333 N 
ATOM     18  C   LIG    1       26.855 -20.747   6.477  0.00  0.00    +0.199 A 
ATOM     19  N   LIG    1       25.564 -20.592   6.677  0.00  0.00    -0.244 NA
ATOM     20  C   LIG    1       25.306 -21.202   7.874  0.00  0.00    +0.130 A 
ATOM     21  C   LIG    1       26.453 -21.763   8.390  0.00  0.00    +0.107 A 
ENDBRANCH  16  17
ENDBRANCH   1  16
TORSDOF 9
ENDMDL
