MODEL 1
REMARK VINA RESULT:      -7.2      0.000      0.000
REMARK  Name = *****
REMARK                            x       y       z     vdW  Elec       q    Type
REMARK                         _______ _______ _______ _____ _____    ______ ____
ROOT
ATOM      1  C   LIG    1       24.530 -30.408   8.712  0.00  0.00    +0.008 C 
ATOM      2  C   LIG    1       24.748 -31.670   8.276  0.00  0.00    +0.056 C 
ATOM      3 CL   LIG    1       24.249 -33.065   9.209  0.00  0.00    -0.082 Cl
ENDROOT
BRANCH   1   7
ATOM      4  C   LIG    1       25.447 -27.016   6.238  0.00  0.00    +0.121 A 
ATOM      5  C   LIG    1       24.393 -27.869   5.915  0.00  0.00    +0.046 A 
ATOM      6  C   LIG    1       24.114 -28.979   6.717  0.00  0.00    +0.012 A 
ATOM      7  C   LIG    1       24.887 -29.253   7.849  0.00  0.00    -0.016 A 
ATOM      8  C   LIG    1       25.943 -28.400   8.178  0.00  0.00    +0.012 A 
ATOM      9  C   LIG    1       26.226 -27.294   7.366  0.00  0.00    +0.046 A 
BRANCH   4  10
ATOM     10  O   LIG    1       25.834 -25.929   5.504  0.00  0.00    -0.491 OA
BRANCH  10  11
ATOM     11  C   LIG    1       25.092 -24.706   5.653  0.00  0.00    +0.244 C 
BRANCH  11  12
ATOM     12  C   LIG    1       25.766 -23.821   6.722  0.00  0.00    +0.125 C 
BRANCH  12  13
ATOM     13  N   LIG    1       24.987 -22.726   7.345  0.00  0.00    -0.300 NA
BRANCH  13  15
ATOM     14  C   LIG    1       25.958 -20.692   8.504  0.00  0.00    +0.020 C 
ATOM     15  C   LIG    1       25.594 -21.394   7.195  0.00  0.00    +0.081 C 
ENDBRANCH  13  15
BRANCH  13  16
ATOM     16  C   LIG    1       23.577 -22.763   6.914  0.00  0.00    +0.081 C 
ATOM     17  C   LIG    1       23.088 -21.489   6.224  0.00  0.00    +0.020 C 
ENDBRANCH  13  16
ENDBRANCH  12  13
ENDBRANCH  11  12
ENDBRANCH  10  11
ENDBRANCH   4  10
ENDBRANCH   1   7
BRANCH   1  18
ATOM     18  C   LIG    1       23.909 -30.139  10.046  0.00  0.00    -0.016 A 
ATOM     19  C   LIG    1       24.698 -29.695  11.117  0.00  0.00    +0.008 A 
ATOM     20  C   LIG    1       24.117 -29.393  12.354  0.00  0.00    +0.001 A 
ATOM     21  C   LIG    1       22.741 -29.525  12.529  0.00  0.00    +0.000 A 
ATOM     22  C   LIG    1       21.945 -29.955  11.469  0.00  0.00    +0.001 A 
ATOM     23  C   LIG    1       22.525 -30.263  10.233  0.00  0.00    +0.008 A 
ENDBRANCH   1  18
BRANCH   2  24
ATOM     24  C   LIG    1       25.422 -32.064   7.010  0.00  0.00    -0.006 A 
ATOM     25  C   LIG    1       26.806 -32.302   6.997  0.00  0.00    +0.009 A 
ATOM     26  C   LIG    1       27.449 -32.743   5.834  0.00  0.00    +0.001 A 
ATOM     27  C   LIG    1       26.715 -32.963   4.671  0.00  0.00    +0.000 A 
ATOM     28  C   LIG    1       25.339 -32.740   4.671  0.00  0.00    +0.001 A 
ATOM     29  C   LIG    1       24.696 -32.288   5.832  0.00  0.00    +0.009 A 
ENDBRANCH   2  24
TORSDOF 9
ENDMDL
MODEL 2
REMARK VINA RESULT:      -7.1      1.343      4.837
REMARK  Name = *****
REMARK                            x       y       z     vdW  Elec       q    Type
REMARK                         _______ _______ _______ _____ _____    ______ ____
ROOT
ATOM      1  C   LIG    1       25.356 -30.367   7.344  0.00  0.00    +0.008 C 
ATOM      2  C   LIG    1       25.679 -30.723   8.609  0.00  0.00    +0.056 C 
ATOM      3 CL   LIG    1       25.978 -32.391   9.048  0.00  0.00    -0.082 Cl
ENDROOT
BRANCH   1   7
ATOM      4  C   LIG    1       25.025 -26.217   6.279  0.00  0.00    +0.121 A 
ATOM      5  C   LIG    1       25.994 -26.645   7.186  0.00  0.00    +0.046 A 
ATOM      6  C   LIG    1       26.082 -27.994   7.538  0.00  0.00    +0.012 A 
ATOM      7  C   LIG    1       25.201 -28.933   6.993  0.00  0.00    -0.016 A 
ATOM      8  C   LIG    1       24.230 -28.509   6.083  0.00  0.00    +0.012 A 
ATOM      9  C   LIG    1       24.137 -27.154   5.740  0.00  0.00    +0.046 A 
BRANCH   4  10
ATOM     10  O   LIG    1       24.822 -24.920   5.897  0.00  0.00    -0.491 OA
BRANCH  10  11
ATOM     11  C   LIG    1       25.632 -23.896   6.502  0.00  0.00    +0.244 C 
BRANCH  11  12
ATOM     12  C   LIG    1       24.722 -22.857   7.187  0.00  0.00    +0.125 C 
BRANCH  12  13
ATOM     13  N   LIG    1       24.666 -21.480   6.642  0.00  0.00    -0.300 NA
BRANCH  13  15
ATOM     14  C   LIG    1       22.813 -20.081   5.627  0.00  0.00    +0.020 C 
ATOM     15  C   LIG    1       23.377 -20.801   6.852  0.00  0.00    +0.081 C 
ENDBRANCH  13  15
BRANCH  13  16
ATOM     16  C   LIG    1       25.815 -20.678   7.101  0.00  0.00    +0.081 C 
ATOM     17  C   LIG    1       26.012 -20.655   8.617  0.00  0.00    +0.020 C 
ENDBRANCH  13  16
ENDBRANCH  12  13
ENDBRANCH  11  12
ENDBRANCH  10  11
ENDBRANCH   4  10
ENDBRANCH   1   7
BRANCH   1  18
ATOM     18  C   LIG    1       25.173 -31.391   6.268  0.00  0.00    -0.016 A 
ATOM     19  C   LIG    1       23.976 -32.117   6.179  0.00  0.00    +0.008 A 
ATOM     20  C   LIG    1       23.777 -33.040   5.147  0.00  0.00    +0.001 A 
ATOM     21  C   LIG    1       24.769 -33.240   4.188  0.00  0.00    +0.000 A 
ATOM     22  C   LIG    1       25.958 -32.516   4.260  0.00  0.00    +0.001 A 
ATOM     23  C   LIG    1       26.161 -31.597   5.295  0.00  0.00    +0.008 A 
ENDBRANCH   1  18
BRANCH   2  24
ATOM     24  C   LIG    1       25.815 -29.811   9.776  0.00  0.00    -0.006 A 
ATOM     25  C   LIG    1       24.724 -29.607  10.636  0.00  0.00    +0.009 A 
ATOM     26  C   LIG    1       24.850 -28.809  11.781  0.00  0.00    +0.001 A 
ATOM     27  C   LIG    1       26.072 -28.214  12.086  0.00  0.00    +0.000 A 
ATOM     28  C   LIG    1       27.166 -28.415  11.245  0.00  0.00    +0.001 A 
ATOM     29  C   LIG    1       27.038 -29.204  10.094  0.00  0.00    +0.009 A 
ENDBRANCH   2  24
TORSDOF 9
ENDMDL
MODEL 3
REMARK VINA RESULT:      -7.0      5.689      9.998
REMARK  Name = *****
REMARK                            x       y       z     vdW  Elec       q    Type
REMARK                         _______ _______ _______ _____ _____    ______ ____
ROOT
ATOM      1  C   LIG    1       24.384 -21.780   5.513  0.00  0.00    +0.008 C 
ATOM      2  C   LIG    1       23.405 -21.070   4.908  0.00  0.00    +0.056 C 
ATOM      3 CL   LIG    1       21.964 -21.839   4.278  0.00  0.00    -0.082 Cl
ENDROOT
BRANCH   1   7
ATOM      4  C   LIG    1       27.775 -19.857   7.322  0.00  0.00    +0.121 A 
ATOM      5  C   LIG    1       26.715 -20.316   8.103  0.00  0.00    +0.046 A 
ATOM      6  C   LIG    1       25.610 -20.925   7.504  0.00  0.00    +0.012 A 
ATOM      7  C   LIG    1       25.546 -21.079   6.115  0.00  0.00    -0.016 A 
ATOM      8  C   LIG    1       26.606 -20.623   5.329  0.00  0.00    +0.012 A 
ATOM      9  C   LIG    1       27.709 -20.004   5.932  0.00  0.00    +0.046 A 
BRANCH   4  10
ATOM     10  O   LIG    1       28.882 -19.211   7.798  0.00  0.00    -0.491 OA
BRANCH  10  11
ATOM     11  C   LIG    1       29.869 -18.764   6.852  0.00  0.00    +0.244 C 
BRANCH  11  12
ATOM     12  C   LIG    1       31.209 -19.475   7.128  0.00  0.00    +0.125 C 
BRANCH  12  13
ATOM     13  N   LIG    1       31.888 -19.251   8.425  0.00  0.00    -0.300 NA
BRANCH  13  15
ATOM     14  C   LIG    1       31.064 -17.652  10.210  0.00  0.00    +0.020 C 
ATOM     15  C   LIG    1       31.832 -17.861   8.903  0.00  0.00    +0.081 C 
ENDBRANCH  13  15
BRANCH  13  16
ATOM     16  C   LIG    1       31.435 -20.222   9.439  0.00  0.00    +0.081 C 
ATOM     17  C   LIG    1       31.190 -21.633   8.904  0.00  0.00    +0.020 C 
ENDBRANCH  13  16
ENDBRANCH  12  13
ENDBRANCH  11  12
ENDBRANCH  10  11
ENDBRANCH   4  10
ENDBRANCH   1   7
BRANCH   1  18
ATOM     18  C   LIG    1       24.316 -23.272   5.617  0.00  0.00    -0.016 A 
ATOM     19  C   LIG    1       25.028 -24.076   4.715  0.00  0.00    +0.008 A 
ATOM     20  C   LIG    1       25.010 -25.470   4.836  0.00  0.00    +0.001 A 
ATOM     21  C   LIG    1       24.287 -26.073   5.864  0.00  0.00    +0.000 A 
ATOM     22  C   LIG    1       23.585 -25.283   6.773  0.00  0.00    +0.001 A 
ATOM     23  C   LIG    1       23.597 -23.889   6.650  0.00  0.00    +0.008 A 
ENDBRANCH   1  18
BRANCH   2  24
ATOM     24  C   LIG    1       23.393 -19.600   4.677  0.00  0.00    -0.006 A 
ATOM     25  C   LIG    1       24.425 -18.999   3.939  0.00  0.00    +0.009 A 
ATOM     26  C   LIG    1       24.397 -17.629   3.649  0.00  0.00    +0.001 A 
ATOM     27  C   LIG    1       23.330 -16.844   4.083  0.00  0.00    +0.000 A 
ATOM     28  C   LIG    1       22.294 -17.430   4.810  0.00  0.00    +0.001 A 
ATOM     29  C   LIG    1       22.327 -18.799   5.110  0.00  0.00    +0.009 A 
ENDBRANCH   2  24
TORSDOF 9
ENDMDL
MODEL 4
REMARK VINA RESULT:      -6.9      0.900      4.828
REMARK  Name = *****
REMARK                            x       y       z     vdW  Elec       q    Type
REMARK                         _______ _______ _______ _____ _____    ______ ____
ROOT
ATOM      1  C   LIG    1       25.456 -31.154   7.503  0.00  0.00    +0.008 C 
ATOM      2  C   LIG    1       25.012 -31.628   8.689  0.00  0.00    +0.056 C 
ATOM      3 CL   LIG    1       25.380 -33.253   9.228  0.00  0.00    -0.082 Cl
ENDROOT
BRANCH   1   7
ATOM      4  C   LIG    1       24.834 -27.057   6.368  0.00  0.00    +0.121 A 
ATOM      5  C   LIG    1       25.760 -27.389   7.355  0.00  0.00    +0.046 A 
ATOM      6  C   LIG    1       25.943 -28.723   7.729  0.00  0.00    +0.012 A 
ATOM      7  C   LIG    1       25.199 -29.742   7.124  0.00  0.00    -0.016 A 
ATOM      8  C   LIG    1       24.272 -29.413   6.133  0.00  0.00    +0.012 A 
ATOM      9  C   LIG    1       24.084 -28.073   5.768  0.00  0.00    +0.046 A 
BRANCH   4  10
ATOM     10  O   LIG    1       24.544 -25.785   5.956  0.00  0.00    -0.491 OA
BRANCH  10  11
ATOM     11  C   LIG    1       25.509 -24.749   6.213  0.00  0.00    +0.244 C 
BRANCH  11  12
ATOM     12  C   LIG    1       24.937 -23.390   5.764  0.00  0.00    +0.125 C 
BRANCH  12  13
ATOM     13  N   LIG    1       25.464 -22.149   6.378  0.00  0.00    -0.300 NA
BRANCH  13  15
ATOM     14  C   LIG    1       23.166 -21.092   6.220  0.00  0.00    +0.020 C 
ATOM     15  C   LIG    1       24.681 -20.943   6.067  0.00  0.00    +0.081 C 
ENDBRANCH  13  15
BRANCH  13  16
ATOM     16  C   LIG    1       25.691 -22.325   7.825  0.00  0.00    +0.081 C 
ATOM     17  C   LIG    1       25.991 -21.032   8.584  0.00  0.00    +0.020 C 
ENDBRANCH  13  16
ENDBRANCH  12  13
ENDBRANCH  11  12
ENDBRANCH  10  11
ENDBRANCH   4  10
ENDBRANCH   1   7
BRANCH   1  18
ATOM     18  C   LIG    1       26.233 -32.018   6.559  0.00  0.00    -0.016 A 
ATOM     19  C   LIG    1       27.483 -32.531   6.935  0.00  0.00    +0.008 A 
ATOM     20  C   LIG    1       28.192 -33.380   6.079  0.00  0.00    +0.001 A 
ATOM     21  C   LIG    1       27.656 -33.731   4.842  0.00  0.00    +0.000 A 
ATOM     22  C   LIG    1       26.409 -33.237   4.461  0.00  0.00    +0.001 A 
ATOM     23  C   LIG    1       25.701 -32.383   5.314  0.00  0.00    +0.008 A 
ENDBRANCH   1  18
BRANCH   2  24
ATOM     24  C   LIG    1       24.171 -30.896   9.675  0.00  0.00    -0.006 A 
ATOM     25  C   LIG    1       22.774 -31.029   9.639  0.00  0.00    +0.009 A 
ATOM     26  C   LIG    1       21.968 -30.406  10.601  0.00  0.00    +0.001 A 
ATOM     27  C   LIG    1       22.549 -29.652  11.617  0.00  0.00    +0.000 A 
ATOM     28  C   LIG    1       23.937 -29.517  11.669  0.00  0.00    +0.001 A 
ATOM     29  C   LIG    1       24.743 -30.132  10.701  0.00  0.00    +0.009 A 
ENDBRANCH   2  24
TORSDOF 9
ENDMDL
MODEL 5
REMARK VINA RESULT:      -6.8      1.390      2.166
REMARK  Name = *****
REMARK                            x       y       z     vdW  Elec       q    Type
REMARK                         _______ _______ _______ _____ _____    ______ ____
ROOT
ATOM      1  C   LIG    1       25.714 -30.010   8.899  0.00  0.00    +0.008 C 
ATOM      2  C   LIG    1       25.647 -31.311   8.534  0.00  0.00    +0.056 C 
ATOM      3 CL   LIG    1       25.880 -32.605   9.689  0.00  0.00    -0.082 Cl
ENDROOT
BRANCH   1   7
ATOM      4  C   LIG    1       24.977 -26.945   5.979  0.00  0.00    +0.121 A 
ATOM      5  C   LIG    1       26.034 -26.831   6.880  0.00  0.00    +0.046 A 
ATOM      6  C   LIG    1       26.255 -27.825   7.837  0.00  0.00    +0.012 A 
ATOM      7  C   LIG    1       25.420 -28.945   7.908  0.00  0.00    -0.016 A 
ATOM      8  C   LIG    1       24.360 -29.064   7.006  0.00  0.00    +0.012 A 
ATOM      9  C   LIG    1       24.136 -28.060   6.055  0.00  0.00    +0.046 A 
BRANCH   4  10
ATOM     10  O   LIG    1       24.645 -26.016   5.033  0.00  0.00    -0.491 OA
BRANCH  10  11
ATOM     11  C   LIG    1       24.992 -24.641   5.276  0.00  0.00    +0.244 C 
BRANCH  11  12
ATOM     12  C   LIG    1       24.072 -24.062   6.370  0.00  0.00    +0.125 C 
BRANCH  12  13
ATOM     13  N   LIG    1       24.496 -22.843   7.096  0.00  0.00    -0.300 NA
BRANCH  13  15
ATOM     14  C   LIG    1       26.855 -21.920   7.147  0.00  0.00    +0.020 C 
ATOM     15  C   LIG    1       25.840 -22.929   7.686  0.00  0.00    +0.081 C 
ENDBRANCH  13  15
BRANCH  13  16
ATOM     16  C   LIG    1       24.313 -21.638   6.265  0.00  0.00    +0.081 C 
ATOM     17  C   LIG    1       23.339 -20.609   6.841  0.00  0.00    +0.020 C 
ENDBRANCH  13  16
ENDBRANCH  12  13
ENDBRANCH  11  12
ENDBRANCH  10  11
ENDBRANCH   4  10
ENDBRANCH   1   7
BRANCH   1  18
ATOM     18  C   LIG    1       26.056 -29.610  10.300  0.00  0.00    -0.016 A 
ATOM     19  C   LIG    1       25.038 -29.341  11.227  0.00  0.00    +0.008 A 
ATOM     20  C   LIG    1       25.348 -29.015  12.552  0.00  0.00    +0.001 A 
ATOM     21  C   LIG    1       26.678 -28.963  12.965  0.00  0.00    +0.000 A 
ATOM     22  C   LIG    1       27.698 -29.239  12.055  0.00  0.00    +0.001 A 
ATOM     23  C   LIG    1       27.389 -29.559  10.729  0.00  0.00    +0.008 A 
ENDBRANCH   1  18
BRANCH   2  24
ATOM     24  C   LIG    1       25.392 -31.832   7.164  0.00  0.00    -0.006 A 
ATOM     25  C   LIG    1       26.443 -31.907   6.236  0.00  0.00    +0.009 A 
ATOM     26  C   LIG    1       26.242 -32.460   4.965  0.00  0.00    +0.001 A 
ATOM     27  C   LIG    1       24.990 -32.957   4.609  0.00  0.00    +0.000 A 
ATOM     28  C   LIG    1       23.939 -32.897   5.524  0.00  0.00    +0.001 A 
ATOM     29  C   LIG    1       24.137 -32.334   6.792  0.00  0.00    +0.009 A 
ENDBRANCH   2  24
TORSDOF 9
ENDMDL
MODEL 6
REMARK VINA RESULT:      -6.7      5.736      9.857
REMARK  Name = *****
REMARK                            x       y       z     vdW  Elec       q    Type
REMARK                         _______ _______ _______ _____ _____    ______ ____
ROOT
ATOM      1  C   LIG    1       24.784 -20.934   5.380  0.00  0.00    +0.008 C 
ATOM      2  C   LIG    1       24.372 -22.177   5.042  0.00  0.00    +0.056 C 
ATOM      3 CL   LIG    1       23.008 -22.436   3.976  0.00  0.00    -0.082 Cl
ENDROOT
BRANCH   1   7
ATOM      4  C   LIG    1       28.321 -20.304   7.738  0.00  0.00    +0.121 A 
ATOM      5  C   LIG    1       28.390 -20.338   6.346  0.00  0.00    +0.046 A 
ATOM      6  C   LIG    1       27.237 -20.560   5.589  0.00  0.00    +0.012 A 
ATOM      7  C   LIG    1       26.000 -20.756   6.213  0.00  0.00    -0.016 A 
ATOM      8  C   LIG    1       25.927 -20.721   7.608  0.00  0.00    +0.012 A 
ATOM      9  C   LIG    1       27.087 -20.508   8.364  0.00  0.00    +0.046 A 
BRANCH   4  10
ATOM     10  O   LIG    1       29.390 -20.137   8.575  0.00  0.00    -0.491 OA
BRANCH  10  11
ATOM     11  C   LIG    1       30.213 -18.969   8.406  0.00  0.00    +0.244 C 
BRANCH  11  12
ATOM     12  C   LIG    1       31.440 -19.064   9.334  0.00  0.00    +0.125 C 
BRANCH  12  13
ATOM     13  N   LIG    1       31.894 -17.851  10.053  0.00  0.00    -0.300 NA
BRANCH  13  15
ATOM     14  C   LIG    1       33.014 -15.587   9.853  0.00  0.00    +0.020 C 
ATOM     15  C   LIG    1       32.261 -16.731   9.173  0.00  0.00    +0.081 C 
ENDBRANCH  13  15
BRANCH  13  16
ATOM     16  C   LIG    1       30.933 -17.462  11.102  0.00  0.00    +0.081 C 
ATOM     17  C   LIG    1       31.566 -17.126  12.453  0.00  0.00    +0.020 C 
ENDBRANCH  13  16
ENDBRANCH  12  13
ENDBRANCH  11  12
ENDBRANCH  10  11
ENDBRANCH   4  10
ENDBRANCH   1   7
BRANCH   1  18
ATOM     18  C   LIG    1       24.054 -19.715   4.911  0.00  0.00    -0.016 A 
ATOM     19  C   LIG    1       24.667 -18.823   4.017  0.00  0.00    +0.008 A 
ATOM     20  C   LIG    1       23.974 -17.708   3.535  0.00  0.00    +0.001 A 
ATOM     21  C   LIG    1       22.658 -17.478   3.933  0.00  0.00    +0.000 A 
ATOM     22  C   LIG    1       22.035 -18.363   4.811  0.00  0.00    +0.001 A 
ATOM     23  C   LIG    1       22.729 -19.475   5.300  0.00  0.00    +0.008 A 
ENDBRANCH   1  18
BRANCH   2  24
ATOM     24  C   LIG    1       24.965 -23.461   5.504  0.00  0.00    -0.006 A 
ATOM     25  C   LIG    1       25.399 -23.594   6.833  0.00  0.00    +0.009 A 
ATOM     26  C   LIG    1       25.894 -24.815   7.309  0.00  0.00    +0.001 A 
ATOM     27  C   LIG    1       25.951 -25.922   6.465  0.00  0.00    +0.000 A 
ATOM     28  C   LIG    1       25.516 -25.806   5.145  0.00  0.00    +0.001 A 
ATOM     29  C   LIG    1       25.030 -24.582   4.665  0.00  0.00    +0.009 A 
ENDBRANCH   2  24
TORSDOF 9
ENDMDL
MODEL 7
REMARK VINA RESULT:      -6.7      1.444      4.597
REMARK  Name = *****
REMARK                            x       y       z     vdW  Elec       q    Type
REMARK                         _______ _______ _______ _____ _____    ______ ____
ROOT
ATOM      1  C   LIG    1       25.262 -30.301   7.415  0.00  0.00    +0.008 C 
ATOM      2  C   LIG    1       25.611 -30.669   8.669  0.00  0.00    +0.056 C 
ATOM      3 CL   LIG    1       25.842 -32.348   9.106  0.00  0.00    -0.082 Cl
ENDROOT
BRANCH   1   7
ATOM      4  C   LIG    1       25.099 -26.142   6.348  0.00  0.00    +0.121 A 
ATOM      5  C   LIG    1       26.048 -26.607   7.257  0.00  0.00    +0.046 A 
ATOM      6  C   LIG    1       26.082 -27.959   7.610  0.00  0.00    +0.012 A 
ATOM      7  C   LIG    1       25.165 -28.862   7.063  0.00  0.00    -0.016 A 
ATOM      8  C   LIG    1       24.213 -28.400   6.151  0.00  0.00    +0.012 A 
ATOM      9  C   LIG    1       24.176 -27.042   5.807  0.00  0.00    +0.046 A 
BRANCH   4  10
ATOM     10  O   LIG    1       24.949 -24.837   5.965  0.00  0.00    -0.491 OA
BRANCH  10  11
ATOM     11  C   LIG    1       23.767 -24.135   6.387  0.00  0.00    +0.244 C 
BRANCH  11  12
ATOM     12  C   LIG    1       24.162 -22.979   7.327  0.00  0.00    +0.125 C 
BRANCH  12  13
ATOM     13  N   LIG    1       24.627 -21.701   6.741  0.00  0.00    -0.300 NA
BRANCH  13  15
ATOM     14  C   LIG    1       26.772 -20.388   7.060  0.00  0.00    +0.020 C 
ATOM     15  C   LIG    1       26.079 -21.637   6.511  0.00  0.00    +0.081 C 
ENDBRANCH  13  15
BRANCH  13  16
ATOM     16  C   LIG    1       23.843 -21.346   5.543  0.00  0.00    +0.081 C 
ATOM     17  C   LIG    1       22.924 -20.137   5.718  0.00  0.00    +0.020 C 
ENDBRANCH  13  16
ENDBRANCH  12  13
ENDBRANCH  11  12
ENDBRANCH  10  11
ENDBRANCH   4  10
ENDBRANCH   1   7
BRANCH   1  18
ATOM     18  C   LIG    1       24.991 -31.318   6.350  0.00  0.00    -0.016 A 
ATOM     19  C   LIG    1       25.973 -31.622   5.397  0.00  0.00    +0.008 A 
ATOM     20  C   LIG    1       25.747 -32.607   4.429  0.00  0.00    +0.001 A 
ATOM     21  C   LIG    1       24.540 -33.303   4.411  0.00  0.00    +0.000 A 
ATOM     22  C   LIG    1       23.561 -33.017   5.361  0.00  0.00    +0.001 A 
ATOM     23  C   LIG    1       23.783 -32.028   6.325  0.00  0.00    +0.008 A 
ENDBRANCH   1  18
BRANCH   2  24
ATOM     24  C   LIG    1       25.832 -29.761   9.827  0.00  0.00    -0.006 A 
ATOM     25  C   LIG    1       24.769 -29.461  10.695  0.00  0.00    +0.009 A 
ATOM     26  C   LIG    1       24.971 -28.667  11.831  0.00  0.00    +0.001 A 
ATOM     27  C   LIG    1       26.240 -28.172  12.120  0.00  0.00    +0.000 A 
ATOM     28  C   LIG    1       27.307 -28.468  11.271  0.00  0.00    +0.001 A 
ATOM     29  C   LIG    1       27.103 -29.254  10.128  0.00  0.00    +0.009 A 
ENDBRANCH   2  24
TORSDOF 9
ENDMDL
MODEL 8
REMARK VINA RESULT:      -6.6      5.498     10.064
REMARK  Name = *****
REMARK                            x       y       z     vdW  Elec       q    Type
REMARK                         _______ _______ _______ _____ _____    ______ ____
ROOT
ATOM      1  C   LIG    1       25.028 -22.065   5.768  0.00  0.00    +0.008 C 
ATOM      2  C   LIG    1       23.911 -21.520   5.235  0.00  0.00    +0.056 C 
ATOM      3 CL   LIG    1       22.520 -22.496   4.814  0.00  0.00    -0.082 Cl
ENDROOT
BRANCH   1   7
ATOM      4  C   LIG    1       28.319 -19.632   7.077  0.00  0.00    +0.121 A 
ATOM      5  C   LIG    1       27.389 -20.122   7.991  0.00  0.00    +0.046 A 
ATOM      6  C   LIG    1       26.313 -20.899   7.553  0.00  0.00    +0.012 A 
ATOM      7  C   LIG    1       26.150 -21.191   6.195  0.00  0.00    -0.016 A 
ATOM      8  C   LIG    1       27.082 -20.704   5.276  0.00  0.00    +0.012 A 
ATOM      9  C   LIG    1       28.154 -19.917   5.718  0.00  0.00    +0.046 A 
BRANCH   4  10
ATOM     10  O   LIG    1       29.383 -18.830   7.389  0.00  0.00    -0.491 OA
BRANCH  10  11
ATOM     11  C   LIG    1       30.490 -19.412   8.099  0.00  0.00    +0.244 C 
BRANCH  11  12
ATOM     12  C   LIG    1       31.665 -18.414   8.130  0.00  0.00    +0.125 C 
BRANCH  12  13
ATOM     13  N   LIG    1       31.524 -17.162   8.908  0.00  0.00    -0.300 NA
BRANCH  13  15
ATOM     14  C   LIG    1       30.537 -17.519  11.214  0.00  0.00    +0.020 C 
ATOM     15  C   LIG    1       30.323 -17.110   9.756  0.00  0.00    +0.081 C 
ENDBRANCH  13  15
BRANCH  13  16
ATOM     16  C   LIG    1       32.761 -16.854   9.651  0.00  0.00    +0.081 C 
ATOM     17  C   LIG    1       33.025 -15.363   9.859  0.00  0.00    +0.020 C 
ENDBRANCH  13  16
ENDBRANCH  12  13
ENDBRANCH  11  12
ENDBRANCH  10  11
ENDBRANCH   4  10
ENDBRANCH   1   7
BRANCH   1  18
ATOM     18  C   LIG    1       25.157 -23.543   5.966  0.00  0.00    -0.016 A 
ATOM     19  C   LIG    1       24.875 -24.425   4.912  0.00  0.00    +0.008 A 
ATOM     20  C   LIG    1       25.042 -25.804   5.073  0.00  0.00    +0.001 A 
ATOM     21  C   LIG    1       25.499 -26.316   6.285  0.00  0.00    +0.000 A 
ATOM     22  C   LIG    1       25.794 -25.449   7.336  0.00  0.00    +0.001 A 
ATOM     23  C   LIG    1       25.622 -24.069   7.179  0.00  0.00    +0.008 A 
ENDBRANCH   1  18
BRANCH   2  24
ATOM     24  C   LIG    1       23.693 -20.082   4.921  0.00  0.00    -0.006 A 
ATOM     25  C   LIG    1       24.578 -19.410   4.062  0.00  0.00    +0.009 A 
ATOM     26  C   LIG    1       24.352 -18.077   3.696  0.00  0.00    +0.001 A 
ATOM     27  C   LIG    1       23.232 -17.402   4.175  0.00  0.00    +0.000 A 
ATOM     28  C   LIG    1       22.340 -18.059   5.022  0.00  0.00    +0.001 A 
ATOM     29  C   LIG    1       22.571 -19.390   5.398  0.00  0.00    +0.009 A 
ENDBRANCH   2  24
TORSDOF 9
ENDMDL
MODEL 9
REMARK VINA RESULT:      -6.1      5.526      9.307
REMARK  Name = *****
REMARK                            x       y       z     vdW  Elec       q    Type
REMARK                         _______ _______ _______ _____ _____    ______ ____
ROOT
ATOM      1  C   LIG    1       24.752 -21.157   5.457  0.00  0.00    +0.008 C 
ATOM      2  C   LIG    1       24.322 -22.369   5.040  0.00  0.00    +0.056 C 
ATOM      3 CL   LIG    1       23.050 -22.536   3.849  0.00  0.00    -0.082 Cl
ENDROOT
BRANCH   1   7
ATOM      4  C   LIG    1       28.009 -20.965   8.254  0.00  0.00    +0.121 A 
ATOM      5  C   LIG    1       26.701 -20.718   8.667  0.00  0.00    +0.046 A 
ATOM      6  C   LIG    1       25.651 -20.766   7.746  0.00  0.00    +0.012 A 
ATOM      7  C   LIG    1       25.895 -21.058   6.400  0.00  0.00    -0.016 A 
ATOM      8  C   LIG    1       27.205 -21.308   5.983  0.00  0.00    +0.012 A 
ATOM      9  C   LIG    1       28.256 -21.249   6.907  0.00  0.00    +0.046 A 
BRANCH   4  10
ATOM     10  O   LIG    1       29.113 -20.903   9.059  0.00  0.00    -0.491 OA
BRANCH  10  11
ATOM     11  C   LIG    1       30.398 -21.186   8.476  0.00  0.00    +0.244 C 
BRANCH  11  12
ATOM     12  C   LIG    1       31.354 -20.005   8.737  0.00  0.00    +0.125 C 
BRANCH  12  13
ATOM     13  N   LIG    1       31.250 -18.794   7.891  0.00  0.00    -0.300 NA
BRANCH  13  15
ATOM     14  C   LIG    1       29.626 -18.393   5.987  0.00  0.00    +0.020 C 
ATOM     15  C   LIG    1       30.904 -19.068   6.487  0.00  0.00    +0.081 C 
ENDBRANCH  13  15
BRANCH  13  16
ATOM     16  C   LIG    1       30.369 -17.786   8.509  0.00  0.00    +0.081 C 
ATOM     17  C   LIG    1       30.428 -17.739  10.036  0.00  0.00    +0.020 C 
ENDBRANCH  13  16
ENDBRANCH  12  13
ENDBRANCH  11  12
ENDBRANCH  10  11
ENDBRANCH   4  10
ENDBRANCH   1   7
BRANCH   1  18
ATOM     18  C   LIG    1       24.116 -19.893   4.970  0.00  0.00    -0.016 A 
ATOM     19  C   LIG    1       24.817 -19.035   4.108  0.00  0.00    +0.008 A 
ATOM     20  C   LIG    1       24.211 -17.878   3.608  0.00  0.00    +0.001 A 
ATOM     21  C   LIG    1       22.898 -17.570   3.956  0.00  0.00    +0.000 A 
ATOM     22  C   LIG    1       22.188 -18.421   4.802  0.00  0.00    +0.001 A 
ATOM     23  C   LIG    1       22.794 -19.576   5.308  0.00  0.00    +0.008 A 
ENDBRANCH   1  18
BRANCH   2  24
ATOM     24  C   LIG    1       24.820 -23.692   5.506  0.00  0.00    -0.006 A 
ATOM     25  C   LIG    1       24.998 -24.737   4.585  0.00  0.00    +0.009 A 
ATOM     26  C   LIG    1       25.532 -25.968   4.989  0.00  0.00    +0.001 A 
ATOM     27  C   LIG    1       25.907 -26.165   6.316  0.00  0.00    +0.000 A 
ATOM     28  C   LIG    1       25.744 -25.133   7.239  0.00  0.00    +0.001 A 
ATOM     29  C   LIG    1       25.199 -23.905   6.838  0.00  0.00    +0.009 A 
ENDBRANCH   2  24
TORSDOF 9
ENDMDL
