MODEL 1
REMARK VINA RESULT:      10.3      0.000      0.000
REMARK  Name = *****
REMARK                            x       y       z     vdW  Elec       q    Type
REMARK                         _______ _______ _______ _____ _____    ______ ____
ROOT
ATOM      1  C   LIG    1       23.474 -14.675   3.853  0.00  0.00    +0.062 C 
ATOM      2  C   LIG    1       24.229 -15.921   3.336  0.00  0.00    +0.010 C 
ATOM      3  C   LIG    1       25.630 -15.588   2.750  0.00  0.00    +0.003 C 
ATOM      4  C   LIG    1       26.388 -16.878   2.342  0.00  0.00    +0.005 C 
ATOM      5  C   LIG    1       25.624 -18.178   2.607  0.00  0.00    +0.011 C 
ATOM      6  C   LIG    1       25.108 -18.294   4.062  0.00  0.00    +0.011 C 
ATOM      7  C   LIG    1       26.301 -18.293   5.040  0.00  0.00    +0.015 C 
ATOM      8  C   LIG    1       24.180 -19.545   4.274  0.00  0.00    +0.120 C 
ATOM      9  O   LIG    1       24.071 -19.878   5.674  0.00  0.00    -0.458 OA
ATOM     10  C   LIG    1       24.766 -21.021   5.949  0.00  0.00    +0.308 C 
ATOM     11  O   LIG    1       24.912 -21.485   7.061  0.00  0.00    -0.251 OA
ATOM     12  C   LIG    1       25.360 -21.571   4.688  0.00  0.00    +0.124 C 
ATOM     13  C   LIG    1       24.557 -20.865   3.624  0.00  0.00    +0.060 C 
ATOM     14  C   LIG    1       22.814 -19.038   3.831  0.00  0.00    +0.049 C 
ATOM     15  C   LIG    1       22.746 -17.659   4.469  0.00  0.00    +0.008 C 
ATOM     16  C   LIG    1       26.454 -14.426   3.466  0.00  0.00    -0.007 C 
ATOM     17  C   LIG    1       26.518 -13.195   2.513  0.00  0.00    +0.016 C 
ATOM     18  C   LIG    1       25.813 -13.967   4.779  0.00  0.00    -0.059 C 
ATOM     19  C   LIG    1       26.544 -13.557   5.836  0.00  0.00    +0.046 C 
ATOM     20  C   LIG    1       28.023 -13.444   5.800  0.00  0.00    +0.156 C 
ATOM     21  O   LIG    1       28.619 -13.012   6.783  0.00  0.00    -0.293 OA
ATOM     22  C   LIG    1       28.736 -13.793   4.522  0.00  0.00    +0.080 C 
ATOM     23  C   LIG    1       27.937 -14.826   3.738  0.00  0.00    +0.019 C 
ATOM     24  C   LIG    1       24.181 -17.074   4.383  0.00  0.00    +0.003 C 
ATOM     25  C   LIG    1       24.303 -13.945   4.928  0.00  0.00    +0.046 C 
ENDROOT
BRANCH   1  26
ATOM     26  S   LIG    1       22.947 -13.496   2.544  0.00  0.00    -0.084 S 
BRANCH  26  28
ATOM     27  C   LIG    1       24.691 -11.448   2.029  0.00  0.00    +0.099 C 
ATOM     28  C   LIG    1       23.731 -12.003   3.038  0.00  0.00    +0.187 C 
ATOM     29  O   LIG    1       23.560 -11.482   4.132  0.00  0.00    -0.285 OA
ENDBRANCH  26  28
ENDBRANCH   1  26
TORSDOF 2
ENDMDL
