MODEL 1
REMARK VINA RESULT:      -2.3      0.000      0.000
REMARK  Name = *****
REMARK                            x       y       z     vdW  Elec       q    Type
REMARK                         _______ _______ _______ _____ _____    ______ ____
ROOT
ATOM      1  N   LIG    1       23.578 -18.902   4.059  0.00  0.00    -0.155 NA
ATOM      2  C   LIG    1       24.112 -17.729   3.945  0.00  0.00    +0.184 C 
ATOM      3  N   LIG    1       23.480 -16.541   4.254  0.00  0.00    -0.244 N 
ATOM      4  C   LIG    1       22.098 -16.474   4.684  0.00  0.00    +0.175 C 
ATOM      5  N   LIG    1       24.149 -15.360   4.048  0.00  0.00    -0.141 NA
ATOM      6  C   LIG    1       25.339 -15.646   3.590  0.00  0.00    +0.254 C 
ATOM      7  S   LIG    1       25.718 -17.343   3.340  0.00  0.00    -0.011 S 
ENDROOT
BRANCH   1   9
ATOM      8  C   LIG    1       25.106 -20.526   4.954  0.00  0.00    +0.111 C 
ATOM      9  C   LIG    1       24.306 -20.027   3.779  0.00  0.00    +0.235 C 
ATOM     10  O   LIG    1       24.439 -20.523   2.666  0.00  0.00    -0.274 OA
ENDBRANCH   1   9
BRANCH   6  11
ATOM     11  S   LIG    1       26.484 -14.328   3.239  0.00  0.00    +0.081 S 
ATOM     12  O   LIG    1       25.996 -13.163   3.944  0.00  0.00    -0.151 OA
ATOM     13  O   LIG    1       26.716 -14.348   1.813  0.00  0.00    -0.151 OA
BRANCH  11  14
ATOM     14  N   LIG    1       27.957 -14.754   3.968  0.00  0.00    -0.202 NA
ATOM     15  H   LIG    1       27.839 -15.521   4.631  0.00  0.00    +0.144 HD
ATOM     16  H   LIG    1       28.678 -14.929   3.267  0.00  0.00    +0.144 HD
ENDBRANCH  11  14
ENDBRANCH   6  11
TORSDOF 3
ENDMDL
MODEL 2
REMARK VINA RESULT:      -2.3      1.727      5.093
REMARK  Name = *****
REMARK                            x       y       z     vdW  Elec       q    Type
REMARK                         _______ _______ _______ _____ _____    ______ ____
ROOT
ATOM      1  N   LIG    1       25.362 -14.557   3.514  0.00  0.00    -0.155 NA
ATOM      2  C   LIG    1       25.001 -15.791   3.653  0.00  0.00    +0.184 C 
ATOM      3  N   LIG    1       23.764 -16.206   4.105  0.00  0.00    -0.244 N 
ATOM      4  C   LIG    1       22.738 -15.283   4.547  0.00  0.00    +0.175 C 
ATOM      5  N   LIG    1       23.524 -17.551   4.243  0.00  0.00    -0.141 NA
ATOM      6  C   LIG    1       24.597 -18.192   3.864  0.00  0.00    +0.254 C 
ATOM      7  S   LIG    1       25.974 -17.227   3.356  0.00  0.00    -0.011 S 
ENDROOT
BRANCH   1   9
ATOM      8  C   LIG    1       27.588 -13.841   4.062  0.00  0.00    +0.111 C 
ATOM      9  C   LIG    1       26.594 -14.246   3.005  0.00  0.00    +0.235 C 
ATOM     10  O   LIG    1       26.862 -14.151   1.813  0.00  0.00    -0.274 OA
ENDBRANCH   1   9
BRANCH   6  11
ATOM     11  S   LIG    1       24.611 -19.973   3.895  0.00  0.00    +0.081 S 
ATOM     12  O   LIG    1       24.581 -20.406   2.515  0.00  0.00    -0.151 OA
ATOM     13  O   LIG    1       23.629 -20.379   4.872  0.00  0.00    -0.151 OA
BRANCH  11  14
ATOM     14  N   LIG    1       26.123 -20.438   4.515  0.00  0.00    -0.202 NA
ATOM     15  H   LIG    1       26.027 -20.943   5.396  0.00  0.00    +0.144 HD
ATOM     16  H   LIG    1       26.669 -20.942   3.814  0.00  0.00    +0.144 HD
ENDBRANCH  11  14
ENDBRANCH   6  11
TORSDOF 3
ENDMDL
MODEL 3
REMARK VINA RESULT:      -2.3      2.190      2.703
REMARK  Name = *****
REMARK                            x       y       z     vdW  Elec       q    Type
REMARK                         _______ _______ _______ _____ _____    ______ ____
ROOT
ATOM      1  N   LIG    1       26.100 -19.563   4.226  0.00  0.00    -0.155 NA
ATOM      2  C   LIG    1       26.459 -18.332   4.054  0.00  0.00    +0.184 C 
ATOM      3  N   LIG    1       27.673 -17.803   4.443  0.00  0.00    -0.244 N 
ATOM      4  C   LIG    1       28.670 -18.568   5.163  0.00  0.00    +0.175 C 
ATOM      5  N   LIG    1       27.912 -16.466   4.235  0.00  0.00    -0.141 NA
ATOM      6  C   LIG    1       26.863 -15.957   3.647  0.00  0.00    +0.254 C 
ATOM      7  S   LIG    1       25.509 -17.034   3.342  0.00  0.00    -0.011 S 
ENDROOT
BRANCH   1   9
ATOM      8  C   LIG    1       23.831 -20.082   4.821  0.00  0.00    +0.111 C 
ATOM      9  C   LIG    1       24.893 -20.007   3.756  0.00  0.00    +0.235 C 
ATOM     10  O   LIG    1       24.694 -20.448   2.630  0.00  0.00    -0.274 OA
ENDBRANCH   1   9
BRANCH   6  11
ATOM     11  S   LIG    1       26.855 -14.231   3.208  0.00  0.00    +0.081 S 
ATOM     12  O   LIG    1       26.125 -13.545   4.252  0.00  0.00    -0.151 OA
ATOM     13  O   LIG    1       26.491 -14.159   1.812  0.00  0.00    -0.151 OA
BRANCH  11  14
ATOM     14  N   LIG    1       28.464 -13.694   3.310  0.00  0.00    -0.202 NA
ATOM     15  H   LIG    1       28.684 -13.030   2.567  0.00  0.00    +0.144 HD
ATOM     16  H   LIG    1       28.676 -13.345   4.245  0.00  0.00    +0.144 HD
ENDBRANCH  11  14
ENDBRANCH   6  11
TORSDOF 3
ENDMDL
MODEL 4
REMARK VINA RESULT:      -2.2      2.381      5.772
REMARK  Name = *****
REMARK                            x       y       z     vdW  Elec       q    Type
REMARK                         _______ _______ _______ _____ _____    ______ ____
ROOT
ATOM      1  N   LIG    1       27.487 -15.865   3.771  0.00  0.00    -0.155 NA
ATOM      2  C   LIG    1       26.947 -17.027   3.942  0.00  0.00    +0.184 C 
ATOM      3  N   LIG    1       27.570 -18.107   4.536  0.00  0.00    -0.244 N 
ATOM      4  C   LIG    1       28.948 -18.073   4.980  0.00  0.00    +0.175 C 
ATOM      5  N   LIG    1       26.894 -19.300   4.620  0.00  0.00    -0.141 NA
ATOM      6  C   LIG    1       25.709 -19.129   4.097  0.00  0.00    +0.254 C 
ATOM      7  S   LIG    1       25.342 -17.543   3.437  0.00  0.00    -0.011 S 
ENDROOT
BRANCH   1   9
ATOM      8  C   LIG    1       25.897 -14.120   4.215  0.00  0.00    +0.111 C 
ATOM      9  C   LIG    1       26.768 -14.839   3.218  0.00  0.00    +0.235 C 
ATOM     10  O   LIG    1       26.697 -14.592   2.020  0.00  0.00    -0.274 OA
ENDBRANCH   1   9
BRANCH   6  11
ATOM     11  S   LIG    1       24.559 -20.487   4.070  0.00  0.00    +0.081 S 
ATOM     12  O   LIG    1       25.096 -21.497   4.956  0.00  0.00    -0.151 OA
ATOM     13  O   LIG    1       24.246 -20.739   2.682  0.00  0.00    -0.151 OA
BRANCH  11  14
ATOM     14  N   LIG    1       23.125 -19.927   4.788  0.00  0.00    -0.202 NA
ATOM     15  H   LIG    1       23.284 -19.610   5.744  0.00  0.00    +0.144 HD
ATOM     16  H   LIG    1       22.666 -19.231   4.199  0.00  0.00    +0.144 HD
ENDBRANCH  11  14
ENDBRANCH   6  11
TORSDOF 3
ENDMDL
MODEL 5
REMARK VINA RESULT:      -2.2      2.559      5.769
REMARK  Name = *****
REMARK                            x       y       z     vdW  Elec       q    Type
REMARK                         _______ _______ _______ _____ _____    ______ ____
ROOT
ATOM      1  N   LIG    1       27.527 -15.732   3.687  0.00  0.00    -0.155 NA
ATOM      2  C   LIG    1       26.968 -16.883   3.876  0.00  0.00    +0.184 C 
ATOM      3  N   LIG    1       27.578 -17.966   4.479  0.00  0.00    -0.244 N 
ATOM      4  C   LIG    1       28.960 -17.950   4.912  0.00  0.00    +0.175 C 
ATOM      5  N   LIG    1       26.882 -19.146   4.582  0.00  0.00    -0.141 NA
ATOM      6  C   LIG    1       25.697 -18.961   4.067  0.00  0.00    +0.254 C 
ATOM      7  S   LIG    1       25.351 -17.377   3.391  0.00  0.00    -0.011 S 
ENDROOT
BRANCH   1   9
ATOM      8  C   LIG    1       25.979 -13.948   4.124  0.00  0.00    +0.111 C 
ATOM      9  C   LIG    1       26.821 -14.701   3.127  0.00  0.00    +0.235 C 
ATOM     10  O   LIG    1       26.738 -14.472   1.926  0.00  0.00    -0.274 OA
ENDBRANCH   1   9
BRANCH   6  11
ATOM     11  S   LIG    1       24.523 -20.300   4.065  0.00  0.00    +0.081 S 
ATOM     12  O   LIG    1       24.420 -20.753   2.695  0.00  0.00    -0.151 OA
ATOM     13  O   LIG    1       23.386 -19.857   4.838  0.00  0.00    -0.151 OA
BRANCH  11  14
ATOM     14  N   LIG    1       25.230 -21.571   4.942  0.00  0.00    -0.202 NA
ATOM     15  H   LIG    1       26.243 -21.593   4.819  0.00  0.00    +0.144 HD
ATOM     16  H   LIG    1       24.940 -21.549   5.921  0.00  0.00    +0.144 HD
ENDBRANCH  11  14
ENDBRANCH   6  11
TORSDOF 3
ENDMDL
MODEL 6
REMARK VINA RESULT:      -2.1      1.655      5.145
REMARK  Name = *****
REMARK                            x       y       z     vdW  Elec       q    Type
REMARK                         _______ _______ _______ _____ _____    ______ ____
ROOT
ATOM      1  N   LIG    1       25.284 -14.984   3.570  0.00  0.00    -0.155 NA
ATOM      2  C   LIG    1       24.885 -16.208   3.695  0.00  0.00    +0.184 C 
ATOM      3  N   LIG    1       23.647 -16.589   4.171  0.00  0.00    -0.244 N 
ATOM      4  C   LIG    1       22.665 -15.641   4.657  0.00  0.00    +0.175 C 
ATOM      5  N   LIG    1       23.365 -17.928   4.291  0.00  0.00    -0.141 NA
ATOM      6  C   LIG    1       24.406 -18.597   3.873  0.00  0.00    +0.254 C 
ATOM      7  S   LIG    1       25.802 -17.669   3.347  0.00  0.00    -0.011 S 
ENDROOT
BRANCH   1   9
ATOM      8  C   LIG    1       27.595 -14.566   4.073  0.00  0.00    +0.111 C 
ATOM      9  C   LIG    1       26.513 -14.704   3.035  0.00  0.00    +0.235 C 
ATOM     10  O   LIG    1       26.727 -14.440   1.857  0.00  0.00    -0.274 OA
ENDBRANCH   1   9
BRANCH   6  11
ATOM     11  S   LIG    1       24.361 -20.377   3.870  0.00  0.00    +0.081 S 
ATOM     12  O   LIG    1       25.413 -20.815   4.761  0.00  0.00    -0.151 OA
ATOM     13  O   LIG    1       24.274 -20.789   2.488  0.00  0.00    -0.151 OA
BRANCH  11  14
ATOM     14  N   LIG    1       22.893 -20.830   4.596  0.00  0.00    -0.202 NA
ATOM     15  H   LIG    1       22.971 -21.732   5.067  0.00  0.00    +0.144 HD
ATOM     16  H   LIG    1       22.535 -20.086   5.196  0.00  0.00    +0.144 HD
ENDBRANCH  11  14
ENDBRANCH   6  11
TORSDOF 3
ENDMDL
MODEL 7
REMARK VINA RESULT:      -1.8      2.206      2.885
REMARK  Name = *****
REMARK                            x       y       z     vdW  Elec       q    Type
REMARK                         _______ _______ _______ _____ _____    ______ ____
ROOT
ATOM      1  N   LIG    1       23.813 -18.542   4.074  0.00  0.00    -0.155 NA
ATOM      2  C   LIG    1       24.257 -17.344   3.872  0.00  0.00    +0.184 C 
ATOM      3  N   LIG    1       25.526 -17.040   3.419  0.00  0.00    -0.244 N 
ATOM      4  C   LIG    1       26.539 -18.048   3.180  0.00  0.00    +0.175 C 
ATOM      5  N   LIG    1       25.883 -15.721   3.285  0.00  0.00    -0.141 NA
ATOM      6  C   LIG    1       24.856 -14.988   3.621  0.00  0.00    +0.254 C 
ATOM      7  S   LIG    1       23.409 -15.829   4.156  0.00  0.00    -0.011 S 
ENDROOT
BRANCH   1   9
ATOM      8  C   LIG    1       22.390 -19.761   5.578  0.00  0.00    +0.111 C 
ATOM      9  C   LIG    1       22.519 -18.744   4.474  0.00  0.00    +0.235 C 
ATOM     10  O   LIG    1       21.528 -18.281   3.921  0.00  0.00    -0.274 OA
ENDBRANCH   1   9
BRANCH   6  11
ATOM     11  S   LIG    1       24.977 -13.214   3.534  0.00  0.00    +0.081 S 
ATOM     12  O   LIG    1       26.245 -12.920   2.902  0.00  0.00    -0.151 OA
ATOM     13  O   LIG    1       24.606 -12.707   4.834  0.00  0.00    -0.151 OA
BRANCH  11  14
ATOM     14  N   LIG    1       23.770 -12.694   2.457  0.00  0.00    -0.202 NA
ATOM     15  H   LIG    1       22.907 -13.226   2.578  0.00  0.00    +0.144 HD
ATOM     16  H   LIG    1       23.637 -11.684   2.513  0.00  0.00    +0.144 HD
ENDBRANCH  11  14
ENDBRANCH   6  11
TORSDOF 3
ENDMDL
MODEL 8
REMARK VINA RESULT:      -1.5      2.938      5.677
REMARK  Name = *****
REMARK                            x       y       z     vdW  Elec       q    Type
REMARK                         _______ _______ _______ _____ _____    ______ ____
ROOT
ATOM      1  N   LIG    1       25.614 -12.923   3.845  0.00  0.00    -0.155 NA
ATOM      2  C   LIG    1       25.758 -14.204   3.747  0.00  0.00    +0.184 C 
ATOM      3  N   LIG    1       26.972 -14.857   3.659  0.00  0.00    -0.244 N 
ATOM      4  C   LIG    1       28.239 -14.156   3.597  0.00  0.00    +0.175 C 
ATOM      5  N   LIG    1       26.982 -16.223   3.519  0.00  0.00    -0.141 NA
ATOM      6  C   LIG    1       25.744 -16.638   3.523  0.00  0.00    +0.254 C 
ATOM      7  S   LIG    1       24.487 -15.417   3.655  0.00  0.00    -0.011 S 
ENDROOT
BRANCH   1   9
ATOM      8  C   LIG    1       23.845 -11.762   2.708  0.00  0.00    +0.111 C 
ATOM      9  C   LIG    1       24.368 -12.372   3.981  0.00  0.00    +0.235 C 
ATOM     10  O   LIG    1       23.768 -12.237   5.042  0.00  0.00    -0.274 OA
ENDBRANCH   1   9
BRANCH   6  11
ATOM     11  S   LIG    1       25.402 -18.380   3.385  0.00  0.00    +0.081 S 
ATOM     12  O   LIG    1       25.840 -18.780   2.066  0.00  0.00    -0.151 OA
ATOM     13  O   LIG    1       24.054 -18.577   3.864  0.00  0.00    -0.151 OA
BRANCH  11  14
ATOM     14  N   LIG    1       26.421 -19.167   4.492  0.00  0.00    -0.202 NA
ATOM     15  H   LIG    1       26.239 -20.170   4.521  0.00  0.00    +0.144 HD
ATOM     16  H   LIG    1       27.400 -18.935   4.320  0.00  0.00    +0.144 HD
ENDBRANCH  11  14
ENDBRANCH   6  11
TORSDOF 3
ENDMDL
MODEL 9
REMARK VINA RESULT:      -1.2      3.706      4.419
REMARK  Name = *****
REMARK                            x       y       z     vdW  Elec       q    Type
REMARK                         _______ _______ _______ _____ _____    ______ ____
ROOT
ATOM      1  N   LIG    1       28.191 -15.925   4.164  0.00  0.00    -0.155 NA
ATOM      2  C   LIG    1       27.375 -14.978   3.834  0.00  0.00    +0.184 C 
ATOM      3  N   LIG    1       27.734 -13.657   3.647  0.00  0.00    -0.244 N 
ATOM      4  C   LIG    1       29.080 -13.169   3.870  0.00  0.00    +0.175 C 
ATOM      5  N   LIG    1       26.759 -12.742   3.335  0.00  0.00    -0.141 NA
ATOM      6  C   LIG    1       25.620 -13.377   3.258  0.00  0.00    +0.254 C 
ATOM      7  S   LIG    1       25.637 -15.103   3.590  0.00  0.00    -0.011 S 
ENDROOT
BRANCH   1   9
ATOM      8  C   LIG    1       28.663 -18.091   5.090  0.00  0.00    +0.111 C 
ATOM      9  C   LIG    1       27.748 -17.216   4.274  0.00  0.00    +0.235 C 
ATOM     10  O   LIG    1       26.794 -17.689   3.667  0.00  0.00    -0.274 OA
ENDBRANCH   1   9
BRANCH   6  11
ATOM     11  S   LIG    1       24.141 -12.479   2.841  0.00  0.00    +0.081 S 
ATOM     12  O   LIG    1       23.095 -13.465   2.675  0.00  0.00    -0.151 OA
ATOM     13  O   LIG    1       24.505 -11.533   1.812  0.00  0.00    -0.151 OA
BRANCH  11  14
ATOM     14  N   LIG    1       23.726 -11.560   4.208  0.00  0.00    -0.202 NA
ATOM     15  H   LIG    1       23.791 -12.111   5.064  0.00  0.00    +0.144 HD
ATOM     16  H   LIG    1       24.259 -10.690   4.242  0.00  0.00    +0.144 HD
ENDBRANCH  11  14
ENDBRANCH   6  11
TORSDOF 3
ENDMDL
