MODEL 1
REMARK VINA RESULT:      -7.4      0.000      0.000
REMARK  Name = *****
REMARK                            x       y       z     vdW  Elec       q    Type
REMARK                         _______ _______ _______ _____ _____    ______ ____
ROOT
ATOM      1  C   LIG    1       26.598 -16.083   3.567  0.00  0.00    +0.279 C 
ATOM      2  N   LIG    1       25.790 -17.185   3.312  0.00  0.00    -0.245 N 
ATOM      3  H   LIG    1       24.928 -17.036   2.787  0.00  0.00    +0.169 HD
ATOM      4  O   LIG    1       27.725 -16.171   4.064  0.00  0.00    -0.267 OA
ENDROOT
BRANCH   1   9
ATOM      5  C   LIG    1       23.855 -11.814   3.223  0.00  0.00    +0.089 C 
ATOM      6  C   LIG    1       24.751 -12.979   3.102  0.00  0.00    +0.135 A 
ATOM      7  O   LIG    1       25.689 -12.930   2.118  0.00  0.00    -0.359 OA
ATOM      8  N   LIG    1       26.472 -14.068   2.168  0.00  0.00    -0.073 NA
ATOM      9  C   LIG    1       25.996 -14.802   3.193  0.00  0.00    +0.169 A 
ATOM     10  C   LIG    1       24.889 -14.153   3.797  0.00  0.00    +0.080 A 
ENDBRANCH   1   9
BRANCH   2  11
ATOM     11  N   LIG    1       26.215 -18.505   3.600  0.00  0.00    -0.236 NA
ATOM     12  H   LIG    1       26.435 -18.558   4.602  0.00  0.00    +0.145 HD
BRANCH  11  13
ATOM     13  C   LIG    1       25.144 -19.477   3.329  0.00  0.00    +0.137 C 
BRANCH  13  14
ATOM     14  C   LIG    1       24.602 -20.059   4.614  0.00  0.00    -0.032 A 
ATOM     15  C   LIG    1       23.220 -20.174   4.822  0.00  0.00    +0.005 A 
ATOM     16  C   LIG    1       22.724 -20.646   6.041  0.00  0.00    +0.000 A 
ATOM     17  C   LIG    1       23.602 -21.005   7.062  0.00  0.00    +0.000 A 
ATOM     18  C   LIG    1       24.978 -20.912   6.860  0.00  0.00    +0.000 A 
ATOM     19  C   LIG    1       25.476 -20.445   5.642  0.00  0.00    +0.005 A 
ENDBRANCH  13  14
ENDBRANCH  11  13
ENDBRANCH   2  11
TORSDOF 4
ENDMDL
MODEL 2
REMARK VINA RESULT:      -7.4      0.130      1.177
REMARK  Name = *****
REMARK                            x       y       z     vdW  Elec       q    Type
REMARK                         _______ _______ _______ _____ _____    ______ ____
ROOT
ATOM      1  C   LIG    1       26.534 -16.111   3.558  0.00  0.00    +0.279 C 
ATOM      2  N   LIG    1       25.714 -17.205   3.304  0.00  0.00    -0.245 N 
ATOM      3  H   LIG    1       24.846 -17.044   2.792  0.00  0.00    +0.169 HD
ATOM      4  O   LIG    1       27.666 -16.212   4.039  0.00  0.00    -0.267 OA
ENDROOT
BRANCH   1   9
ATOM      5  C   LIG    1       23.818 -11.819   3.292  0.00  0.00    +0.089 C 
ATOM      6  C   LIG    1       24.704 -12.989   3.147  0.00  0.00    +0.135 A 
ATOM      7  O   LIG    1       25.629 -12.938   2.152  0.00  0.00    -0.359 OA
ATOM      8  N   LIG    1       26.404 -14.082   2.180  0.00  0.00    -0.073 NA
ATOM      9  C   LIG    1       25.937 -14.822   3.204  0.00  0.00    +0.169 A 
ATOM     10  C   LIG    1       24.843 -14.171   3.830  0.00  0.00    +0.080 A 
ENDBRANCH   1   9
BRANCH   2  11
ATOM     11  N   LIG    1       26.133 -18.531   3.574  0.00  0.00    -0.236 NA
ATOM     12  H   LIG    1       26.407 -18.583   4.563  0.00  0.00    +0.145 HD
BRANCH  11  13
ATOM     13  C   LIG    1       25.033 -19.486   3.366  0.00  0.00    +0.137 C 
BRANCH  13  14
ATOM     14  C   LIG    1       24.569 -20.072   4.680  0.00  0.00    -0.032 A 
ATOM     15  C   LIG    1       25.494 -20.468   5.656  0.00  0.00    +0.005 A 
ATOM     16  C   LIG    1       25.061 -21.075   6.838  0.00  0.00    +0.000 A 
ATOM     17  C   LIG    1       23.702 -21.293   7.056  0.00  0.00    +0.000 A 
ATOM     18  C   LIG    1       22.772 -20.888   6.101  0.00  0.00    +0.000 A 
ATOM     19  C   LIG    1       23.202 -20.277   4.921  0.00  0.00    +0.005 A 
ENDBRANCH  13  14
ENDBRANCH  11  13
ENDBRANCH   2  11
TORSDOF 4
ENDMDL
MODEL 3
REMARK VINA RESULT:      -6.6      1.739      2.279
REMARK  Name = *****
REMARK                            x       y       z     vdW  Elec       q    Type
REMARK                         _______ _______ _______ _____ _____    ______ ____
ROOT
ATOM      1  C   LIG    1       25.640 -16.500   3.436  0.00  0.00    +0.279 C 
ATOM      2  N   LIG    1       26.365 -17.667   3.224  0.00  0.00    -0.245 N 
ATOM      3  H   LIG    1       27.380 -17.593   3.139  0.00  0.00    +0.169 HD
ATOM      4  O   LIG    1       24.434 -16.490   3.694  0.00  0.00    -0.267 OA
ENDROOT
BRANCH   1   9
ATOM      5  C   LIG    1       28.919 -12.656   4.027  0.00  0.00    +0.089 C 
ATOM      6  C   LIG    1       27.877 -13.634   3.662  0.00  0.00    +0.135 A 
ATOM      7  O   LIG    1       27.221 -13.421   2.490  0.00  0.00    -0.359 OA
ATOM      8  N   LIG    1       26.316 -14.444   2.273  0.00  0.00    -0.073 NA
ATOM      9  C   LIG    1       26.436 -15.275   3.327  0.00  0.00    +0.169 A 
ATOM     10  C   LIG    1       27.402 -14.783   4.241  0.00  0.00    +0.080 A 
ENDBRANCH   1   9
BRANCH   2  11
ATOM     11  N   LIG    1       25.760 -18.946   3.302  0.00  0.00    -0.236 NA
ATOM     12  H   LIG    1       26.076 -19.497   2.494  0.00  0.00    +0.145 HD
BRANCH  11  13
ATOM     13  C   LIG    1       26.182 -19.658   4.518  0.00  0.00    +0.137 C 
BRANCH  13  14
ATOM     14  C   LIG    1       24.998 -20.280   5.221  0.00  0.00    -0.032 A 
ATOM     15  C   LIG    1       25.155 -20.933   6.452  0.00  0.00    +0.005 A 
ATOM     16  C   LIG    1       24.070 -21.569   7.061  0.00  0.00    +0.000 A 
ATOM     17  C   LIG    1       22.819 -21.559   6.447  0.00  0.00    +0.000 A 
ATOM     18  C   LIG    1       22.645 -20.898   5.233  0.00  0.00    +0.000 A 
ATOM     19  C   LIG    1       23.728 -20.259   4.624  0.00  0.00    +0.005 A 
ENDBRANCH  13  14
ENDBRANCH  11  13
ENDBRANCH   2  11
TORSDOF 4
ENDMDL
MODEL 4
REMARK VINA RESULT:      -6.6      1.747      2.009
REMARK  Name = *****
REMARK                            x       y       z     vdW  Elec       q    Type
REMARK                         _______ _______ _______ _____ _____    ______ ____
ROOT
ATOM      1  C   LIG    1       25.662 -16.475   3.433  0.00  0.00    +0.279 C 
ATOM      2  N   LIG    1       26.370 -17.653   3.224  0.00  0.00    -0.245 N 
ATOM      3  H   LIG    1       27.385 -17.592   3.133  0.00  0.00    +0.169 HD
ATOM      4  O   LIG    1       24.457 -16.447   3.699  0.00  0.00    -0.267 OA
ENDROOT
BRANCH   1   9
ATOM      5  C   LIG    1       28.928 -12.622   4.029  0.00  0.00    +0.089 C 
ATOM      6  C   LIG    1       27.904 -13.612   3.651  0.00  0.00    +0.135 A 
ATOM      7  O   LIG    1       27.323 -13.458   2.430  0.00  0.00    -0.359 OA
ATOM      8  N   LIG    1       26.426 -14.486   2.210  0.00  0.00    -0.073 NA
ATOM      9  C   LIG    1       26.473 -15.262   3.311  0.00  0.00    +0.169 A 
ATOM     10  C   LIG    1       27.384 -14.727   4.258  0.00  0.00    +0.080 A 
ENDBRANCH   1   9
BRANCH   2  11
ATOM     11  N   LIG    1       25.749 -18.923   3.315  0.00  0.00    -0.236 NA
ATOM     12  H   LIG    1       26.053 -19.484   2.509  0.00  0.00    +0.145 HD
BRANCH  11  13
ATOM     13  C   LIG    1       26.170 -19.632   4.533  0.00  0.00    +0.137 C 
BRANCH  13  14
ATOM     14  C   LIG    1       24.999 -20.327   5.189  0.00  0.00    -0.032 A 
ATOM     15  C   LIG    1       23.721 -20.275   4.614  0.00  0.00    +0.005 A 
ATOM     16  C   LIG    1       22.628 -20.858   5.262  0.00  0.00    +0.000 A 
ATOM     17  C   LIG    1       22.801 -21.495   6.489  0.00  0.00    +0.000 A 
ATOM     18  C   LIG    1       24.069 -21.569   7.062  0.00  0.00    +0.000 A 
ATOM     19  C   LIG    1       25.163 -20.990   6.414  0.00  0.00    +0.005 A 
ENDBRANCH  13  14
ENDBRANCH  11  13
ENDBRANCH   2  11
TORSDOF 4
ENDMDL
MODEL 5
REMARK VINA RESULT:      -6.0      1.822      2.314
REMARK  Name = *****
REMARK                            x       y       z     vdW  Elec       q    Type
REMARK                         _______ _______ _______ _____ _____    ______ ____
ROOT
ATOM      1  C   LIG    1       24.408 -15.359   4.033  0.00  0.00    +0.279 C 
ATOM      2  N   LIG    1       24.401 -16.734   3.827  0.00  0.00    -0.245 N 
ATOM      3  H   LIG    1       25.287 -17.189   3.601  0.00  0.00    +0.169 HD
ATOM      4  O   LIG    1       23.429 -14.732   4.449  0.00  0.00    -0.267 OA
ENDROOT
BRANCH   1   9
ATOM      5  C   LIG    1       28.766 -12.737   4.024  0.00  0.00    +0.089 C 
ATOM      6  C   LIG    1       27.552 -13.537   3.781  0.00  0.00    +0.135 A 
ATOM      7  O   LIG    1       27.472 -14.181   2.585  0.00  0.00    -0.359 OA
ATOM      8  N   LIG    1       26.304 -14.919   2.534  0.00  0.00    -0.073 NA
ATOM      9  C   LIG    1       25.682 -14.713   3.712  0.00  0.00    +0.169 A 
ATOM     10  C   LIG    1       26.434 -13.825   4.522  0.00  0.00    +0.080 A 
ENDBRANCH   1   9
BRANCH   2  11
ATOM     11  N   LIG    1       23.257 -17.523   4.097  0.00  0.00    -0.236 NA
ATOM     12  H   LIG    1       22.472 -17.142   3.554  0.00  0.00    +0.145 HD
BRANCH  11  13
ATOM     13  C   LIG    1       23.460 -18.915   3.665  0.00  0.00    +0.137 C 
BRANCH  13  14
ATOM     14  C   LIG    1       23.864 -19.791   4.828  0.00  0.00    -0.032 A 
ATOM     15  C   LIG    1       22.936 -20.144   5.818  0.00  0.00    +0.005 A 
ATOM     16  C   LIG    1       23.333 -20.893   6.928  0.00  0.00    +0.000 A 
ATOM     17  C   LIG    1       24.661 -21.296   7.062  0.00  0.00    +0.000 A 
ATOM     18  C   LIG    1       25.589 -20.968   6.076  0.00  0.00    +0.000 A 
ATOM     19  C   LIG    1       25.193 -20.221   4.963  0.00  0.00    +0.005 A 
ENDBRANCH  13  14
ENDBRANCH  11  13
ENDBRANCH   2  11
TORSDOF 4
ENDMDL
MODEL 6
REMARK VINA RESULT:      -5.9      2.513      7.174
REMARK  Name = *****
REMARK                            x       y       z     vdW  Elec       q    Type
REMARK                         _______ _______ _______ _____ _____    ______ ____
ROOT
ATOM      1  C   LIG    1       25.356 -18.611   3.844  0.00  0.00    +0.279 C 
ATOM      2  N   LIG    1       26.250 -17.560   3.675  0.00  0.00    -0.245 N 
ATOM      3  H   LIG    1       27.188 -17.662   4.063  0.00  0.00    +0.169 HD
ATOM      4  O   LIG    1       24.250 -18.654   3.296  0.00  0.00    -0.267 OA
ENDROOT
BRANCH   1   9
ATOM      5  C   LIG    1       27.955 -21.572   7.061  0.00  0.00    +0.089 C 
ATOM      6  C   LIG    1       27.038 -20.907   6.117  0.00  0.00    +0.135 A 
ATOM      7  O   LIG    1       25.839 -21.512   5.899  0.00  0.00    -0.359 OA
ATOM      8  N   LIG    1       25.084 -20.744   5.032  0.00  0.00    -0.073 NA
ATOM      9  C   LIG    1       25.840 -19.670   4.731  0.00  0.00    +0.169 A 
ATOM     10  C   LIG    1       27.097 -19.749   5.384  0.00  0.00    +0.080 A 
ENDBRANCH   1   9
BRANCH   2  11
ATOM     11  N   LIG    1       25.952 -16.454   2.841  0.00  0.00    -0.236 NA
ATOM     12  H   LIG    1       24.944 -16.269   2.906  0.00  0.00    +0.145 HD
BRANCH  11  13
ATOM     13  C   LIG    1       26.655 -15.244   3.296  0.00  0.00    +0.137 C 
BRANCH  13  14
ATOM     14  C   LIG    1       25.730 -14.050   3.304  0.00  0.00    -0.032 A 
ATOM     15  C   LIG    1       25.005 -13.710   4.455  0.00  0.00    +0.005 A 
ATOM     16  C   LIG    1       24.097 -12.648   4.434  0.00  0.00    +0.000 A 
ATOM     17  C   LIG    1       23.902 -11.917   3.263  0.00  0.00    +0.000 A 
ATOM     18  C   LIG    1       24.630 -12.233   2.117  0.00  0.00    +0.000 A 
ATOM     19  C   LIG    1       25.541 -13.292   2.138  0.00  0.00    +0.005 A 
ENDBRANCH  13  14
ENDBRANCH  11  13
ENDBRANCH   2  11
TORSDOF 4
ENDMDL
MODEL 7
REMARK VINA RESULT:      -5.9      2.043      2.912
REMARK  Name = *****
REMARK                            x       y       z     vdW  Elec       q    Type
REMARK                         _______ _______ _______ _____ _____    ______ ____
ROOT
ATOM      1  C   LIG    1       24.040 -14.820   4.285  0.00  0.00    +0.279 C 
ATOM      2  N   LIG    1       23.729 -16.173   4.210  0.00  0.00    -0.245 N 
ATOM      3  H   LIG    1       24.478 -16.823   3.966  0.00  0.00    +0.169 HD
ATOM      4  O   LIG    1       23.254 -13.968   4.709  0.00  0.00    -0.267 OA
ENDROOT
BRANCH   1   9
ATOM      5  C   LIG    1       28.793 -13.112   3.688  0.00  0.00    +0.089 C 
ATOM      6  C   LIG    1       27.441 -13.695   3.625  0.00  0.00    +0.135 A 
ATOM      7  O   LIG    1       27.169 -14.498   2.561  0.00  0.00    -0.359 OA
ATOM      8  N   LIG    1       25.885 -14.999   2.675  0.00  0.00    -0.073 NA
ATOM      9  C   LIG    1       25.387 -14.490   3.818  0.00  0.00    +0.169 A 
ATOM     10  C   LIG    1       26.338 -13.640   4.439  0.00  0.00    +0.080 A 
ENDBRANCH   1   9
BRANCH   2  11
ATOM     11  N   LIG    1       22.473 -16.675   4.630  0.00  0.00    -0.236 NA
ATOM     12  H   LIG    1       21.753 -15.993   4.364  0.00  0.00    +0.145 HD
BRANCH  11  13
ATOM     13  C   LIG    1       22.157 -17.942   3.953  0.00  0.00    +0.137 C 
BRANCH  13  14
ATOM     14  C   LIG    1       23.035 -19.063   4.462  0.00  0.00    -0.032 A 
ATOM     15  C   LIG    1       24.193 -19.438   3.767  0.00  0.00    +0.005 A 
ATOM     16  C   LIG    1       24.961 -20.522   4.203  0.00  0.00    +0.000 A 
ATOM     17  C   LIG    1       24.578 -21.241   5.334  0.00  0.00    +0.000 A 
ATOM     18  C   LIG    1       23.439 -20.866   6.043  0.00  0.00    +0.000 A 
ATOM     19  C   LIG    1       22.672 -19.781   5.611  0.00  0.00    +0.005 A 
ENDBRANCH  13  14
ENDBRANCH  11  13
ENDBRANCH   2  11
TORSDOF 4
ENDMDL
MODEL 8
REMARK VINA RESULT:      -5.9      2.327      6.735
REMARK  Name = *****
REMARK                            x       y       z     vdW  Elec       q    Type
REMARK                         _______ _______ _______ _____ _____    ______ ____
ROOT
ATOM      1  C   LIG    1       26.075 -19.124   4.229  0.00  0.00    +0.279 C 
ATOM      2  N   LIG    1       25.776 -18.060   3.386  0.00  0.00    -0.245 N 
ATOM      3  H   LIG    1       24.793 -17.860   3.197  0.00  0.00    +0.169 HD
ATOM      4  O   LIG    1       27.214 -19.364   4.638  0.00  0.00    -0.267 OA
ENDROOT
BRANCH   1   9
ATOM      5  C   LIG    1       21.475 -21.222   4.788  0.00  0.00    +0.089 C 
ATOM      6  C   LIG    1       22.883 -20.783   4.800  0.00  0.00    +0.135 A 
ATOM      7  O   LIG    1       23.765 -21.572   5.471  0.00  0.00    -0.359 OA
ATOM      8  N   LIG    1       25.039 -21.051   5.347  0.00  0.00    -0.073 NA
ATOM      9  C   LIG    1       24.915 -19.941   4.594  0.00  0.00    +0.169 A 
ATOM     10  C   LIG    1       23.557 -19.726   4.245  0.00  0.00    +0.080 A 
ENDBRANCH   1   9
BRANCH   2  11
ATOM     11  N   LIG    1       26.773 -17.158   2.941  0.00  0.00    -0.236 NA
ATOM     12  H   LIG    1       26.489 -16.798   2.022  0.00  0.00    +0.145 HD
BRANCH  11  13
ATOM     13  C   LIG    1       26.891 -16.008   3.851  0.00  0.00    +0.137 C 
BRANCH  13  14
ATOM     14  C   LIG    1       25.967 -14.887   3.431  0.00  0.00    -0.032 A 
ATOM     15  C   LIG    1       26.373 -13.941   2.479  0.00  0.00    +0.005 A 
ATOM     16  C   LIG    1       25.542 -12.867   2.149  0.00  0.00    +0.000 A 
ATOM     17  C   LIG    1       24.301 -12.727   2.767  0.00  0.00    +0.000 A 
ATOM     18  C   LIG    1       23.879 -13.670   3.701  0.00  0.00    +0.000 A 
ATOM     19  C   LIG    1       24.706 -14.747   4.030  0.00  0.00    +0.005 A 
ENDBRANCH  13  14
ENDBRANCH  11  13
ENDBRANCH   2  11
TORSDOF 4
ENDMDL
MODEL 9
REMARK VINA RESULT:      -4.9      2.289      3.325
REMARK  Name = *****
REMARK                            x       y       z     vdW  Elec       q    Type
REMARK                         _______ _______ _______ _____ _____    ______ ____
ROOT
ATOM      1  C   LIG    1       24.293 -14.289   3.728  0.00  0.00    +0.279 C 
ATOM      2  N   LIG    1       23.915 -15.520   4.253  0.00  0.00    -0.245 N 
ATOM      3  H   LIG    1       24.541 -15.966   4.926  0.00  0.00    +0.169 HD
ATOM      4  O   LIG    1       23.552 -13.598   3.023  0.00  0.00    -0.267 OA
ENDROOT
BRANCH   1   9
ATOM      5  C   LIG    1       29.186 -12.902   3.810  0.00  0.00    +0.089 C 
ATOM      6  C   LIG    1       27.785 -13.301   4.039  0.00  0.00    +0.135 A 
ATOM      7  O   LIG    1       27.325 -13.217   5.317  0.00  0.00    -0.359 OA
ATOM      8  N   LIG    1       25.991 -13.578   5.354  0.00  0.00    -0.073 NA
ATOM      9  C   LIG    1       25.652 -13.879   4.085  0.00  0.00    +0.169 A 
ATOM     10  C   LIG    1       26.770 -13.736   3.224  0.00  0.00    +0.080 A 
ENDBRANCH   1   9
BRANCH   2  11
ATOM     11  N   LIG    1       22.630 -16.068   4.020  0.00  0.00    -0.236 NA
ATOM     12  H   LIG    1       22.642 -16.526   3.101  0.00  0.00    +0.145 HD
BRANCH  11  13
ATOM     13  C   LIG    1       22.303 -17.094   5.023  0.00  0.00    +0.137 C 
BRANCH  13  14
ATOM     14  C   LIG    1       22.846 -18.444   4.614  0.00  0.00    -0.032 A 
ATOM     15  C   LIG    1       22.351 -19.622   5.191  0.00  0.00    +0.005 A 
ATOM     16  C   LIG    1       22.907 -20.861   4.861  0.00  0.00    +0.000 A 
ATOM     17  C   LIG    1       23.963 -20.936   3.955  0.00  0.00    +0.000 A 
ATOM     18  C   LIG    1       24.452 -19.774   3.361  0.00  0.00    +0.000 A 
ATOM     19  C   LIG    1       23.895 -18.535   3.686  0.00  0.00    +0.005 A 
ENDBRANCH  13  14
ENDBRANCH  11  13
ENDBRANCH   2  11
TORSDOF 4
ENDMDL
