MODEL 1
REMARK VINA RESULT:      -4.7      0.000      0.000
REMARK  Name = *****
REMARK                            x       y       z     vdW  Elec       q    Type
REMARK                         _______ _______ _______ _____ _____    ______ ____
ROOT
ATOM      1  C   LIG    1       25.957 -14.695   2.890  0.00  0.00    +0.120 A 
ATOM      2  C   LIG    1       24.866 -14.037   3.428  0.00  0.00    +0.046 A 
ATOM      3  C   LIG    1       23.885 -14.755   4.090  0.00  0.00    +0.015 A 
ATOM      4  C   LIG    1       23.873 -16.133   4.112  0.00  0.00    +0.018 A 
ATOM      5  C   LIG    1       25.034 -16.807   3.712  0.00  0.00    +0.015 A 
ATOM      6  C   LIG    1       26.092 -16.068   3.130  0.00  0.00    +0.046 A 
ENDROOT
BRANCH   4   7
ATOM      7  C   LIG    1       22.638 -16.885   4.546  0.00  0.00    +0.164 C 
ATOM      8  O   LIG    1       21.826 -16.316   5.245  0.00  0.00    -0.292 OA
BRANCH   7   9
ATOM      9  C   LIG    1       22.448 -18.382   4.142  0.00  0.00    +0.095 C 
BRANCH   9  10
ATOM     10  C   LIG    1       22.427 -19.441   5.253  0.00  0.00    +0.092 C 
BRANCH  10  11
ATOM     11  N   LIG    1       22.955 -20.774   4.961  0.00  0.00    -0.302 NA
ATOM     12  C   LIG    1       24.196 -20.682   4.158  0.00  0.00    +0.084 C 
ATOM     13  C   LIG    1       25.401 -20.139   4.932  0.00  0.00    +0.015 C 
ATOM     14  C   LIG    1       25.616 -20.930   6.217  0.00  0.00    +0.002 C 
ATOM     15  C   LIG    1       24.325 -21.056   7.024  0.00  0.00    +0.015 C 
ATOM     16  C   LIG    1       23.173 -21.572   6.163  0.00  0.00    +0.084 C 
ENDBRANCH  10  11
ENDBRANCH   9  10
ENDBRANCH   7   9
ENDBRANCH   4   7
BRANCH   1  17
ATOM     17  O   LIG    1       26.930 -14.059   2.167  0.00  0.00    -0.492 OA
BRANCH  17  18
ATOM     18  C   LIG    1       27.482 -12.865   2.757  0.00  0.00    +0.229 C 
BRANCH  18  19
ATOM     19  C   LIG    1       28.586 -13.210   3.758  0.00  0.00    +0.041 C 
BRANCH  19  21
ATOM     20  C   LIG    1       27.260 -13.320   5.928  0.00  0.00    +0.004 C 
ATOM     21  C   LIG    1       28.328 -12.585   5.133  0.00  0.00    +0.000 C 
ENDBRANCH  19  21
ENDBRANCH  18  19
ENDBRANCH  17  18
ENDBRANCH   1  17
TORSDOF 8
ENDMDL
MODEL 2
REMARK VINA RESULT:      -4.5      2.097      3.842
REMARK  Name = *****
REMARK                            x       y       z     vdW  Elec       q    Type
REMARK                         _______ _______ _______ _____ _____    ______ ____
ROOT
ATOM      1  C   LIG    1       26.648 -15.181   2.932  0.00  0.00    +0.120 A 
ATOM      2  C   LIG    1       26.105 -16.452   2.875  0.00  0.00    +0.046 A 
ATOM      3  C   LIG    1       26.582 -17.444   3.713  0.00  0.00    +0.015 A 
ATOM      4  C   LIG    1       27.689 -17.259   4.512  0.00  0.00    +0.018 A 
ATOM      5  C   LIG    1       28.155 -15.951   4.698  0.00  0.00    +0.015 A 
ATOM      6  C   LIG    1       27.599 -14.907   3.922  0.00  0.00    +0.046 A 
ENDROOT
BRANCH   4   7
ATOM      7  C   LIG    1       28.380 -18.438   5.155  0.00  0.00    +0.164 C 
ATOM      8  O   LIG    1       29.474 -18.272   5.649  0.00  0.00    -0.292 OA
BRANCH   7   9
ATOM      9  C   LIG    1       27.712 -19.851   5.126  0.00  0.00    +0.095 C 
BRANCH   9  10
ATOM     10  C   LIG    1       26.409 -20.059   5.909  0.00  0.00    +0.092 C 
BRANCH  10  11
ATOM     11  N   LIG    1       25.507 -21.134   5.495  0.00  0.00    -0.302 NA
ATOM     12  C   LIG    1       24.588 -21.500   6.598  0.00  0.00    +0.084 C 
ATOM     13  C   LIG    1       23.530 -20.437   6.909  0.00  0.00    +0.015 C 
ATOM     14  C   LIG    1       22.770 -20.051   5.645  0.00  0.00    +0.002 C 
ATOM     15  C   LIG    1       23.720 -19.710   4.498  0.00  0.00    +0.015 C 
ATOM     16  C   LIG    1       24.759 -20.810   4.285  0.00  0.00    +0.084 C 
ENDBRANCH  10  11
ENDBRANCH   9  10
ENDBRANCH   7   9
ENDBRANCH   4   7
BRANCH   1  17
ATOM     17  O   LIG    1       26.271 -14.170   2.088  0.00  0.00    -0.492 OA
BRANCH  17  18
ATOM     18  C   LIG    1       25.754 -12.979   2.715  0.00  0.00    +0.229 C 
BRANCH  18  19
ATOM     19  C   LIG    1       24.240 -13.077   2.912  0.00  0.00    +0.041 C 
BRANCH  19  21
ATOM     20  C   LIG    1       23.343 -14.855   4.497  0.00  0.00    +0.004 C 
ATOM     21  C   LIG    1       23.873 -13.437   4.355  0.00  0.00    +0.000 C 
ENDBRANCH  19  21
ENDBRANCH  18  19
ENDBRANCH  17  18
ENDBRANCH   1  17
TORSDOF 8
ENDMDL
MODEL 3
REMARK VINA RESULT:      -4.2      2.556      4.178
REMARK  Name = *****
REMARK                            x       y       z     vdW  Elec       q    Type
REMARK                         _______ _______ _______ _____ _____    ______ ____
ROOT
ATOM      1  C   LIG    1       27.232 -16.832   3.751  0.00  0.00    +0.120 A 
ATOM      2  C   LIG    1       28.398 -16.839   4.495  0.00  0.00    +0.046 A 
ATOM      3  C   LIG    1       28.796 -17.997   5.140  0.00  0.00    +0.015 A 
ATOM      4  C   LIG    1       27.997 -19.118   5.197  0.00  0.00    +0.018 A 
ATOM      5  C   LIG    1       26.896 -19.184   4.333  0.00  0.00    +0.015 A 
ATOM      6  C   LIG    1       26.540 -18.038   3.583  0.00  0.00    +0.046 A 
ENDROOT
BRANCH   4   7
ATOM      7  C   LIG    1       28.301 -20.231   6.170  0.00  0.00    +0.164 C 
ATOM      8  O   LIG    1       29.460 -20.502   6.401  0.00  0.00    -0.292 OA
BRANCH   7   9
ATOM      9  C   LIG    1       27.136 -21.048   6.817  0.00  0.00    +0.095 C 
BRANCH   9  10
ATOM     10  C   LIG    1       25.695 -20.578   6.581  0.00  0.00    +0.092 C 
BRANCH  10  11
ATOM     11  N   LIG    1       24.708 -21.551   6.112  0.00  0.00    -0.302 NA
ATOM     12  C   LIG    1       23.394 -21.314   6.754  0.00  0.00    +0.084 C 
ATOM     13  C   LIG    1       22.686 -20.042   6.277  0.00  0.00    +0.015 C 
ATOM     14  C   LIG    1       22.585 -20.022   4.756  0.00  0.00    +0.002 C 
ATOM     15  C   LIG    1       23.934 -20.304   4.097  0.00  0.00    +0.015 C 
ATOM     16  C   LIG    1       24.579 -21.570   4.659  0.00  0.00    +0.084 C 
ENDBRANCH  10  11
ENDBRANCH   9  10
ENDBRANCH   7   9
ENDBRANCH   4   7
BRANCH   1  17
ATOM     17  O   LIG    1       26.744 -15.707   3.141  0.00  0.00    -0.492 OA
BRANCH  17  18
ATOM     18  C   LIG    1       27.315 -14.455   3.568  0.00  0.00    +0.229 C 
BRANCH  18  19
ATOM     19  C   LIG    1       26.434 -13.781   4.620  0.00  0.00    +0.041 C 
BRANCH  19  21
ATOM     20  C   LIG    1       24.303 -12.773   3.658  0.00  0.00    +0.004 C 
ATOM     21  C   LIG    1       24.943 -13.979   4.329  0.00  0.00    +0.000 C 
ENDBRANCH  19  21
ENDBRANCH  18  19
ENDBRANCH  17  18
ENDBRANCH   1  17
TORSDOF 8
ENDMDL
MODEL 4
REMARK VINA RESULT:      -4.1      1.208      1.671
REMARK  Name = *****
REMARK                            x       y       z     vdW  Elec       q    Type
REMARK                         _______ _______ _______ _____ _____    ______ ____
ROOT
ATOM      1  C   LIG    1       24.734 -14.848   3.960  0.00  0.00    +0.120 A 
ATOM      2  C   LIG    1       23.500 -14.765   4.580  0.00  0.00    +0.046 A 
ATOM      3  C   LIG    1       22.738 -15.906   4.754  0.00  0.00    +0.015 A 
ATOM      4  C   LIG    1       23.091 -17.117   4.200  0.00  0.00    +0.018 A 
ATOM      5  C   LIG    1       24.394 -17.258   3.706  0.00  0.00    +0.015 A 
ATOM      6  C   LIG    1       25.225 -16.115   3.622  0.00  0.00    +0.046 A 
ENDROOT
BRANCH   4   7
ATOM      7  C   LIG    1       22.095 -18.248   4.122  0.00  0.00    +0.164 C 
ATOM      8  O   LIG    1       20.919 -17.980   3.990  0.00  0.00    -0.292 OA
BRANCH   7   9
ATOM      9  C   LIG    1       22.574 -19.728   4.268  0.00  0.00    +0.095 C 
BRANCH   9  10
ATOM     10  C   LIG    1       23.000 -20.226   5.655  0.00  0.00    +0.092 C 
BRANCH  10  11
ATOM     11  N   LIG    1       23.853 -21.411   5.743  0.00  0.00    -0.302 NA
ATOM     12  C   LIG    1       24.747 -21.503   4.566  0.00  0.00    +0.084 C 
ATOM     13  C   LIG    1       25.853 -20.444   4.538  0.00  0.00    +0.015 C 
ATOM     14  C   LIG    1       26.637 -20.451   5.845  0.00  0.00    +0.002 C 
ATOM     15  C   LIG    1       25.711 -20.395   7.059  0.00  0.00    +0.015 C 
ATOM     16  C   LIG    1       24.622 -21.464   6.983  0.00  0.00    +0.084 C 
ENDBRANCH  10  11
ENDBRANCH   9  10
ENDBRANCH   7   9
ENDBRANCH   4   7
BRANCH   1  17
ATOM     17  O   LIG    1       25.511 -13.753   3.695  0.00  0.00    -0.492 OA
BRANCH  17  18
ATOM     18  C   LIG    1       25.923 -12.975   4.837  0.00  0.00    +0.229 C 
BRANCH  18  19
ATOM     19  C   LIG    1       27.309 -13.404   5.320  0.00  0.00    +0.041 C 
BRANCH  19  21
ATOM     20  C   LIG    1       29.165 -12.255   4.010  0.00  0.00    +0.004 C 
ATOM     21  C   LIG    1       28.312 -13.505   4.166  0.00  0.00    +0.000 C 
ENDBRANCH  19  21
ENDBRANCH  18  19
ENDBRANCH  17  18
ENDBRANCH   1  17
TORSDOF 8
ENDMDL
MODEL 5
REMARK VINA RESULT:      -4.0      2.710      6.316
REMARK  Name = *****
REMARK                            x       y       z     vdW  Elec       q    Type
REMARK                         _______ _______ _______ _____ _____    ______ ____
ROOT
ATOM      1  C   LIG    1       25.161 -20.525   5.268  0.00  0.00    +0.120 A 
ATOM      2  C   LIG    1       25.357 -19.554   4.302  0.00  0.00    +0.046 A 
ATOM      3  C   LIG    1       24.408 -18.564   4.118  0.00  0.00    +0.015 A 
ATOM      4  C   LIG    1       23.190 -18.585   4.762  0.00  0.00    +0.018 A 
ATOM      5  C   LIG    1       23.034 -19.462   5.844  0.00  0.00    +0.015 A 
ATOM      6  C   LIG    1       24.049 -20.412   6.110  0.00  0.00    +0.046 A 
ENDROOT
BRANCH   4   7
ATOM      7  C   LIG    1       22.061 -17.695   4.304  0.00  0.00    +0.164 C 
ATOM      8  O   LIG    1       21.123 -18.199   3.722  0.00  0.00    -0.292 OA
BRANCH   7   9
ATOM      9  C   LIG    1       22.137 -16.151   4.528  0.00  0.00    +0.095 C 
BRANCH   9  10
ATOM     10  C   LIG    1       23.167 -15.346   3.727  0.00  0.00    +0.092 C 
BRANCH  10  11
ATOM     11  N   LIG    1       23.969 -14.340   4.425  0.00  0.00    -0.302 NA
ATOM     12  C   LIG    1       25.398 -14.729   4.441  0.00  0.00    +0.084 C 
ATOM     13  C   LIG    1       26.085 -14.641   3.075  0.00  0.00    +0.015 C 
ATOM     14  C   LIG    1       25.881 -13.262   2.459  0.00  0.00    +0.002 C 
ATOM     15  C   LIG    1       24.411 -12.847   2.478  0.00  0.00    +0.015 C 
ATOM     16  C   LIG    1       23.803 -13.000   3.872  0.00  0.00    +0.084 C 
ENDBRANCH  10  11
ENDBRANCH   9  10
ENDBRANCH   7   9
ENDBRANCH   4   7
BRANCH   1  17
ATOM     17  O   LIG    1       26.024 -21.571   5.459  0.00  0.00    -0.492 OA
BRANCH  17  18
ATOM     18  C   LIG    1       26.781 -21.553   6.686  0.00  0.00    +0.229 C 
BRANCH  18  19
ATOM     19  C   LIG    1       27.425 -20.184   6.912  0.00  0.00    +0.041 C 
BRANCH  19  21
ATOM     20  C   LIG    1       29.150 -18.741   5.722  0.00  0.00    +0.004 C 
ATOM     21  C   LIG    1       28.831 -20.107   6.310  0.00  0.00    +0.000 C 
ENDBRANCH  19  21
ENDBRANCH  18  19
ENDBRANCH  17  18
ENDBRANCH   1  17
TORSDOF 8
ENDMDL
MODEL 6
REMARK VINA RESULT:      -3.7      2.311      6.889
REMARK  Name = *****
REMARK                            x       y       z     vdW  Elec       q    Type
REMARK                         _______ _______ _______ _____ _____    ______ ____
ROOT
ATOM      1  C   LIG    1       22.953 -18.413   4.232  0.00  0.00    +0.120 A 
ATOM      2  C   LIG    1       24.217 -18.127   3.748  0.00  0.00    +0.046 A 
ATOM      3  C   LIG    1       24.670 -16.819   3.734  0.00  0.00    +0.015 A 
ATOM      4  C   LIG    1       23.852 -15.756   4.049  0.00  0.00    +0.018 A 
ATOM      5  C   LIG    1       22.632 -16.029   4.681  0.00  0.00    +0.015 A 
ATOM      6  C   LIG    1       22.205 -17.373   4.799  0.00  0.00    +0.046 A 
ENDROOT
BRANCH   4   7
ATOM      7  C   LIG    1       24.262 -14.343   3.710  0.00  0.00    +0.164 C 
ATOM      8  O   LIG    1       23.838 -13.435   4.393  0.00  0.00    -0.292 OA
BRANCH   7   9
ATOM      9  C   LIG    1       25.169 -14.064   2.469  0.00  0.00    +0.095 C 
BRANCH   9  10
ATOM     10  C   LIG    1       26.493 -13.320   2.684  0.00  0.00    +0.092 C 
BRANCH  10  11
ATOM     11  N   LIG    1       27.627 -14.054   3.246  0.00  0.00    -0.302 NA
ATOM     12  C   LIG    1       28.836 -13.198   3.288  0.00  0.00    +0.084 C 
ATOM     13  C   LIG    1       28.769 -12.075   4.328  0.00  0.00    +0.015 C 
ATOM     14  C   LIG    1       28.424 -12.635   5.703  0.00  0.00    +0.002 C 
ATOM     15  C   LIG    1       27.200 -13.548   5.649  0.00  0.00    +0.015 C 
ATOM     16  C   LIG    1       27.342 -14.613   4.563  0.00  0.00    +0.084 C 
ENDBRANCH  10  11
ENDBRANCH   9  10
ENDBRANCH   7   9
ENDBRANCH   4   7
BRANCH   1  17
ATOM     17  O   LIG    1       22.415 -19.672   4.214  0.00  0.00    -0.492 OA
BRANCH  17  18
ATOM     18  C   LIG    1       23.202 -20.707   4.837  0.00  0.00    +0.229 C 
BRANCH  18  19
ATOM     19  C   LIG    1       23.106 -20.625   6.361  0.00  0.00    +0.041 C 
BRANCH  19  21
ATOM     20  C   LIG    1       25.630 -20.673   6.035  0.00  0.00    +0.004 C 
ATOM     21  C   LIG    1       24.480 -20.740   7.028  0.00  0.00    +0.000 C 
ENDBRANCH  19  21
ENDBRANCH  18  19
ENDBRANCH  17  18
ENDBRANCH   1  17
TORSDOF 8
ENDMDL
MODEL 7
REMARK VINA RESULT:      -3.6      2.961      7.149
REMARK  Name = *****
REMARK                            x       y       z     vdW  Elec       q    Type
REMARK                         _______ _______ _______ _____ _____    ______ ____
ROOT
ATOM      1  C   LIG    1       24.752 -20.786   4.596  0.00  0.00    +0.120 A 
ATOM      2  C   LIG    1       25.496 -20.978   5.746  0.00  0.00    +0.046 A 
ATOM      3  C   LIG    1       26.608 -20.189   5.988  0.00  0.00    +0.015 A 
ATOM      4  C   LIG    1       27.100 -19.307   5.051  0.00  0.00    +0.018 A 
ATOM      5  C   LIG    1       26.285 -18.990   3.956  0.00  0.00    +0.015 A 
ATOM      6  C   LIG    1       25.088 -19.717   3.756  0.00  0.00    +0.046 A 
ENDROOT
BRANCH   4   7
ATOM      7  C   LIG    1       28.479 -18.714   5.202  0.00  0.00    +0.164 C 
ATOM      8  O   LIG    1       29.291 -19.298   5.888  0.00  0.00    -0.292 OA
BRANCH   7   9
ATOM      9  C   LIG    1       28.825 -17.347   4.529  0.00  0.00    +0.095 C 
BRANCH   9  10
ATOM     10  C   LIG    1       27.930 -16.138   4.832  0.00  0.00    +0.092 C 
BRANCH  10  11
ATOM     11  N   LIG    1       27.764 -15.112   3.801  0.00  0.00    -0.302 NA
ATOM     12  C   LIG    1       26.518 -15.340   3.032  0.00  0.00    +0.084 C 
ATOM     13  C   LIG    1       25.237 -15.060   3.823  0.00  0.00    +0.015 C 
ATOM     14  C   LIG    1       25.278 -13.664   4.435  0.00  0.00    +0.002 C 
ATOM     15  C   LIG    1       26.580 -13.419   5.195  0.00  0.00    +0.015 C 
ATOM     16  C   LIG    1       27.801 -13.757   4.339  0.00  0.00    +0.084 C 
ENDBRANCH  10  11
ENDBRANCH   9  10
ENDBRANCH   7   9
ENDBRANCH   4   7
BRANCH   1  17
ATOM     17  O   LIG    1       23.682 -21.572   4.260  0.00  0.00    -0.492 OA
BRANCH  17  18
ATOM     18  C   LIG    1       22.431 -21.245   4.897  0.00  0.00    +0.229 C 
BRANCH  18  19
ATOM     19  C   LIG    1       22.436 -19.803   5.407  0.00  0.00    +0.041 C 
BRANCH  19  21
ATOM     20  C   LIG    1       22.284 -17.408   4.559  0.00  0.00    +0.004 C 
ATOM     21  C   LIG    1       21.793 -18.839   4.405  0.00  0.00    +0.000 C 
ENDBRANCH  19  21
ENDBRANCH  18  19
ENDBRANCH  17  18
ENDBRANCH   1  17
TORSDOF 8
ENDMDL
MODEL 8
REMARK VINA RESULT:      -2.5      2.366      6.921
REMARK  Name = *****
REMARK                            x       y       z     vdW  Elec       q    Type
REMARK                         _______ _______ _______ _____ _____    ______ ____
ROOT
ATOM      1  C   LIG    1       23.556 -18.373   4.054  0.00  0.00    +0.120 A 
ATOM      2  C   LIG    1       24.734 -17.817   3.589  0.00  0.00    +0.046 A 
ATOM      3  C   LIG    1       24.896 -16.442   3.592  0.00  0.00    +0.015 A 
ATOM      4  C   LIG    1       23.865 -15.583   3.905  0.00  0.00    +0.018 A 
ATOM      5  C   LIG    1       22.726 -16.119   4.518  0.00  0.00    +0.015 A 
ATOM      6  C   LIG    1       22.596 -17.524   4.619  0.00  0.00    +0.046 A 
ENDROOT
BRANCH   4   7
ATOM      7  C   LIG    1       23.966 -14.112   3.583  0.00  0.00    +0.164 C 
ATOM      8  O   LIG    1       23.008 -13.559   3.084  0.00  0.00    -0.292 OA
BRANCH   7   9
ATOM      9  C   LIG    1       25.300 -13.340   3.839  0.00  0.00    +0.095 C 
BRANCH   9  10
ATOM     10  C   LIG    1       25.873 -13.325   5.262  0.00  0.00    +0.092 C 
BRANCH  10  11
ATOM     11  N   LIG    1       27.164 -13.969   5.506  0.00  0.00    -0.302 NA
ATOM     12  C   LIG    1       27.589 -14.754   4.324  0.00  0.00    +0.084 C 
ATOM     13  C   LIG    1       28.000 -13.898   3.122  0.00  0.00    +0.015 C 
ATOM     14  C   LIG    1       29.050 -12.871   3.527  0.00  0.00    +0.002 C 
ATOM     15  C   LIG    1       28.626 -12.090   4.769  0.00  0.00    +0.015 C 
ATOM     16  C   LIG    1       28.202 -13.024   5.902  0.00  0.00    +0.084 C 
ENDBRANCH  10  11
ENDBRANCH   9  10
ENDBRANCH   7   9
ENDBRANCH   4   7
BRANCH   1  17
ATOM     17  O   LIG    1       23.302 -19.718   4.020  0.00  0.00    -0.492 OA
BRANCH  17  18
ATOM     18  C   LIG    1       22.295 -20.198   4.932  0.00  0.00    +0.229 C 
BRANCH  18  19
ATOM     19  C   LIG    1       22.856 -21.294   5.840  0.00  0.00    +0.041 C 
BRANCH  19  21
ATOM     20  C   LIG    1       25.094 -20.784   6.941  0.00  0.00    +0.004 C 
ATOM     21  C   LIG    1       23.579 -20.713   7.059  0.00  0.00    +0.000 C 
ENDBRANCH  19  21
ENDBRANCH  18  19
ENDBRANCH  17  18
ENDBRANCH   1  17
TORSDOF 8
ENDMDL
MODEL 9
REMARK VINA RESULT:      -1.8      1.910      3.089
REMARK  Name = *****
REMARK                            x       y       z     vdW  Elec       q    Type
REMARK                         _______ _______ _______ _____ _____    ______ ____
ROOT
ATOM      1  C   LIG    1       27.133 -15.452   3.536  0.00  0.00    +0.120 A 
ATOM      2  C   LIG    1       25.831 -15.806   3.231  0.00  0.00    +0.046 A 
ATOM      3  C   LIG    1       25.395 -17.099   3.464  0.00  0.00    +0.015 A 
ATOM      4  C   LIG    1       26.253 -18.103   3.855  0.00  0.00    +0.018 A 
ATOM      5  C   LIG    1       27.526 -17.739   4.312  0.00  0.00    +0.015 A 
ATOM      6  C   LIG    1       27.946 -16.394   4.179  0.00  0.00    +0.046 A 
ENDROOT
BRANCH   4   7
ATOM      7  C   LIG    1       25.830 -19.550   3.780  0.00  0.00    +0.164 C 
ATOM      8  O   LIG    1       25.494 -20.003   2.706  0.00  0.00    -0.292 OA
BRANCH   7   9
ATOM      9  C   LIG    1       25.774 -20.421   5.077  0.00  0.00    +0.095 C 
BRANCH   9  10
ATOM     10  C   LIG    1       24.527 -21.279   5.327  0.00  0.00    +0.092 C 
BRANCH  10  11
ATOM     11  N   LIG    1       23.460 -20.737   6.169  0.00  0.00    -0.302 NA
ATOM     12  C   LIG    1       23.133 -19.348   5.770  0.00  0.00    +0.084 C 
ATOM     13  C   LIG    1       22.418 -19.239   4.419  0.00  0.00    +0.015 C 
ATOM     14  C   LIG    1       21.191 -20.142   4.386  0.00  0.00    +0.002 C 
ATOM     15  C   LIG    1       21.524 -21.564   4.835  0.00  0.00    +0.015 C 
ATOM     16  C   LIG    1       22.263 -21.571   6.172  0.00  0.00    +0.084 C 
ENDBRANCH  10  11
ENDBRANCH   9  10
ENDBRANCH   7   9
ENDBRANCH   4   7
BRANCH   1  17
ATOM     17  O   LIG    1       27.650 -14.212   3.272  0.00  0.00    -0.492 OA
BRANCH  17  18
ATOM     18  C   LIG    1       27.552 -13.244   4.335  0.00  0.00    +0.229 C 
BRANCH  18  19
ATOM     19  C   LIG    1       26.355 -13.542   5.239  0.00  0.00    +0.041 C 
BRANCH  19  21
ATOM     20  C   LIG    1       24.299 -12.817   3.925  0.00  0.00    +0.004 C 
ATOM     21  C   LIG    1       25.242 -12.502   5.076  0.00  0.00    +0.000 C 
ENDBRANCH  19  21
ENDBRANCH  18  19
ENDBRANCH  17  18
ENDBRANCH   1  17
TORSDOF 8
ENDMDL
