MODEL 1
REMARK VINA RESULT:      -5.1      0.000      0.000
REMARK  Name = *****
REMARK                            x       y       z     vdW  Elec       q    Type
REMARK                         _______ _______ _______ _____ _____    ______ ____
ROOT
ATOM      1  C   LIG    1       24.613 -17.917   3.881  0.00  0.00    +0.034 A 
ATOM      2  C   LIG    1       24.053 -16.643   4.073  0.00  0.00    +0.042 A 
ATOM      3  C   LIG    1       24.780 -15.464   3.782  0.00  0.00    +0.133 A 
ATOM      4  C   LIG    1       26.083 -15.612   3.291  0.00  0.00    +0.285 A 
ATOM      5  C   LIG    1       26.657 -16.872   3.099  0.00  0.00    +0.086 A 
ATOM      6  C   LIG    1       25.919 -18.013   3.403  0.00  0.00    +0.030 A 
ENDROOT
BRANCH   1   8
ATOM      7  C   LIG    1       24.210 -20.143   4.937  0.00  0.00    +0.220 C 
ATOM      8  N   LIG    1       23.817 -19.044   4.189  0.00  0.00    -0.285 N 
ATOM      9  H   LIG    1       22.873 -19.041   3.829  0.00  0.00    +0.155 HD
ATOM     10  O   LIG    1       25.322 -20.312   5.423  0.00  0.00    -0.275 OA
BRANCH   7  12
ATOM     11  C   LIG    1       22.979 -21.571   6.587  0.00  0.00    +0.017 C 
ATOM     12  C   LIG    1       23.115 -21.199   5.105  0.00  0.00    +0.069 C 
ATOM     13  C   LIG    1       21.780 -20.695   4.561  0.00  0.00    +0.017 C 
ENDBRANCH   7  12
ENDBRANCH   1   8
BRANCH   3  14
ATOM     14  C   LIG    1       24.121 -14.134   4.034  0.00  0.00    +0.424 C 
ATOM     15  F   LIG    1       23.003 -14.259   4.797  0.00  0.00    -0.166 F 
ATOM     16  F   LIG    1       23.707 -13.554   2.871  0.00  0.00    -0.166 F 
ATOM     17  F   LIG    1       24.900 -13.202   4.635  0.00  0.00    -0.166 F 
ENDBRANCH   3  14
BRANCH   4  18
ATOM     18  N   LIG    1       26.920 -14.476   2.968  0.00  0.00    +0.080 N 
ATOM     19  O   LIG    1       27.763 -14.150   3.817  0.00  0.00    -0.576 OA
ATOM     20  O   LIG    1       26.756 -13.951   1.863  0.00  0.00    +0.042 OA
ENDBRANCH   4  18
TORSDOF 4
ENDMDL
MODEL 2
REMARK VINA RESULT:      -5.0      2.505      6.146
REMARK  Name = *****
REMARK                            x       y       z     vdW  Elec       q    Type
REMARK                         _______ _______ _______ _____ _____    ______ ____
ROOT
ATOM      1  C   LIG    1       25.649 -17.066   3.350  0.00  0.00    +0.034 A 
ATOM      2  C   LIG    1       24.314 -17.203   3.764  0.00  0.00    +0.042 A 
ATOM      3  C   LIG    1       23.787 -18.456   4.157  0.00  0.00    +0.133 A 
ATOM      4  C   LIG    1       24.648 -19.560   4.122  0.00  0.00    +0.285 A 
ATOM      5  C   LIG    1       25.977 -19.443   3.708  0.00  0.00    +0.086 A 
ATOM      6  C   LIG    1       26.464 -18.197   3.319  0.00  0.00    +0.030 A 
ENDROOT
BRANCH   1   8
ATOM      7  C   LIG    1       27.198 -15.114   3.505  0.00  0.00    +0.220 C 
ATOM      8  N   LIG    1       26.100 -15.778   2.981  0.00  0.00    -0.285 N 
ATOM      9  H   LIG    1       25.569 -15.302   2.265  0.00  0.00    +0.155 HD
ATOM     10  O   LIG    1       27.930 -15.540   4.391  0.00  0.00    -0.275 OA
BRANCH   7  12
ATOM     11  C   LIG    1       26.095 -13.013   2.703  0.00  0.00    +0.017 C 
ATOM     12  C   LIG    1       27.436 -13.733   2.891  0.00  0.00    +0.069 C 
ATOM     13  C   LIG    1       28.368 -12.897   3.766  0.00  0.00    +0.017 C 
ENDBRANCH   7  12
ENDBRANCH   1   8
BRANCH   3  14
ATOM     14  C   LIG    1       22.340 -18.530   4.567  0.00  0.00    +0.424 C 
ATOM     15  F   LIG    1       21.543 -18.932   3.541  0.00  0.00    -0.166 F 
ATOM     16  F   LIG    1       21.864 -17.308   4.941  0.00  0.00    -0.166 F 
ATOM     17  F   LIG    1       22.071 -19.348   5.612  0.00  0.00    -0.166 F 
ENDBRANCH   3  14
BRANCH   4  18
ATOM     18  N   LIG    1       24.213 -20.891   4.493  0.00  0.00    +0.080 N 
ATOM     19  O   LIG    1       23.687 -21.572   3.601  0.00  0.00    -0.576 OA
ATOM     20  O   LIG    1       24.436 -21.253   5.652  0.00  0.00    +0.042 OA
ENDBRANCH   4  18
TORSDOF 4
ENDMDL
MODEL 3
REMARK VINA RESULT:      -4.9      2.712      6.121
REMARK  Name = *****
REMARK                            x       y       z     vdW  Elec       q    Type
REMARK                         _______ _______ _______ _____ _____    ______ ____
ROOT
ATOM      1  C   LIG    1       25.377 -16.885   3.513  0.00  0.00    +0.034 A 
ATOM      2  C   LIG    1       24.085 -17.221   3.952  0.00  0.00    +0.042 A 
ATOM      3  C   LIG    1       23.713 -18.564   4.197  0.00  0.00    +0.133 A 
ATOM      4  C   LIG    1       24.683 -19.552   3.987  0.00  0.00    +0.285 A 
ATOM      5  C   LIG    1       25.971 -19.236   3.546  0.00  0.00    +0.086 A 
ATOM      6  C   LIG    1       26.304 -17.905   3.306  0.00  0.00    +0.030 A 
ENDROOT
BRANCH   1   8
ATOM      7  C   LIG    1       24.910 -14.442   3.732  0.00  0.00    +0.220 C 
ATOM      8  N   LIG    1       25.670 -15.519   3.300  0.00  0.00    -0.285 N 
ATOM      9  H   LIG    1       26.516 -15.313   2.787  0.00  0.00    +0.155 HD
ATOM     10  O   LIG    1       23.850 -14.519   4.343  0.00  0.00    -0.275 OA
BRANCH   7  12
ATOM     11  C   LIG    1       26.959 -13.250   2.923  0.00  0.00    +0.017 C 
ATOM     12  C   LIG    1       25.497 -13.081   3.355  0.00  0.00    +0.069 C 
ATOM     13  C   LIG    1       24.689 -12.425   2.238  0.00  0.00    +0.017 C 
ENDBRANCH   7  12
ENDBRANCH   1   8
BRANCH   3  14
ATOM     14  C   LIG    1       22.304 -18.849   4.644  0.00  0.00    +0.424 C 
ATOM     15  F   LIG    1       21.557 -17.716   4.717  0.00  0.00    -0.166 F 
ATOM     16  F   LIG    1       22.277 -19.385   5.897  0.00  0.00    -0.166 F 
ATOM     17  F   LIG    1       21.612 -19.722   3.872  0.00  0.00    -0.166 F 
ENDBRANCH   3  14
BRANCH   4  18
ATOM     18  N   LIG    1       24.410 -20.959   4.197  0.00  0.00    +0.080 N 
ATOM     19  O   LIG    1       23.897 -21.571   3.249  0.00  0.00    -0.576 OA
ATOM     20  O   LIG    1       24.745 -21.442   5.282  0.00  0.00    +0.042 OA
ENDBRANCH   4  18
TORSDOF 4
ENDMDL
MODEL 4
REMARK VINA RESULT:      -4.8      2.487      3.186
REMARK  Name = *****
REMARK                            x       y       z     vdW  Elec       q    Type
REMARK                         _______ _______ _______ _____ _____    ______ ____
ROOT
ATOM      1  C   LIG    1       24.325 -16.508   3.917  0.00  0.00    +0.034 A 
ATOM      2  C   LIG    1       25.454 -15.758   3.548  0.00  0.00    +0.042 A 
ATOM      3  C   LIG    1       25.449 -14.343   3.591  0.00  0.00    +0.133 A 
ATOM      4  C   LIG    1       24.273 -13.714   4.018  0.00  0.00    +0.285 A 
ATOM      5  C   LIG    1       23.139 -14.444   4.384  0.00  0.00    +0.086 A 
ATOM      6  C   LIG    1       23.174 -15.835   4.324  0.00  0.00    +0.030 A 
ENDROOT
BRANCH   1   8
ATOM      7  C   LIG    1       23.376 -18.813   4.044  0.00  0.00    +0.220 C 
ATOM      8  N   LIG    1       24.416 -17.917   3.854  0.00  0.00    -0.285 N 
ATOM      9  H   LIG    1       25.328 -18.302   3.648  0.00  0.00    +0.155 HD
ATOM     10  O   LIG    1       22.220 -18.513   4.322  0.00  0.00    -0.275 OA
BRANCH   7  12
ATOM     11  C   LIG    1       25.305 -20.411   4.095  0.00  0.00    +0.017 C 
ATOM     12  C   LIG    1       23.790 -20.279   3.899  0.00  0.00    +0.069 C 
ATOM     13  C   LIG    1       23.048 -21.160   4.903  0.00  0.00    +0.017 C 
ENDBRANCH   7  12
ENDBRANCH   1   8
BRANCH   3  14
ATOM     14  C   LIG    1       26.688 -13.607   3.158  0.00  0.00    +0.424 C 
ATOM     15  F   LIG    1       26.428 -12.716   2.165  0.00  0.00    -0.166 F 
ATOM     16  F   LIG    1       27.623 -14.459   2.648  0.00  0.00    -0.166 F 
ATOM     17  F   LIG    1       27.331 -12.923   4.135  0.00  0.00    -0.166 F 
ENDBRANCH   3  14
BRANCH   4  18
ATOM     18  N   LIG    1       24.152 -12.272   4.092  0.00  0.00    +0.080 N 
ATOM     19  O   LIG    1       23.790 -11.693   3.057  0.00  0.00    -0.576 OA
ATOM     20  O   LIG    1       24.378 -11.744   5.184  0.00  0.00    +0.042 OA
ENDBRANCH   4  18
TORSDOF 4
ENDMDL
MODEL 5
REMARK VINA RESULT:      -4.4      1.116      1.613
REMARK  Name = *****
REMARK                            x       y       z     vdW  Elec       q    Type
REMARK                         _______ _______ _______ _____ _____    ______ ____
ROOT
ATOM      1  C   LIG    1       25.032 -16.930   3.688  0.00  0.00    +0.034 A 
ATOM      2  C   LIG    1       24.397 -15.709   3.973  0.00  0.00    +0.042 A 
ATOM      3  C   LIG    1       25.094 -14.480   3.908  0.00  0.00    +0.133 A 
ATOM      4  C   LIG    1       26.446 -14.521   3.544  0.00  0.00    +0.285 A 
ATOM      5  C   LIG    1       27.094 -15.726   3.262  0.00  0.00    +0.086 A 
ATOM      6  C   LIG    1       26.383 -16.921   3.343  0.00  0.00    +0.030 A 
ENDROOT
BRANCH   1   8
ATOM      7  C   LIG    1       24.723 -19.365   4.143  0.00  0.00    +0.220 C 
ATOM      8  N   LIG    1       24.262 -18.112   3.768  0.00  0.00    -0.285 N 
ATOM      9  H   LIG    1       23.283 -18.030   3.532  0.00  0.00    +0.155 HD
ATOM     10  O   LIG    1       25.881 -19.638   4.436  0.00  0.00    -0.275 OA
BRANCH   7  12
ATOM     11  C   LIG    1       24.034 -21.571   5.109  0.00  0.00    +0.017 C 
ATOM     12  C   LIG    1       23.641 -20.446   4.143  0.00  0.00    +0.069 C 
ATOM     13  C   LIG    1       22.284 -19.865   4.533  0.00  0.00    +0.017 C 
ENDBRANCH   7  12
ENDBRANCH   1   8
BRANCH   3  14
ATOM     14  C   LIG    1       24.353 -13.215   4.250  0.00  0.00    +0.424 C 
ATOM     15  F   LIG    1       25.051 -12.438   5.121  0.00  0.00    -0.166 F 
ATOM     16  F   LIG    1       23.168 -13.482   4.870  0.00  0.00    -0.166 F 
ATOM     17  F   LIG    1       24.030 -12.425   3.198  0.00  0.00    -0.166 F 
ENDBRANCH   3  14
BRANCH   4  18
ATOM     18  N   LIG    1       27.258 -13.326   3.455  0.00  0.00    +0.080 N 
ATOM     19  O   LIG    1       27.036 -12.575   2.493  0.00  0.00    -0.576 OA
ATOM     20  O   LIG    1       28.074 -13.130   4.360  0.00  0.00    +0.042 OA
ENDBRANCH   4  18
TORSDOF 4
ENDMDL
MODEL 6
REMARK VINA RESULT:      -4.3      1.294      1.431
REMARK  Name = *****
REMARK                            x       y       z     vdW  Elec       q    Type
REMARK                         _______ _______ _______ _____ _____    ______ ____
ROOT
ATOM      1  C   LIG    1       25.784 -17.364   3.676  0.00  0.00    +0.034 A 
ATOM      2  C   LIG    1       24.862 -16.305   3.687  0.00  0.00    +0.042 A 
ATOM      3  C   LIG    1       25.285 -14.955   3.703  0.00  0.00    +0.133 A 
ATOM      4  C   LIG    1       26.664 -14.710   3.703  0.00  0.00    +0.285 A 
ATOM      5  C   LIG    1       27.596 -15.751   3.697  0.00  0.00    +0.086 A 
ATOM      6  C   LIG    1       27.147 -17.070   3.690  0.00  0.00    +0.030 A 
ENDROOT
BRANCH   1   8
ATOM      7  C   LIG    1       25.728 -19.746   4.421  0.00  0.00    +0.220 C 
ATOM      8  N   LIG    1       25.278 -18.683   3.653  0.00  0.00    -0.285 N 
ATOM      9  H   LIG    1       24.513 -18.862   3.017  0.00  0.00    +0.155 HD
ATOM     10  O   LIG    1       26.657 -19.703   5.220  0.00  0.00    -0.275 OA
BRANCH   7  12
ATOM     11  C   LIG    1       24.394 -21.572   5.500  0.00  0.00    +0.017 C 
ATOM     12  C   LIG    1       24.968 -21.051   4.176  0.00  0.00    +0.069 C 
ATOM     13  C   LIG    1       23.848 -20.850   3.158  0.00  0.00    +0.017 C 
ENDBRANCH   7  12
ENDBRANCH   1   8
BRANCH   3  14
ATOM     14  C   LIG    1       24.239 -13.873   3.737  0.00  0.00    +0.424 C 
ATOM     15  F   LIG    1       22.997 -14.378   3.965  0.00  0.00    -0.166 F 
ATOM     16  F   LIG    1       24.154 -13.223   2.542  0.00  0.00    -0.166 F 
ATOM     17  F   LIG    1       24.437 -12.898   4.657  0.00  0.00    -0.166 F 
ENDBRANCH   3  14
BRANCH   4  18
ATOM     18  N   LIG    1       27.211 -13.369   3.727  0.00  0.00    +0.080 N 
ATOM     19  O   LIG    1       27.656 -12.971   4.814  0.00  0.00    -0.576 OA
ATOM     20  O   LIG    1       27.225 -12.747   2.661  0.00  0.00    +0.042 OA
ENDBRANCH   4  18
TORSDOF 4
ENDMDL
MODEL 7
REMARK VINA RESULT:      -4.2      3.575      6.697
REMARK  Name = *****
REMARK                            x       y       z     vdW  Elec       q    Type
REMARK                         _______ _______ _______ _____ _____    ______ ____
ROOT
ATOM      1  C   LIG    1       24.055 -16.903   3.842  0.00  0.00    +0.034 A 
ATOM      2  C   LIG    1       24.753 -18.119   3.755  0.00  0.00    +0.042 A 
ATOM      3  C   LIG    1       24.168 -19.339   4.170  0.00  0.00    +0.133 A 
ATOM      4  C   LIG    1       22.861 -19.292   4.669  0.00  0.00    +0.285 A 
ATOM      5  C   LIG    1       22.154 -18.091   4.768  0.00  0.00    +0.086 A 
ATOM      6  C   LIG    1       22.760 -16.906   4.359  0.00  0.00    +0.030 A 
ENDROOT
BRANCH   1   8
ATOM      7  C   LIG    1       24.499 -14.446   3.879  0.00  0.00    +0.220 C 
ATOM      8  N   LIG    1       24.709 -15.731   3.400  0.00  0.00    -0.285 N 
ATOM      9  H   LIG    1       25.395 -15.846   2.667  0.00  0.00    +0.155 HD
ATOM     10  O   LIG    1       23.691 -14.134   4.745  0.00  0.00    -0.275 OA
BRANCH   7  12
ATOM     11  C   LIG    1       26.650 -14.036   2.661  0.00  0.00    +0.017 C 
ATOM     12  C   LIG    1       25.371 -13.386   3.204  0.00  0.00    +0.069 C 
ATOM     13  C   LIG    1       24.612 -12.688   2.077  0.00  0.00    +0.017 C 
ENDBRANCH   7  12
ENDBRANCH   1   8
BRANCH   3  14
ATOM     14  C   LIG    1       24.985 -20.599   4.068  0.00  0.00    +0.424 C 
ATOM     15  F   LIG    1       26.142 -20.398   3.382  0.00  0.00    -0.166 F 
ATOM     16  F   LIG    1       24.320 -21.571   3.381  0.00  0.00    -0.166 F 
ATOM     17  F   LIG    1       25.327 -21.170   5.248  0.00  0.00    -0.166 F 
ENDBRANCH   3  14
BRANCH   4  18
ATOM     18  N   LIG    1       22.167 -20.477   5.130  0.00  0.00    +0.080 N 
ATOM     19  O   LIG    1       22.534 -20.946   6.218  0.00  0.00    -0.576 OA
ATOM     20  O   LIG    1       21.245 -20.899   4.427  0.00  0.00    +0.042 OA
ENDBRANCH   4  18
TORSDOF 4
ENDMDL
MODEL 8
REMARK VINA RESULT:      -4.2      3.028      6.121
REMARK  Name = *****
REMARK                            x       y       z     vdW  Elec       q    Type
REMARK                         _______ _______ _______ _____ _____    ______ ____
ROOT
ATOM      1  C   LIG    1       24.880 -16.675   3.549  0.00  0.00    +0.034 A 
ATOM      2  C   LIG    1       23.709 -17.286   4.029  0.00  0.00    +0.042 A 
ATOM      3  C   LIG    1       23.649 -18.678   4.276  0.00  0.00    +0.133 A 
ATOM      4  C   LIG    1       24.804 -19.430   4.026  0.00  0.00    +0.285 A 
ATOM      5  C   LIG    1       25.975 -18.840   3.543  0.00  0.00    +0.086 A 
ATOM      6  C   LIG    1       26.000 -17.468   3.303  0.00  0.00    +0.030 A 
ENDROOT
BRANCH   1   8
ATOM      7  C   LIG    1       24.036 -14.366   3.979  0.00  0.00    +0.220 C 
ATOM      8  N   LIG    1       24.859 -15.278   3.337  0.00  0.00    -0.285 N 
ATOM      9  H   LIG    1       25.509 -14.916   2.654  0.00  0.00    +0.155 HD
ATOM     10  O   LIG    1       23.181 -14.642   4.813  0.00  0.00    -0.275 OA
BRANCH   7  12
ATOM     11  C   LIG    1       24.103 -11.981   4.744  0.00  0.00    +0.017 C 
ATOM     12  C   LIG    1       24.259 -12.917   3.540  0.00  0.00    +0.069 C 
ATOM     13  C   LIG    1       25.639 -12.742   2.909  0.00  0.00    +0.017 C 
ENDBRANCH   7  12
ENDBRANCH   1   8
BRANCH   3  14
ATOM     14  C   LIG    1       22.353 -19.265   4.768  0.00  0.00    +0.424 C 
ATOM     15  F   LIG    1       21.285 -18.498   4.421  0.00  0.00    -0.166 F 
ATOM     16  F   LIG    1       22.323 -19.336   6.130  0.00  0.00    -0.166 F 
ATOM     17  F   LIG    1       22.083 -20.523   4.343  0.00  0.00    -0.166 F 
ENDBRANCH   3  14
BRANCH   4  18
ATOM     18  N   LIG    1       24.853 -20.863   4.234  0.00  0.00    +0.080 N 
ATOM     19  O   LIG    1       24.421 -21.571   3.313  0.00  0.00    -0.576 OA
ATOM     20  O   LIG    1       25.355 -21.262   5.289  0.00  0.00    +0.042 OA
ENDBRANCH   4  18
TORSDOF 4
ENDMDL
MODEL 9
REMARK VINA RESULT:      -4.2      3.493      6.626
REMARK  Name = *****
REMARK                            x       y       z     vdW  Elec       q    Type
REMARK                         _______ _______ _______ _____ _____    ______ ____
ROOT
ATOM      1  C   LIG    1       23.687 -16.865   4.073  0.00  0.00    +0.034 A 
ATOM      2  C   LIG    1       24.405 -18.020   3.721  0.00  0.00    +0.042 A 
ATOM      3  C   LIG    1       23.915 -19.314   4.015  0.00  0.00    +0.133 A 
ATOM      4  C   LIG    1       22.681 -19.405   4.670  0.00  0.00    +0.285 A 
ATOM      5  C   LIG    1       21.956 -18.266   5.032  0.00  0.00    +0.086 A 
ATOM      6  C   LIG    1       22.469 -17.006   4.736  0.00  0.00    +0.030 A 
ENDROOT
BRANCH   1   8
ATOM      7  C   LIG    1       25.553 -15.374   3.346  0.00  0.00    +0.220 C 
ATOM      8  N   LIG    1       24.243 -15.610   3.736  0.00  0.00    -0.285 N 
ATOM      9  H   LIG    1       23.623 -14.814   3.782  0.00  0.00    +0.155 HD
ATOM     10  O   LIG    1       26.434 -16.222   3.261  0.00  0.00    -0.275 OA
BRANCH   7  12
ATOM     11  C   LIG    1       24.915 -13.004   3.853  0.00  0.00    +0.017 C 
ATOM     12  C   LIG    1       25.849 -13.905   3.035  0.00  0.00    +0.069 C 
ATOM     13  C   LIG    1       27.307 -13.565   3.333  0.00  0.00    +0.017 C 
ENDBRANCH   7  12
ENDBRANCH   1   8
BRANCH   3  14
ATOM     14  C   LIG    1       24.752 -20.504   3.627  0.00  0.00    +0.424 C 
ATOM     15  F   LIG    1       25.405 -21.033   4.695  0.00  0.00    -0.166 F 
ATOM     16  F   LIG    1       25.726 -20.161   2.737  0.00  0.00    -0.166 F 
ATOM     17  F   LIG    1       24.079 -21.523   3.039  0.00  0.00    -0.166 F 
ENDBRANCH   3  14
BRANCH   4  18
ATOM     18  N   LIG    1       22.088 -20.677   5.028  0.00  0.00    +0.080 N 
ATOM     19  O   LIG    1       22.601 -21.278   5.983  0.00  0.00    -0.576 OA
ATOM     20  O   LIG    1       21.100 -21.039   4.383  0.00  0.00    +0.042 OA
ENDBRANCH   4  18
TORSDOF 4
ENDMDL
