MODEL 1
REMARK VINA RESULT:      -8.5      0.000      0.000
REMARK  Name = *****
REMARK                            x       y       z     vdW  Elec       q    Type
REMARK                         _______ _______ _______ _____ _____    ______ ____
ROOT
ATOM      1  C   LIG    1       28.368 -20.593   6.890  0.00  0.00    +0.009 C 
ENDROOT
BRANCH   1   2
ATOM      2  C   LIG    1       28.242 -19.573   5.747  0.00  0.00    +0.000 C 
BRANCH   2   3
ATOM      3  C   LIG    1       29.412 -18.580   5.707  0.00  0.00    +0.000 C 
BRANCH   3   4
ATOM      4  C   LIG    1       30.646 -19.045   6.485  0.00  0.00    +0.009 C 
BRANCH   4   5
ATOM      5  C   LIG    1       30.767 -18.412   7.877  0.00  0.00    +0.098 C 
BRANCH   5   7
ATOM      6  O   LIG    1       32.003 -18.789   9.932  0.00  0.00    -0.274 OA
ATOM      7  C   LIG    1       31.469 -19.261   8.926  0.00  0.00    +0.235 C 
ATOM      8  N   LIG    1       31.543 -20.598   8.627  0.00  0.00    -0.198 N 
ATOM      9  H   LIG    1       31.090 -21.055   7.845  0.00  0.00    +0.182 HD
BRANCH   8  10
ATOM     10  O   LIG    1       32.278 -21.422   9.507  0.00  0.00    -0.295 OA
ATOM     11  H   LIG    1       31.787 -22.271   9.463  0.00  0.00    +0.241 HD
ENDBRANCH   8  10
ENDBRANCH   5   7
ENDBRANCH   4   5
ENDBRANCH   3   4
ENDBRANCH   2   3
ENDBRANCH   1   2
BRANCH   1  12
ATOM     12  C   LIG    1       27.349 -20.367   8.008  0.00  0.00    +0.096 C 
BRANCH  12  13
ATOM     13  C   LIG    1       26.336 -21.484   8.126  0.00  0.00    +0.217 C 
ATOM     14  N   LIG    1       26.242 -22.240   6.967  0.00  0.00    -0.285 N 
ATOM     15  H   LIG    1       26.682 -21.864   6.140  0.00  0.00    +0.155 HD
ATOM     16  O   LIG    1       25.707 -21.677   9.174  0.00  0.00    -0.276 OA
BRANCH  14  17
ATOM     17  C   LIG    1       25.488 -23.414   6.793  0.00  0.00    +0.033 A 
ATOM     18  C   LIG    1       24.098 -23.287   6.717  0.00  0.00    +0.023 A 
ATOM     19  C   LIG    1       23.293 -24.413   6.520  0.00  0.00    +0.002 A 
ATOM     20  C   LIG    1       23.877 -25.668   6.367  0.00  0.00    +0.000 A 
ATOM     21  C   LIG    1       25.262 -25.800   6.432  0.00  0.00    +0.002 A 
ATOM     22  C   LIG    1       26.066 -24.679   6.656  0.00  0.00    +0.023 A 
ENDBRANCH  14  17
ENDBRANCH  12  13
ENDBRANCH   1  12
TORSDOF 9
ENDMDL
MODEL 2
REMARK VINA RESULT:      -8.4      2.763      3.788
REMARK  Name = *****
REMARK                            x       y       z     vdW  Elec       q    Type
REMARK                         _______ _______ _______ _____ _____    ______ ____
ROOT
ATOM      1  C   LIG    1       26.439 -22.182   8.315  0.00  0.00    +0.009 C 
ENDROOT
BRANCH   1   2
ATOM      2  C   LIG    1       27.864 -21.722   7.967  0.00  0.00    +0.000 C 
BRANCH   2   3
ATOM      3  C   LIG    1       27.929 -20.240   7.570  0.00  0.00    +0.000 C 
BRANCH   3   4
ATOM      4  C   LIG    1       29.149 -19.881   6.716  0.00  0.00    +0.009 C 
BRANCH   4   5
ATOM      5  C   LIG    1       30.201 -19.054   7.468  0.00  0.00    +0.098 C 
BRANCH   5   7
ATOM      6  O   LIG    1       30.830 -19.276   9.801  0.00  0.00    -0.274 OA
ATOM      7  C   LIG    1       30.846 -19.743   8.661  0.00  0.00    +0.235 C 
ATOM      8  N   LIG    1       31.530 -20.893   8.360  0.00  0.00    -0.198 N 
ATOM      9  H   LIG    1       31.545 -21.353   7.457  0.00  0.00    +0.182 HD
BRANCH   8  10
ATOM     10  O   LIG    1       32.243 -21.519   9.405  0.00  0.00    -0.295 OA
ATOM     11  H   LIG    1       31.527 -21.784  10.023  0.00  0.00    +0.241 HD
ENDBRANCH   8  10
ENDBRANCH   5   7
ENDBRANCH   4   5
ENDBRANCH   3   4
ENDBRANCH   2   3
ENDBRANCH   1   2
BRANCH   1  12
ATOM     12  C   LIG    1       25.895 -23.229   7.342  0.00  0.00    +0.096 C 
BRANCH  12  13
ATOM     13  C   LIG    1       25.138 -22.625   6.180  0.00  0.00    +0.217 C 
ATOM     14  N   LIG    1       24.812 -21.294   6.392  0.00  0.00    -0.285 N 
ATOM     15  H   LIG    1       24.923 -20.941   7.331  0.00  0.00    +0.155 HD
ATOM     16  O   LIG    1       24.887 -23.283   5.162  0.00  0.00    -0.276 OA
BRANCH  14  17
ATOM     17  C   LIG    1       24.220 -20.420   5.464  0.00  0.00    +0.033 A 
ATOM     18  C   LIG    1       22.889 -20.047   5.680  0.00  0.00    +0.023 A 
ATOM     19  C   LIG    1       22.251 -19.162   4.808  0.00  0.00    +0.002 A 
ATOM     20  C   LIG    1       22.949 -18.620   3.731  0.00  0.00    +0.000 A 
ATOM     21  C   LIG    1       24.277 -18.979   3.516  0.00  0.00    +0.002 A 
ATOM     22  C   LIG    1       24.908 -19.885   4.372  0.00  0.00    +0.023 A 
ENDBRANCH  14  17
ENDBRANCH  12  13
ENDBRANCH   1  12
TORSDOF 9
ENDMDL
MODEL 3
REMARK VINA RESULT:      -8.1      2.423      3.292
REMARK  Name = *****
REMARK                            x       y       z     vdW  Elec       q    Type
REMARK                         _______ _______ _______ _____ _____    ______ ____
ROOT
ATOM      1  C   LIG    1       29.322 -19.618   7.591  0.00  0.00    +0.009 C 
ENDROOT
BRANCH   1   2
ATOM      2  C   LIG    1       30.813 -19.303   7.395  0.00  0.00    +0.000 C 
BRANCH   2   3
ATOM      3  C   LIG    1       31.522 -18.946   8.709  0.00  0.00    +0.000 C 
BRANCH   3   4
ATOM      4  C   LIG    1       31.709 -17.441   8.923  0.00  0.00    +0.009 C 
BRANCH   4   5
ATOM      5  C   LIG    1       32.401 -17.092  10.247  0.00  0.00    +0.098 C 
BRANCH   5   7
ATOM      6  O   LIG    1       30.289 -16.375  11.205  0.00  0.00    -0.274 OA
ATOM      7  C   LIG    1       31.516 -16.439  11.298  0.00  0.00    +0.235 C 
ATOM      8  N   LIG    1       32.195 -15.843  12.331  0.00  0.00    -0.198 N 
ATOM      9  H   LIG    1       33.194 -15.897  12.491  0.00  0.00    +0.182 HD
BRANCH   8  10
ATOM     10  O   LIG    1       31.436 -15.125  13.281  0.00  0.00    -0.295 OA
ATOM     11  H   LIG    1       31.183 -14.317  12.785  0.00  0.00    +0.241 HD
ENDBRANCH   8  10
ENDBRANCH   5   7
ENDBRANCH   4   5
ENDBRANCH   3   4
ENDBRANCH   2   3
ENDBRANCH   1   2
BRANCH   1  12
ATOM     12  C   LIG    1       28.967 -21.066   7.250  0.00  0.00    +0.096 C 
BRANCH  12  13
ATOM     13  C   LIG    1       27.555 -21.442   7.641  0.00  0.00    +0.217 C 
ATOM     14  N   LIG    1       26.820 -21.931   6.572  0.00  0.00    -0.285 N 
ATOM     15  H   LIG    1       27.212 -21.801   5.650  0.00  0.00    +0.155 HD
ATOM     16  O   LIG    1       27.157 -21.331   8.807  0.00  0.00    -0.276 OA
BRANCH  14  17
ATOM     17  C   LIG    1       25.524 -22.475   6.626  0.00  0.00    +0.033 A 
ATOM     18  C   LIG    1       25.392 -23.855   6.442  0.00  0.00    +0.023 A 
ATOM     19  C   LIG    1       24.134 -24.461   6.509  0.00  0.00    +0.002 A 
ATOM     20  C   LIG    1       23.006 -23.694   6.791  0.00  0.00    +0.000 A 
ATOM     21  C   LIG    1       23.132 -22.321   6.985  0.00  0.00    +0.002 A 
ATOM     22  C   LIG    1       24.386 -21.710   6.892  0.00  0.00    +0.023 A 
ENDBRANCH  14  17
ENDBRANCH  12  13
ENDBRANCH   1  12
TORSDOF 9
ENDMDL
MODEL 4
REMARK VINA RESULT:      -8.0      3.383      8.012
REMARK  Name = *****
REMARK                            x       y       z     vdW  Elec       q    Type
REMARK                         _______ _______ _______ _____ _____    ______ ____
ROOT
ATOM      1  C   LIG    1       25.333 -23.258   7.109  0.00  0.00    +0.009 C 
ENDROOT
BRANCH   1   2
ATOM      2  C   LIG    1       24.027 -23.847   6.552  0.00  0.00    +0.000 C 
BRANCH   2   3
ATOM      3  C   LIG    1       24.149 -25.338   6.204  0.00  0.00    +0.000 C 
BRANCH   3   4
ATOM      4  C   LIG    1       25.594 -25.820   6.047  0.00  0.00    +0.009 C 
BRANCH   4   5
ATOM      5  C   LIG    1       25.711 -27.195   5.374  0.00  0.00    +0.098 C 
BRANCH   5   7
ATOM      6  O   LIG    1       25.000 -28.754   7.093  0.00  0.00    -0.274 OA
ATOM      7  C   LIG    1       24.835 -28.290   5.963  0.00  0.00    +0.235 C 
ATOM      8  N   LIG    1       23.889 -28.792   5.107  0.00  0.00    -0.198 N 
ATOM      9  H   LIG    1       23.671 -28.427   4.187  0.00  0.00    +0.182 HD
BRANCH   8  10
ATOM     10  O   LIG    1       23.117 -29.884   5.557  0.00  0.00    -0.295 OA
ATOM     11  H   LIG    1       23.792 -30.468   5.966  0.00  0.00    +0.241 HD
ENDBRANCH   8  10
ENDBRANCH   5   7
ENDBRANCH   4   5
ENDBRANCH   3   4
ENDBRANCH   2   3
ENDBRANCH   1   2
BRANCH   1  12
ATOM     12  C   LIG    1       25.098 -22.146   8.133  0.00  0.00    +0.096 C 
BRANCH  12  13
ATOM     13  C   LIG    1       26.301 -21.250   8.324  0.00  0.00    +0.217 C 
ATOM     14  N   LIG    1       27.301 -21.497   7.396  0.00  0.00    -0.285 N 
ATOM     15  H   LIG    1       27.216 -22.341   6.848  0.00  0.00    +0.155 HD
ATOM     16  O   LIG    1       26.329 -20.386   9.211  0.00  0.00    -0.276 OA
BRANCH  14  17
ATOM     17  C   LIG    1       28.487 -20.760   7.227  0.00  0.00    +0.033 A 
ATOM     18  C   LIG    1       28.479 -19.724   6.288  0.00  0.00    +0.023 A 
ATOM     19  C   LIG    1       29.618 -18.939   6.090  0.00  0.00    +0.002 A 
ATOM     20  C   LIG    1       30.761 -19.166   6.853  0.00  0.00    +0.000 A 
ATOM     21  C   LIG    1       30.772 -20.190   7.797  0.00  0.00    +0.002 A 
ATOM     22  C   LIG    1       29.643 -20.993   7.976  0.00  0.00    +0.023 A 
ENDBRANCH  14  17
ENDBRANCH  12  13
ENDBRANCH   1  12
TORSDOF 9
ENDMDL
MODEL 5
REMARK VINA RESULT:      -8.0      3.191      4.022
REMARK  Name = *****
REMARK                            x       y       z     vdW  Elec       q    Type
REMARK                         _______ _______ _______ _____ _____    ______ ____
ROOT
ATOM      1  C   LIG    1       29.616 -20.582   7.926  0.00  0.00    +0.009 C 
ENDROOT
BRANCH   1   2
ATOM      2  C   LIG    1       30.199 -19.376   7.171  0.00  0.00    +0.000 C 
BRANCH   2   3
ATOM      3  C   LIG    1       30.411 -18.155   8.077  0.00  0.00    +0.000 C 
BRANCH   3   4
ATOM      4  C   LIG    1       31.436 -18.381   9.192  0.00  0.00    +0.009 C 
BRANCH   4   5
ATOM      5  C   LIG    1       31.987 -17.080   9.792  0.00  0.00    +0.098 C 
BRANCH   5   7
ATOM      6  O   LIG    1       30.050 -16.702  11.204  0.00  0.00    -0.274 OA
ATOM      7  C   LIG    1       31.263 -16.569  11.028  0.00  0.00    +0.235 C 
ATOM      8  N   LIG    1       32.049 -15.866  11.904  0.00  0.00    -0.198 N 
ATOM      9  H   LIG    1       33.054 -15.760  11.842  0.00  0.00    +0.182 HD
BRANCH   8  10
ATOM     10  O   LIG    1       31.414 -15.272  13.016  0.00  0.00    -0.295 OA
ATOM     11  H   LIG    1       30.838 -14.595  12.598  0.00  0.00    +0.241 HD
ENDBRANCH   8  10
ENDBRANCH   5   7
ENDBRANCH   4   5
ENDBRANCH   3   4
ENDBRANCH   2   3
ENDBRANCH   1   2
BRANCH   1  12
ATOM     12  C   LIG    1       28.600 -21.371   7.098  0.00  0.00    +0.096 C 
BRANCH  12  13
ATOM     13  C   LIG    1       27.250 -20.696   7.011  0.00  0.00    +0.217 C 
ATOM     14  N   LIG    1       26.661 -20.844   5.764  0.00  0.00    -0.285 N 
ATOM     15  H   LIG    1       27.250 -21.190   5.020  0.00  0.00    +0.155 HD
ATOM     16  O   LIG    1       26.756 -20.112   7.984  0.00  0.00    -0.276 OA
BRANCH  14  17
ATOM     17  C   LIG    1       25.365 -20.442   5.397  0.00  0.00    +0.033 A 
ATOM     18  C   LIG    1       24.324 -20.719   6.289  0.00  0.00    +0.023 A 
ATOM     19  C   LIG    1       23.016 -20.323   5.995  0.00  0.00    +0.002 A 
ATOM     20  C   LIG    1       22.747 -19.622   4.822  0.00  0.00    +0.000 A 
ATOM     21  C   LIG    1       23.781 -19.336   3.935  0.00  0.00    +0.002 A 
ATOM     22  C   LIG    1       25.085 -19.754   4.215  0.00  0.00    +0.023 A 
ENDBRANCH  14  17
ENDBRANCH  12  13
ENDBRANCH   1  12
TORSDOF 9
ENDMDL
MODEL 6
REMARK VINA RESULT:      -8.0      1.356      2.043
REMARK  Name = *****
REMARK                            x       y       z     vdW  Elec       q    Type
REMARK                         _______ _______ _______ _____ _____    ______ ____
ROOT
ATOM      1  C   LIG    1       28.634 -20.773   7.497  0.00  0.00    +0.009 C 
ENDROOT
BRANCH   1   2
ATOM      2  C   LIG    1       28.859 -19.814   6.316  0.00  0.00    +0.000 C 
BRANCH   2   3
ATOM      3  C   LIG    1       29.925 -18.749   6.612  0.00  0.00    +0.000 C 
BRANCH   3   4
ATOM      4  C   LIG    1       31.173 -19.298   7.309  0.00  0.00    +0.009 C 
BRANCH   4   5
ATOM      5  C   LIG    1       31.815 -18.305   8.286  0.00  0.00    +0.098 C 
BRANCH   5   7
ATOM      6  O   LIG    1       30.671 -19.088  10.278  0.00  0.00    -0.274 OA
ATOM      7  C   LIG    1       31.100 -18.139   9.619  0.00  0.00    +0.235 C 
ATOM      8  N   LIG    1       30.888 -16.839   9.999  0.00  0.00    -0.198 N 
ATOM      9  H   LIG    1       31.253 -16.018   9.530  0.00  0.00    +0.182 HD
BRANCH   8  10
ATOM     10  O   LIG    1       30.134 -16.618  11.172  0.00  0.00    -0.295 OA
ATOM     11  H   LIG    1       30.828 -16.558  11.864  0.00  0.00    +0.241 HD
ENDBRANCH   8  10
ENDBRANCH   5   7
ENDBRANCH   4   5
ENDBRANCH   3   4
ENDBRANCH   2   3
ENDBRANCH   1   2
BRANCH   1  12
ATOM     12  C   LIG    1       27.451 -20.370   8.378  0.00  0.00    +0.096 C 
BRANCH  12  13
ATOM     13  C   LIG    1       26.318 -21.371   8.348  0.00  0.00    +0.217 C 
ATOM     14  N   LIG    1       26.280 -22.096   7.166  0.00  0.00    -0.285 N 
ATOM     15  H   LIG    1       26.852 -21.758   6.405  0.00  0.00    +0.155 HD
ATOM     16  O   LIG    1       25.553 -21.509   9.311  0.00  0.00    -0.276 OA
BRANCH  14  17
ATOM     17  C   LIG    1       25.431 -23.178   6.875  0.00  0.00    +0.033 A 
ATOM     18  C   LIG    1       26.023 -24.424   6.647  0.00  0.00    +0.023 A 
ATOM     19  C   LIG    1       25.233 -25.545   6.377  0.00  0.00    +0.002 A 
ATOM     20  C   LIG    1       23.845 -25.431   6.364  0.00  0.00    +0.000 A 
ATOM     21  C   LIG    1       23.248 -24.195   6.599  0.00  0.00    +0.002 A 
ATOM     22  C   LIG    1       24.038 -23.068   6.843  0.00  0.00    +0.023 A 
ENDBRANCH  14  17
ENDBRANCH  12  13
ENDBRANCH   1  12
TORSDOF 9
ENDMDL
MODEL 7
REMARK VINA RESULT:      -8.0      1.512      2.188
REMARK  Name = *****
REMARK                            x       y       z     vdW  Elec       q    Type
REMARK                         _______ _______ _______ _____ _____    ______ ____
ROOT
ATOM      1  C   LIG    1       26.005 -21.190   8.524  0.00  0.00    +0.009 C 
ENDROOT
BRANCH   1   2
ATOM      2  C   LIG    1       27.129 -20.218   8.131  0.00  0.00    +0.000 C 
BRANCH   2   3
ATOM      3  C   LIG    1       27.813 -20.605   6.811  0.00  0.00    +0.000 C 
BRANCH   3   4
ATOM      4  C   LIG    1       29.258 -20.110   6.694  0.00  0.00    +0.009 C 
BRANCH   4   5
ATOM      5  C   LIG    1       29.817 -19.538   8.004  0.00  0.00    +0.098 C 
BRANCH   5   7
ATOM      6  O   LIG    1       31.963 -19.674   9.129  0.00  0.00    -0.274 OA
ATOM      7  C   LIG    1       31.033 -20.257   8.568  0.00  0.00    +0.235 C 
ATOM      8  N   LIG    1       31.064 -21.607   8.330  0.00  0.00    -0.198 N 
ATOM      9  H   LIG    1       30.316 -22.152   7.917  0.00  0.00    +0.182 HD
BRANCH   8  10
ATOM     10  O   LIG    1       32.218 -22.313   8.732  0.00  0.00    -0.295 OA
ATOM     11  H   LIG    1       32.394 -21.944   9.625  0.00  0.00    +0.241 HD
ENDBRANCH   8  10
ENDBRANCH   5   7
ENDBRANCH   4   5
ENDBRANCH   3   4
ENDBRANCH   2   3
ENDBRANCH   1   2
BRANCH   1  12
ATOM     12  C   LIG    1       24.829 -21.172   7.545  0.00  0.00    +0.096 C 
BRANCH  12  13
ATOM     13  C   LIG    1       24.434 -22.550   7.063  0.00  0.00    +0.217 C 
ATOM     14  N   LIG    1       25.526 -23.305   6.661  0.00  0.00    -0.285 N 
ATOM     15  H   LIG    1       26.401 -22.815   6.542  0.00  0.00    +0.155 HD
ATOM     16  O   LIG    1       23.255 -22.924   7.073  0.00  0.00    -0.276 OA
BRANCH  14  17
ATOM     17  C   LIG    1       25.512 -24.657   6.277  0.00  0.00    +0.033 A 
ATOM     18  C   LIG    1       25.169 -24.953   4.954  0.00  0.00    +0.023 A 
ATOM     19  C   LIG    1       25.160 -26.275   4.503  0.00  0.00    +0.002 A 
ATOM     20  C   LIG    1       25.525 -27.307   5.365  0.00  0.00    +0.000 A 
ATOM     21  C   LIG    1       25.877 -27.019   6.681  0.00  0.00    +0.002 A 
ATOM     22  C   LIG    1       25.860 -25.699   7.140  0.00  0.00    +0.023 A 
ENDBRANCH  14  17
ENDBRANCH  12  13
ENDBRANCH   1  12
TORSDOF 9
ENDMDL
MODEL 8
REMARK VINA RESULT:      -7.9      2.969      6.612
REMARK  Name = *****
REMARK                            x       y       z     vdW  Elec       q    Type
REMARK                         _______ _______ _______ _____ _____    ______ ____
ROOT
ATOM      1  C   LIG    1       24.060 -22.015   7.616  0.00  0.00    +0.009 C 
ENDROOT
BRANCH   1   2
ATOM      2  C   LIG    1       23.476 -20.707   7.058  0.00  0.00    +0.000 C 
BRANCH   2   3
ATOM      3  C   LIG    1       22.758 -20.902   5.715  0.00  0.00    +0.000 C 
BRANCH   3   4
ATOM      4  C   LIG    1       22.868 -19.700   4.773  0.00  0.00    +0.009 C 
BRANCH   4   5
ATOM      5  C   LIG    1       23.874 -19.906   3.633  0.00  0.00    +0.098 C 
BRANCH   5   7
ATOM      6  O   LIG    1       25.681 -18.295   3.460  0.00  0.00    -0.274 OA
ATOM      7  C   LIG    1       25.277 -19.377   3.891  0.00  0.00    +0.235 C 
ATOM      8  N   LIG    1       26.099 -20.236   4.574  0.00  0.00    -0.198 N 
ATOM      9  H   LIG    1       25.818 -21.115   4.993  0.00  0.00    +0.182 HD
BRANCH   8  10
ATOM     10  O   LIG    1       27.445 -19.849   4.750  0.00  0.00    -0.295 OA
ATOM     11  H   LIG    1       27.586 -19.996   5.710  0.00  0.00    +0.241 HD
ENDBRANCH   8  10
ENDBRANCH   5   7
ENDBRANCH   4   5
ENDBRANCH   3   4
ENDBRANCH   2   3
ENDBRANCH   1   2
BRANCH   1  12
ATOM     12  C   LIG    1       25.493 -22.277   7.150  0.00  0.00    +0.096 C 
BRANCH  12  13
ATOM     13  C   LIG    1       26.533 -21.600   8.015  0.00  0.00    +0.217 C 
ATOM     14  N   LIG    1       27.752 -21.462   7.369  0.00  0.00    -0.285 N 
ATOM     15  H   LIG    1       27.877 -21.982   6.512  0.00  0.00    +0.155 HD
ATOM     16  O   LIG    1       26.266 -21.207   9.157  0.00  0.00    -0.276 OA
BRANCH  14  17
ATOM     17  C   LIG    1       28.880 -20.773   7.849  0.00  0.00    +0.033 A 
ATOM     18  C   LIG    1       29.962 -21.536   8.299  0.00  0.00    +0.023 A 
ATOM     19  C   LIG    1       31.123 -20.912   8.766  0.00  0.00    +0.002 A 
ATOM     20  C   LIG    1       31.219 -19.523   8.756  0.00  0.00    +0.000 A 
ATOM     21  C   LIG    1       30.148 -18.758   8.300  0.00  0.00    +0.002 A 
ATOM     22  C   LIG    1       28.978 -19.380   7.858  0.00  0.00    +0.023 A 
ENDBRANCH  14  17
ENDBRANCH  12  13
ENDBRANCH   1  12
TORSDOF 9
ENDMDL
MODEL 9
REMARK VINA RESULT:      -7.8      2.546      8.277
REMARK  Name = *****
REMARK                            x       y       z     vdW  Elec       q    Type
REMARK                         _______ _______ _______ _____ _____    ______ ____
ROOT
ATOM      1  C   LIG    1       27.975 -21.306   7.631  0.00  0.00    +0.009 C 
ENDROOT
BRANCH   1   2
ATOM      2  C   LIG    1       26.787 -20.330   7.655  0.00  0.00    +0.000 C 
BRANCH   2   3
ATOM      3  C   LIG    1       25.499 -20.975   8.186  0.00  0.00    +0.000 C 
BRANCH   3   4
ATOM      4  C   LIG    1       24.343 -20.966   7.181  0.00  0.00    +0.009 C 
BRANCH   4   5
ATOM      5  C   LIG    1       23.340 -22.108   7.392  0.00  0.00    +0.098 C 
BRANCH   5   7
ATOM      6  O   LIG    1       23.044 -24.433   6.761  0.00  0.00    -0.274 OA
ATOM      7  C   LIG    1       23.551 -23.336   6.519  0.00  0.00    +0.235 C 
ATOM      8  N   LIG    1       24.426 -23.157   5.477  0.00  0.00    -0.198 N 
ATOM      9  H   LIG    1       24.839 -22.276   5.197  0.00  0.00    +0.182 HD
BRANCH   8  10
ATOM     10  O   LIG    1       24.748 -24.288   4.696  0.00  0.00    -0.295 OA
ATOM     11  H   LIG    1       25.434 -24.734   5.238  0.00  0.00    +0.241 HD
ENDBRANCH   8  10
ENDBRANCH   5   7
ENDBRANCH   4   5
ENDBRANCH   3   4
ENDBRANCH   2   3
ENDBRANCH   1   2
BRANCH   1  12
ATOM     12  C   LIG    1       29.235 -20.700   7.012  0.00  0.00    +0.096 C 
BRANCH  12  13
ATOM     13  C   LIG    1       30.192 -20.138   8.040  0.00  0.00    +0.217 C 
ATOM     14  N   LIG    1       30.065 -18.765   8.188  0.00  0.00    -0.285 N 
ATOM     15  H   LIG    1       29.525 -18.278   7.487  0.00  0.00    +0.155 HD
ATOM     16  O   LIG    1       30.963 -20.870   8.673  0.00  0.00    -0.276 OA
BRANCH  14  17
ATOM     17  C   LIG    1       30.719 -17.962   9.140  0.00  0.00    +0.033 A 
ATOM     18  C   LIG    1       31.953 -17.410   8.785  0.00  0.00    +0.023 A 
ATOM     19  C   LIG    1       32.642 -16.583   9.677  0.00  0.00    +0.002 A 
ATOM     20  C   LIG    1       32.085 -16.280  10.916  0.00  0.00    +0.000 A 
ATOM     21  C   LIG    1       30.851 -16.819  11.272  0.00  0.00    +0.002 A 
ATOM     22  C   LIG    1       30.174 -17.667  10.392  0.00  0.00    +0.023 A 
ENDBRANCH  14  17
ENDBRANCH  12  13
ENDBRANCH   1  12
TORSDOF 9
ENDMDL
