MODEL 1
REMARK VINA RESULT:      -8.7      0.000      0.000
REMARK  Name = *****
REMARK                            x       y       z     vdW  Elec       q    Type
REMARK                         _______ _______ _______ _____ _____    ______ ____
ROOT
ATOM      1  O   LIG    1       26.745 -20.815   5.921  0.00  0.00    -0.458 OA
ENDROOT
BRANCH   1   3
ATOM      2  C   LIG    1       24.444 -20.677   5.148  0.00  0.00    +0.032 C 
ATOM      3  C   LIG    1       25.417 -20.388   6.320  0.00  0.00    +0.180 C 
ATOM      4  C   LIG    1       24.987 -21.121   7.598  0.00  0.00    +0.048 C 
ATOM      5  C   LIG    1       24.743 -22.634   7.443  0.00  0.00    -0.011 C 
ATOM      6  C   LIG    1       26.020 -23.453   7.644  0.00  0.00    +0.007 C 
ATOM      7  C   LIG    1       24.025 -23.021   6.141  0.00  0.00    +0.004 C 
ATOM      8  C   LIG    1       24.406 -22.202   4.908  0.00  0.00    +0.007 C 
BRANCH   2  10
ATOM      9  C   LIG    1       22.829 -18.762   4.503  0.00  0.00    +0.007 C 
ATOM     10  C   LIG    1       23.019 -20.047   5.324  0.00  0.00    -0.011 C 
ATOM     11  C   LIG    1       21.902 -21.023   4.922  0.00  0.00    +0.007 C 
ENDBRANCH   2  10
ENDBRANCH   1   3
BRANCH   1  12
ATOM     12  C   LIG    1       27.645 -19.828   5.634  0.00  0.00    +0.343 C 
ATOM     13  O   LIG    1       27.496 -18.959   4.799  0.00  0.00    -0.245 OA
BRANCH  12  14
ATOM     14  C   LIG    1       28.844 -19.994   6.510  0.00  0.00    +0.100 A 
ATOM     15  C   LIG    1       29.942 -19.128   6.414  0.00  0.00    +0.131 A 
ATOM     16  C   LIG    1       31.059 -19.301   7.241  0.00  0.00    +0.046 A 
ATOM     17  C   LIG    1       31.082 -20.335   8.177  0.00  0.00    +0.004 A 
ATOM     18  C   LIG    1       29.993 -21.193   8.293  0.00  0.00    +0.001 A 
ATOM     19  C   LIG    1       28.882 -21.023   7.464  0.00  0.00    +0.019 A 
BRANCH  15  20
ATOM     20  O   LIG    1       29.962 -18.123   5.489  0.00  0.00    -0.506 OA
ATOM     21  H   LIG    1       29.271 -18.273   4.824  0.00  0.00    +0.292 HD
ENDBRANCH  15  20
ENDBRANCH  12  14
ENDBRANCH   1  12
TORSDOF 5
ENDMDL
MODEL 2
REMARK VINA RESULT:      -8.7      1.199      2.986
REMARK  Name = *****
REMARK                            x       y       z     vdW  Elec       q    Type
REMARK                         _______ _______ _______ _____ _____    ______ ____
ROOT
ATOM      1  O   LIG    1       25.919 -20.731   6.118  0.00  0.00    -0.458 OA
ENDROOT
BRANCH   1   3
ATOM      2  C   LIG    1       25.189 -23.019   6.500  0.00  0.00    +0.032 C 
ATOM      3  C   LIG    1       25.487 -21.934   5.432  0.00  0.00    +0.180 C 
ATOM      4  C   LIG    1       24.250 -21.639   4.573  0.00  0.00    +0.048 C 
ATOM      5  C   LIG    1       22.966 -21.306   5.355  0.00  0.00    -0.011 C 
ATOM      6  C   LIG    1       22.850 -19.814   5.675  0.00  0.00    +0.007 C 
ATOM      7  C   LIG    1       22.755 -22.168   6.609  0.00  0.00    +0.004 C 
ATOM      8  C   LIG    1       24.023 -22.526   7.385  0.00  0.00    +0.007 C 
BRANCH   2  10
ATOM      9  C   LIG    1       26.104 -25.422   6.217  0.00  0.00    +0.007 C 
ATOM     10  C   LIG    1       24.951 -24.452   5.913  0.00  0.00    -0.011 C 
ATOM     11  C   LIG    1       23.658 -25.089   6.447  0.00  0.00    +0.007 C 
ENDBRANCH   2  10
ENDBRANCH   1   3
BRANCH   1  12
ATOM     12  C   LIG    1       26.795 -19.926   5.449  0.00  0.00    +0.343 C 
ATOM     13  O   LIG    1       26.547 -19.301   4.437  0.00  0.00    -0.245 OA
BRANCH  12  14
ATOM     14  C   LIG    1       28.111 -19.942   6.158  0.00  0.00    +0.100 A 
ATOM     15  C   LIG    1       29.129 -19.037   5.828  0.00  0.00    +0.131 A 
ATOM     16  C   LIG    1       30.356 -19.070   6.502  0.00  0.00    +0.046 A 
ATOM     17  C   LIG    1       30.571 -20.001   7.517  0.00  0.00    +0.004 A 
ATOM     18  C   LIG    1       29.564 -20.896   7.865  0.00  0.00    +0.001 A 
ATOM     19  C   LIG    1       28.343 -20.866   7.190  0.00  0.00    +0.019 A 
BRANCH  15  20
ATOM     20  O   LIG    1       28.959 -18.130   4.819  0.00  0.00    -0.506 OA
ATOM     21  H   LIG    1       29.474 -18.402   4.042  0.00  0.00    +0.292 HD
ENDBRANCH  15  20
ENDBRANCH  12  14
ENDBRANCH   1  12
TORSDOF 5
ENDMDL
MODEL 3
REMARK VINA RESULT:      -8.7      1.658      3.537
REMARK  Name = *****
REMARK                            x       y       z     vdW  Elec       q    Type
REMARK                         _______ _______ _______ _____ _____    ______ ____
ROOT
ATOM      1  O   LIG    1       25.774 -20.628   6.799  0.00  0.00    -0.458 OA
ENDROOT
BRANCH   1   3
ATOM      2  C   LIG    1       24.964 -22.920   6.750  0.00  0.00    +0.032 C 
ATOM      3  C   LIG    1       25.590 -21.769   5.921  0.00  0.00    +0.180 C 
ATOM      4  C   LIG    1       24.698 -21.384   4.734  0.00  0.00    +0.048 C 
ATOM      5  C   LIG    1       23.229 -21.079   5.081  0.00  0.00    -0.011 C 
ATOM      6  C   LIG    1       23.013 -19.611   5.459  0.00  0.00    +0.007 C 
ATOM      7  C   LIG    1       22.625 -22.025   6.130  0.00  0.00    +0.004 C 
ATOM      8  C   LIG    1       23.573 -22.466   7.246  0.00  0.00    +0.007 C 
BRANCH   2  10
ATOM      9  C   LIG    1       26.161 -25.172   6.317  0.00  0.00    +0.007 C 
ATOM     10  C   LIG    1       24.932 -24.302   6.011  0.00  0.00    -0.011 C 
ATOM     11  C   LIG    1       23.682 -25.122   6.371  0.00  0.00    +0.007 C 
ENDBRANCH   2  10
ENDBRANCH   1   3
BRANCH   1  12
ATOM     12  C   LIG    1       26.759 -20.733   7.740  0.00  0.00    +0.343 C 
ATOM     13  O   LIG    1       26.625 -21.202   8.852  0.00  0.00    -0.245 OA
BRANCH  12  14
ATOM     14  C   LIG    1       28.027 -20.170   7.182  0.00  0.00    +0.100 A 
ATOM     15  C   LIG    1       29.276 -20.538   7.699  0.00  0.00    +0.131 A 
ATOM     16  C   LIG    1       30.453 -19.998   7.165  0.00  0.00    +0.046 A 
ATOM     17  C   LIG    1       30.390 -19.093   6.105  0.00  0.00    +0.004 A 
ATOM     18  C   LIG    1       29.156 -18.731   5.574  0.00  0.00    +0.001 A 
ATOM     19  C   LIG    1       27.983 -19.266   6.109  0.00  0.00    +0.019 A 
BRANCH  15  20
ATOM     20  O   LIG    1       29.371 -21.400   8.755  0.00  0.00    -0.506 OA
ATOM     21  H   LIG    1       28.484 -21.617   9.083  0.00  0.00    +0.292 HD
ENDBRANCH  15  20
ENDBRANCH  12  14
ENDBRANCH   1  12
TORSDOF 5
ENDMDL
MODEL 4
REMARK VINA RESULT:      -8.5      2.789      5.935
REMARK  Name = *****
REMARK                            x       y       z     vdW  Elec       q    Type
REMARK                         _______ _______ _______ _____ _____    ______ ____
ROOT
ATOM      1  O   LIG    1       23.992 -22.917   5.712  0.00  0.00    -0.458 OA
ENDROOT
BRANCH   1   3
ATOM      2  C   LIG    1       25.715 -21.206   5.844  0.00  0.00    +0.032 C 
ATOM      3  C   LIG    1       24.484 -21.836   6.546  0.00  0.00    +0.180 C 
ATOM      4  C   LIG    1       23.377 -20.798   6.773  0.00  0.00    +0.048 C 
ATOM      5  C   LIG    1       22.952 -19.999   5.528  0.00  0.00    -0.011 C 
ATOM      6  C   LIG    1       21.851 -20.703   4.732  0.00  0.00    +0.007 C 
ATOM      7  C   LIG    1       24.123 -19.584   4.622  0.00  0.00    +0.004 C 
ATOM      8  C   LIG    1       25.255 -20.604   4.497  0.00  0.00    +0.007 C 
BRANCH   2  10
ATOM      9  C   LIG    1       26.535 -20.583   8.217  0.00  0.00    +0.007 C 
ATOM     10  C   LIG    1       26.512 -20.190   6.731  0.00  0.00    -0.011 C 
ATOM     11  C   LIG    1       27.970 -20.038   6.270  0.00  0.00    +0.007 C 
ENDBRANCH   2  10
ENDBRANCH   1   3
BRANCH   1  12
ATOM     12  C   LIG    1       23.453 -23.993   6.359  0.00  0.00    +0.343 C 
ATOM     13  O   LIG    1       22.415 -23.988   6.990  0.00  0.00    -0.245 OA
BRANCH  12  14
ATOM     14  C   LIG    1       24.349 -25.174   6.171  0.00  0.00    +0.100 A 
ATOM     15  C   LIG    1       25.627 -25.219   6.743  0.00  0.00    +0.131 A 
ATOM     16  C   LIG    1       26.454 -26.333   6.552  0.00  0.00    +0.046 A 
ATOM     17  C   LIG    1       26.005 -27.415   5.795  0.00  0.00    +0.004 A 
ATOM     18  C   LIG    1       24.733 -27.390   5.233  0.00  0.00    +0.001 A 
ATOM     19  C   LIG    1       23.911 -26.277   5.420  0.00  0.00    +0.019 A 
BRANCH  15  20
ATOM     20  O   LIG    1       26.107 -24.164   7.467  0.00  0.00    -0.506 OA
ATOM     21  H   LIG    1       25.879 -24.276   8.404  0.00  0.00    +0.292 HD
ENDBRANCH  15  20
ENDBRANCH  12  14
ENDBRANCH   1  12
TORSDOF 5
ENDMDL
MODEL 5
REMARK VINA RESULT:      -8.4      1.395      2.053
REMARK  Name = *****
REMARK                            x       y       z     vdW  Elec       q    Type
REMARK                         _______ _______ _______ _____ _____    ______ ____
ROOT
ATOM      1  O   LIG    1       26.479 -20.967   6.662  0.00  0.00    -0.458 OA
ENDROOT
BRANCH   1   3
ATOM      2  C   LIG    1       24.368 -20.601   5.513  0.00  0.00    +0.032 C 
ATOM      3  C   LIG    1       25.058 -20.782   6.890  0.00  0.00    +0.180 C 
ATOM      4  C   LIG    1       24.483 -21.984   7.651  0.00  0.00    +0.048 C 
ATOM      5  C   LIG    1       24.454 -23.310   6.870  0.00  0.00    -0.011 C 
ATOM      6  C   LIG    1       25.758 -24.099   7.014  0.00  0.00    +0.007 C 
ATOM      7  C   LIG    1       24.048 -23.159   5.395  0.00  0.00    +0.004 C 
ATOM      8  C   LIG    1       24.558 -21.898   4.696  0.00  0.00    +0.007 C 
BRANCH   2  10
ATOM      9  C   LIG    1       22.613 -18.807   4.884  0.00  0.00    +0.007 C 
ATOM     10  C   LIG    1       22.871 -20.143   5.599  0.00  0.00    -0.011 C 
ATOM     11  C   LIG    1       21.912 -21.183   4.997  0.00  0.00    +0.007 C 
ENDBRANCH   2  10
ENDBRANCH   1   3
BRANCH   1  12
ATOM     12  C   LIG    1       27.284 -20.940   7.765  0.00  0.00    +0.343 C 
ATOM     13  O   LIG    1       26.988 -21.361   8.865  0.00  0.00    -0.245 OA
BRANCH  12  14
ATOM     14  C   LIG    1       28.587 -20.304   7.401  0.00  0.00    +0.100 A 
ATOM     15  C   LIG    1       29.780 -20.670   8.039  0.00  0.00    +0.131 A 
ATOM     16  C   LIG    1       30.991 -20.061   7.686  0.00  0.00    +0.046 A 
ATOM     17  C   LIG    1       31.019 -19.087   6.688  0.00  0.00    +0.004 A 
ATOM     18  C   LIG    1       29.844 -18.725   6.037  0.00  0.00    +0.001 A 
ATOM     19  C   LIG    1       28.637 -19.329   6.392  0.00  0.00    +0.019 A 
BRANCH  15  20
ATOM     20  O   LIG    1       29.782 -21.601   9.040  0.00  0.00    -0.506 OA
ATOM     21  H   LIG    1       30.026 -22.469   8.681  0.00  0.00    +0.292 HD
ENDBRANCH  15  20
ENDBRANCH  12  14
ENDBRANCH   1  12
TORSDOF 5
ENDMDL
MODEL 6
REMARK VINA RESULT:      -8.3      1.575      3.351
REMARK  Name = *****
REMARK                            x       y       z     vdW  Elec       q    Type
REMARK                         _______ _______ _______ _____ _____    ______ ____
ROOT
ATOM      1  O   LIG    1       26.093 -20.276   6.417  0.00  0.00    -0.458 OA
ENDROOT
BRANCH   1   3
ATOM      2  C   LIG    1       24.298 -21.896   6.663  0.00  0.00    +0.032 C 
ATOM      3  C   LIG    1       25.509 -21.453   5.802  0.00  0.00    +0.180 C 
ATOM      4  C   LIG    1       25.088 -21.143   4.360  0.00  0.00    +0.048 C 
ATOM      5  C   LIG    1       23.915 -20.157   4.210  0.00  0.00    -0.011 C 
ATOM      6  C   LIG    1       24.380 -18.700   4.174  0.00  0.00    +0.007 C 
ATOM      7  C   LIG    1       22.790 -20.363   5.236  0.00  0.00    +0.004 C 
ATOM      8  C   LIG    1       23.242 -20.769   6.639  0.00  0.00    +0.007 C 
BRANCH   2  10
ATOM      9  C   LIG    1       24.620 -24.463   6.688  0.00  0.00    +0.007 C 
ATOM     10  C   LIG    1       23.710 -23.296   6.273  0.00  0.00    -0.011 C 
ATOM     11  C   LIG    1       22.329 -23.540   6.904  0.00  0.00    +0.007 C 
ENDBRANCH   2  10
ENDBRANCH   1   3
BRANCH   1  12
ATOM     12  C   LIG    1       26.918 -20.488   7.485  0.00  0.00    +0.343 C 
ATOM     13  O   LIG    1       26.583 -20.969   8.549  0.00  0.00    -0.245 OA
BRANCH  12  14
ATOM     14  C   LIG    1       28.296 -20.028   7.136  0.00  0.00    +0.100 A 
ATOM     15  C   LIG    1       29.425 -20.554   7.778  0.00  0.00    +0.131 A 
ATOM     16  C   LIG    1       30.709 -20.108   7.439  0.00  0.00    +0.046 A 
ATOM     17  C   LIG    1       30.873 -19.139   6.449  0.00  0.00    +0.004 A 
ATOM     18  C   LIG    1       29.762 -18.618   5.794  0.00  0.00    +0.001 A 
ATOM     19  C   LIG    1       28.482 -19.060   6.136  0.00  0.00    +0.019 A 
BRANCH  15  20
ATOM     20  O   LIG    1       29.296 -21.484   8.771  0.00  0.00    -0.506 OA
ATOM     21  H   LIG    1       29.022 -22.335   8.391  0.00  0.00    +0.292 HD
ENDBRANCH  15  20
ENDBRANCH  12  14
ENDBRANCH   1  12
TORSDOF 5
ENDMDL
MODEL 7
REMARK VINA RESULT:      -8.2      1.104      1.669
REMARK  Name = *****
REMARK                            x       y       z     vdW  Elec       q    Type
REMARK                         _______ _______ _______ _____ _____    ______ ____
ROOT
ATOM      1  O   LIG    1       26.325 -20.799   6.867  0.00  0.00    -0.458 OA
ENDROOT
BRANCH   1   3
ATOM      2  C   LIG    1       24.283 -20.534   5.574  0.00  0.00    +0.032 C 
ATOM      3  C   LIG    1       24.880 -20.730   6.991  0.00  0.00    +0.180 C 
ATOM      4  C   LIG    1       24.345 -22.007   7.653  0.00  0.00    +0.048 C 
ATOM      5  C   LIG    1       24.477 -23.292   6.816  0.00  0.00    -0.011 C 
ATOM      6  C   LIG    1       25.823 -23.989   7.027  0.00  0.00    +0.007 C 
ATOM      7  C   LIG    1       24.172 -23.099   5.322  0.00  0.00    +0.004 C 
ATOM      8  C   LIG    1       24.634 -21.772   4.719  0.00  0.00    +0.007 C 
BRANCH   2  10
ATOM      9  C   LIG    1       22.441 -18.873   4.837  0.00  0.00    +0.007 C 
ATOM     10  C   LIG    1       22.753 -20.192   5.562  0.00  0.00    -0.011 C 
ATOM     11  C   LIG    1       21.919 -21.297   4.893  0.00  0.00    +0.007 C 
ENDBRANCH   2  10
ENDBRANCH   1   3
BRANCH   1  12
ATOM     12  C   LIG    1       27.052 -20.392   7.950  0.00  0.00    +0.343 C 
ATOM     13  O   LIG    1       26.650 -20.353   9.095  0.00  0.00    -0.245 OA
BRANCH  12  14
ATOM     14  C   LIG    1       28.420 -19.996   7.496  0.00  0.00    +0.100 A 
ATOM     15  C   LIG    1       28.651 -19.532   6.194  0.00  0.00    +0.131 A 
ATOM     16  C   LIG    1       29.941 -19.169   5.787  0.00  0.00    +0.046 A 
ATOM     17  C   LIG    1       31.008 -19.260   6.681  0.00  0.00    +0.004 A 
ATOM     18  C   LIG    1       30.791 -19.706   7.980  0.00  0.00    +0.001 A 
ATOM     19  C   LIG    1       29.505 -20.072   8.384  0.00  0.00    +0.019 A 
BRANCH  15  20
ATOM     20  O   LIG    1       27.632 -19.457   5.287  0.00  0.00    -0.506 OA
ATOM     21  H   LIG    1       27.066 -18.695   5.490  0.00  0.00    +0.292 HD
ENDBRANCH  15  20
ENDBRANCH  12  14
ENDBRANCH   1  12
TORSDOF 5
ENDMDL
MODEL 8
REMARK VINA RESULT:      -7.8      1.259      3.105
REMARK  Name = *****
REMARK                            x       y       z     vdW  Elec       q    Type
REMARK                         _______ _______ _______ _____ _____    ______ ____
ROOT
ATOM      1  O   LIG    1       26.098 -20.206   6.278  0.00  0.00    -0.458 OA
ENDROOT
BRANCH   1   3
ATOM      2  C   LIG    1       24.346 -21.856   6.626  0.00  0.00    +0.032 C 
ATOM      3  C   LIG    1       25.512 -21.405   5.708  0.00  0.00    +0.180 C 
ATOM      4  C   LIG    1       25.025 -21.129   4.279  0.00  0.00    +0.048 C 
ATOM      5  C   LIG    1       23.827 -20.168   4.162  0.00  0.00    -0.011 C 
ATOM      6  C   LIG    1       24.262 -18.703   4.082  0.00  0.00    +0.007 C 
ATOM      7  C   LIG    1       22.750 -20.378   5.239  0.00  0.00    +0.004 C 
ATOM      8  C   LIG    1       23.269 -20.749   6.628  0.00  0.00    +0.007 C 
BRANCH   2  10
ATOM      9  C   LIG    1       24.691 -24.417   6.739  0.00  0.00    +0.007 C 
ATOM     10  C   LIG    1       23.770 -23.273   6.286  0.00  0.00    -0.011 C 
ATOM     11  C   LIG    1       22.392 -23.507   6.927  0.00  0.00    +0.007 C 
ENDBRANCH   2  10
ENDBRANCH   1   3
BRANCH   1  12
ATOM     12  C   LIG    1       26.832 -20.366   7.418  0.00  0.00    +0.343 C 
ATOM     13  O   LIG    1       26.399 -20.745   8.488  0.00  0.00    -0.245 OA
BRANCH  12  14
ATOM     14  C   LIG    1       28.253 -19.995   7.139  0.00  0.00    +0.100 A 
ATOM     15  C   LIG    1       28.613 -19.323   5.964  0.00  0.00    +0.131 A 
ATOM     16  C   LIG    1       29.950 -18.987   5.718  0.00  0.00    +0.046 A 
ATOM     17  C   LIG    1       30.936 -19.312   6.650  0.00  0.00    +0.004 A 
ATOM     18  C   LIG    1       30.590 -19.967   7.828  0.00  0.00    +0.001 A 
ATOM     19  C   LIG    1       29.257 -20.307   8.070  0.00  0.00    +0.019 A 
BRANCH  15  20
ATOM     20  O   LIG    1       27.676 -19.014   5.018  0.00  0.00    -0.506 OA
ATOM     21  H   LIG    1       26.786 -19.176   5.372  0.00  0.00    +0.292 HD
ENDBRANCH  15  20
ENDBRANCH  12  14
ENDBRANCH   1  12
TORSDOF 5
ENDMDL
MODEL 9
REMARK VINA RESULT:      -7.5      3.089      5.735
REMARK  Name = *****
REMARK                            x       y       z     vdW  Elec       q    Type
REMARK                         _______ _______ _______ _____ _____    ______ ____
ROOT
ATOM      1  O   LIG    1       25.216 -22.978   5.841  0.00  0.00    -0.458 OA
ENDROOT
BRANCH   1   3
ATOM      2  C   LIG    1       25.233 -20.824   4.713  0.00  0.00    +0.032 C 
ATOM      3  C   LIG    1       25.615 -21.593   6.005  0.00  0.00    +0.180 C 
ATOM      4  C   LIG    1       24.932 -20.988   7.239  0.00  0.00    +0.048 C 
ATOM      5  C   LIG    1       23.406 -20.812   7.131  0.00  0.00    -0.011 C 
ATOM      6  C   LIG    1       22.644 -22.064   7.573  0.00  0.00    +0.007 C 
ATOM      7  C   LIG    1       22.929 -20.318   5.757  0.00  0.00    +0.004 C 
ATOM      8  C   LIG    1       23.697 -20.866   4.554  0.00  0.00    +0.007 C 
BRANCH   2  10
ATOM      9  C   LIG    1       27.342 -19.331   4.840  0.00  0.00    +0.007 C 
ATOM     10  C   LIG    1       25.820 -19.373   4.630  0.00  0.00    -0.011 C 
ATOM     11  C   LIG    1       25.521 -18.704   3.279  0.00  0.00    +0.007 C 
ENDBRANCH   2  10
ENDBRANCH   1   3
BRANCH   1  12
ATOM     12  C   LIG    1       25.719 -23.871   6.744  0.00  0.00    +0.343 C 
ATOM     13  O   LIG    1       26.239 -23.585   7.803  0.00  0.00    -0.245 OA
BRANCH  12  14
ATOM     14  C   LIG    1       25.531 -25.257   6.215  0.00  0.00    +0.100 A 
ATOM     15  C   LIG    1       24.253 -25.794   6.016  0.00  0.00    +0.131 A 
ATOM     16  C   LIG    1       24.097 -27.096   5.523  0.00  0.00    +0.046 A 
ATOM     17  C   LIG    1       25.219 -27.866   5.217  0.00  0.00    +0.004 A 
ATOM     18  C   LIG    1       26.494 -27.340   5.397  0.00  0.00    +0.001 A 
ATOM     19  C   LIG    1       26.648 -26.044   5.893  0.00  0.00    +0.019 A 
BRANCH  15  20
ATOM     20  O   LIG    1       23.134 -25.075   6.331  0.00  0.00    -0.506 OA
ATOM     21  H   LIG    1       22.340 -25.585   6.103  0.00  0.00    +0.292 HD
ENDBRANCH  15  20
ENDBRANCH  12  14
ENDBRANCH   1  12
TORSDOF 5
ENDMDL
