MODEL 1
REMARK VINA RESULT:      -6.7      0.000      0.000
REMARK  Name = *****
REMARK                            x       y       z     vdW  Elec       q    Type
REMARK                         _______ _______ _______ _____ _____    ______ ____
ROOT
ATOM      1  C   LIG    1       25.440 -28.743   7.043  0.00  0.00    +0.102 C 
ATOM      2  N   LIG    1       25.324 -28.589   8.488  0.00  0.00    -0.309 N 
ATOM      3  H   LIG    1       24.485 -28.144   8.833  0.00  0.00    +0.149 HD
ATOM      4  C   LIG    1       26.345 -28.811   9.382  0.00  0.00    +0.216 C 
ATOM      5  O   LIG    1       27.432 -29.314   9.099  0.00  0.00    -0.276 OA
ATOM      6  C   LIG    1       26.005 -28.328  10.776  0.00  0.00    +0.128 C 
ATOM      7  C   LIG    1       26.657 -29.102  11.936  0.00  0.00    +0.136 C 
ATOM      8  C   LIG    1       25.794 -29.174  13.242  0.00  0.00    +0.050 C 
ATOM      9  C   LIG    1       26.689 -29.591  14.416  0.00  0.00    +0.021 C 
ATOM     10  C   LIG    1       25.261 -27.769  13.625  0.00  0.00    +0.021 C 
ATOM     11  C   LIG    1       24.551 -30.068  12.957  0.00  0.00    +0.147 C 
ATOM     12  O   LIG    1       23.659 -29.598  12.223  0.00  0.00    -0.296 OA
ATOM     13  C   LIG    1       24.266 -31.457  13.573  0.00  0.00    +0.082 C 
ATOM     14  C   LIG    1       25.367 -32.258  14.251  0.00  0.00    +0.018 C 
ATOM     15  C   LIG    1       23.484 -32.348  12.547  0.00  0.00    +0.127 C 
ATOM     16  C   LIG    1       24.141 -32.604  11.155  0.00  0.00    +0.015 C 
ATOM     17  C   LIG    1       25.439 -33.411  11.263  0.00  0.00    +0.010 C 
ATOM     18  C   LIG    1       23.151 -33.329  10.199  0.00  0.00    +0.006 C 
ATOM     19  C   LIG    1       23.596 -33.428   8.727  0.00  0.00    +0.003 C 
ATOM     20  C   LIG    1       23.741 -32.060   8.054  0.00  0.00    +0.037 C 
ATOM     21  C   LIG    1       24.170 -32.088   6.605  0.00  0.00    +0.093 C 
ATOM     22  C   LIG    1       24.832 -33.319   6.057  0.00  0.00    +0.044 C 
ATOM     23  C   LIG    1       24.424 -30.763   5.885  0.00  0.00    +0.153 C 
ATOM     24  O   LIG    1       23.218 -31.520   5.694  0.00  0.00    -0.365 OA
ATOM     25  C   LIG    1       24.165 -29.396   6.455  0.00  0.00    +0.061 C 
ENDROOT
BRANCH   1  27
ATOM     26  C   LIG    1       26.657 -27.337   5.316  0.00  0.00    +0.041 C 
ATOM     27  C   LIG    1       25.701 -27.338   6.483  0.00  0.00    -0.051 C 
ATOM     28  C   LIG    1       25.110 -26.241   7.014  0.00  0.00    +0.029 C 
BRANCH  28  29
ATOM     29  C   LIG    1       25.203 -24.864   6.631  0.00  0.00    +0.071 A 
ATOM     30  N   LIG    1       26.021 -23.987   7.304  0.00  0.00    -0.245 NA
ATOM     31  C   LIG    1       25.931 -22.784   6.780  0.00  0.00    +0.076 A 
ATOM     32  C   LIG    1       26.675 -21.601   7.293  0.00  0.00    +0.074 C 
ATOM     33  S   LIG    1       24.888 -22.648   5.424  0.00  0.00    -0.080 S 
ATOM     34  C   LIG    1       24.511 -24.316   5.569  0.00  0.00    +0.074 A 
ENDBRANCH  28  29
ENDBRANCH   1  27
BRANCH   7  35
ATOM     35  O   LIG    1       27.014 -30.437  11.575  0.00  0.00    -0.390 OA
ATOM     36  H   LIG    1       27.269 -30.902  12.402  0.00  0.00    +0.210 HD
ENDBRANCH   7  35
BRANCH  15  37
ATOM     37  O   LIG    1       22.185 -31.763  12.357  0.00  0.00    -0.391 OA
ATOM     38  H   LIG    1       21.559 -32.512  12.247  0.00  0.00    +0.210 HD
ENDBRANCH  15  37
TORSDOF 4
ENDMDL
MODEL 2
REMARK VINA RESULT:      -5.6      4.055      6.619
REMARK  Name = *****
REMARK                            x       y       z     vdW  Elec       q    Type
REMARK                         _______ _______ _______ _____ _____    ______ ____
ROOT
ATOM      1  C   LIG    1       25.665 -31.009   9.066  0.00  0.00    +0.102 C 
ATOM      2  N   LIG    1       24.501 -31.607   9.708  0.00  0.00    -0.309 N 
ATOM      3  H   LIG    1       24.633 -32.509  10.143  0.00  0.00    +0.149 HD
ATOM      4  C   LIG    1       23.214 -31.139   9.583  0.00  0.00    +0.216 C 
ATOM      5  O   LIG    1       22.900 -30.076   9.050  0.00  0.00    -0.276 OA
ATOM      6  C   LIG    1       22.193 -32.103  10.148  0.00  0.00    +0.128 C 
ATOM      7  C   LIG    1       20.911 -31.471  10.721  0.00  0.00    +0.136 C 
ATOM      8  C   LIG    1       20.277 -32.250  11.923  0.00  0.00    +0.050 C 
ATOM      9  C   LIG    1       18.833 -31.774  12.127  0.00  0.00    +0.021 C 
ATOM     10  C   LIG    1       20.157 -33.761  11.595  0.00  0.00    +0.021 C 
ATOM     11  C   LIG    1       21.234 -32.125  13.145  0.00  0.00    +0.147 C 
ATOM     12  O   LIG    1       22.303 -32.768  13.108  0.00  0.00    -0.296 OA
ATOM     13  C   LIG    1       20.948 -31.352  14.452  0.00  0.00    +0.082 C 
ATOM     14  C   LIG    1       19.834 -30.320  14.528  0.00  0.00    +0.018 C 
ATOM     15  C   LIG    1       22.283 -30.771  15.034  0.00  0.00    +0.127 C 
ATOM     16  C   LIG    1       23.119 -29.817  14.125  0.00  0.00    +0.015 C 
ATOM     17  C   LIG    1       22.380 -28.511  13.816  0.00  0.00    +0.010 C 
ATOM     18  C   LIG    1       24.497 -29.498  14.774  0.00  0.00    +0.006 C 
ATOM     19  C   LIG    1       25.505 -28.761  13.872  0.00  0.00    +0.003 C 
ATOM     20  C   LIG    1       25.915 -29.577  12.643  0.00  0.00    +0.037 C 
ATOM     21  C   LIG    1       26.909 -28.909  11.719  0.00  0.00    +0.093 C 
ATOM     22  C   LIG    1       27.087 -27.420  11.783  0.00  0.00    +0.044 C 
ATOM     23  C   LIG    1       27.303 -29.620  10.423  0.00  0.00    +0.153 C 
ATOM     24  O   LIG    1       28.153 -29.612  11.582  0.00  0.00    -0.365 OA
ATOM     25  C   LIG    1       26.881 -31.007  10.025  0.00  0.00    +0.061 C 
ENDROOT
BRANCH   1  27
ATOM     26  C   LIG    1       27.055 -32.804   7.931  0.00  0.00    +0.041 C 
ATOM     27  C   LIG    1       25.916 -31.825   7.790  0.00  0.00    -0.051 C 
ATOM     28  C   LIG    1       25.166 -31.648   6.675  0.00  0.00    +0.029 C 
BRANCH  28  29
ATOM     29  C   LIG    1       25.225 -32.311   5.407  0.00  0.00    +0.071 A 
ATOM     30  N   LIG    1       26.232 -32.052   4.508  0.00  0.00    -0.245 NA
ATOM     31  C   LIG    1       26.068 -32.769   3.418  0.00  0.00    +0.076 A 
ATOM     32  C   LIG    1       26.978 -32.704   2.242  0.00  0.00    +0.074 C 
ATOM     33  S   LIG    1       24.715 -33.825   3.428  0.00  0.00    -0.080 S 
ATOM     34  C   LIG    1       24.307 -33.258   4.996  0.00  0.00    +0.074 A 
ENDBRANCH  28  29
ENDBRANCH   1  27
BRANCH   7  35
ATOM     35  O   LIG    1       21.102 -30.116  11.131  0.00  0.00    -0.390 OA
ATOM     36  H   LIG    1       21.826 -29.746  10.578  0.00  0.00    +0.210 HD
ENDBRANCH   7  35
BRANCH  15  37
ATOM     37  O   LIG    1       23.104 -31.878  15.442  0.00  0.00    -0.391 OA
ATOM     38  H   LIG    1       23.983 -31.501  15.665  0.00  0.00    +0.210 HD
ENDBRANCH  15  37
TORSDOF 4
ENDMDL
MODEL 3
REMARK VINA RESULT:      -4.0      4.526      7.399
REMARK  Name = *****
REMARK                            x       y       z     vdW  Elec       q    Type
REMARK                         _______ _______ _______ _____ _____    ______ ____
ROOT
ATOM      1  C   LIG    1       25.526 -27.860  13.419  0.00  0.00    +0.102 C 
ATOM      2  N   LIG    1       25.511 -29.192  12.828  0.00  0.00    -0.309 N 
ATOM      3  H   LIG    1       25.691 -29.969  13.449  0.00  0.00    +0.149 HD
ATOM      4  C   LIG    1       25.479 -29.448  11.477  0.00  0.00    +0.216 C 
ATOM      5  O   LIG    1       25.301 -28.599  10.604  0.00  0.00    -0.276 OA
ATOM      6  C   LIG    1       25.728 -30.907  11.160  0.00  0.00    +0.128 C 
ATOM      7  C   LIG    1       25.045 -31.449   9.891  0.00  0.00    +0.136 C 
ATOM      8  C   LIG    1       24.634 -32.959   9.963  0.00  0.00    +0.050 C 
ATOM      9  C   LIG    1       24.356 -33.474   8.545  0.00  0.00    +0.021 C 
ATOM     10  C   LIG    1       25.813 -33.825  10.479  0.00  0.00    +0.021 C 
ATOM     11  C   LIG    1       23.480 -33.102  10.999  0.00  0.00    +0.147 C 
ATOM     12  O   LIG    1       23.769 -32.977  12.206  0.00  0.00    -0.296 OA
ATOM     13  C   LIG    1       22.014 -33.480  10.684  0.00  0.00    +0.082 C 
ATOM     14  C   LIG    1       21.465 -33.393   9.269  0.00  0.00    +0.018 C 
ATOM     15  C   LIG    1       21.049 -32.771  11.698  0.00  0.00    +0.127 C 
ATOM     16  C   LIG    1       21.100 -31.213  11.784  0.00  0.00    +0.015 C 
ATOM     17  C   LIG    1       20.649 -30.543  10.483  0.00  0.00    +0.010 C 
ATOM     18  C   LIG    1       20.235 -30.695  12.969  0.00  0.00    +0.006 C 
ATOM     19  C   LIG    1       20.390 -29.200  13.304  0.00  0.00    +0.003 C 
ATOM     20  C   LIG    1       21.805 -28.833  13.762  0.00  0.00    +0.037 C 
ATOM     21  C   LIG    1       22.021 -27.378  14.112  0.00  0.00    +0.093 C 
ATOM     22  C   LIG    1       21.058 -26.348  13.599  0.00  0.00    +0.044 C 
ATOM     23  C   LIG    1       23.427 -26.913  14.493  0.00  0.00    +0.153 C 
ATOM     24  O   LIG    1       22.406 -27.149  15.475  0.00  0.00    -0.365 OA
ATOM     25  C   LIG    1       24.623 -27.806  14.676  0.00  0.00    +0.061 C 
ENDROOT
BRANCH   1  27
ATOM     26  C   LIG    1       27.337 -26.087  13.547  0.00  0.00    +0.041 C 
ATOM     27  C   LIG    1       26.995 -27.545  13.729  0.00  0.00    -0.051 C 
ATOM     28  C   LIG    1       27.861 -28.511  14.123  0.00  0.00    +0.029 C 
BRANCH  28  29
ATOM     29  C   LIG    1       29.246 -28.423  14.474  0.00  0.00    +0.071 A 
ATOM     30  N   LIG    1       30.175 -29.289  13.947  0.00  0.00    -0.245 NA
ATOM     31  C   LIG    1       31.372 -29.021  14.422  0.00  0.00    +0.076 A 
ATOM     32  C   LIG    1       32.594 -29.792  14.066  0.00  0.00    +0.074 C 
ATOM     33  S   LIG    1       31.454 -27.688  15.500  0.00  0.00    -0.080 S 
ATOM     34  C   LIG    1       29.759 -27.474  15.335  0.00  0.00    +0.074 A 
ENDBRANCH  28  29
ENDBRANCH   1  27
BRANCH   7  35
ATOM     35  O   LIG    1       23.887 -30.698   9.527  0.00  0.00    -0.390 OA
ATOM     36  H   LIG    1       24.110 -29.748   9.642  0.00  0.00    +0.210 HD
ENDBRANCH   7  35
BRANCH  15  37
ATOM     37  O   LIG    1       21.294 -33.326  13.001  0.00  0.00    -0.391 OA
ATOM     38  H   LIG    1       21.986 -32.765  13.413  0.00  0.00    +0.210 HD
ENDBRANCH  15  37
TORSDOF 4
ENDMDL
MODEL 4
REMARK VINA RESULT:      -3.9      4.313      8.805
REMARK  Name = *****
REMARK                            x       y       z     vdW  Elec       q    Type
REMARK                         _______ _______ _______ _____ _____    ______ ____
ROOT
ATOM      1  C   LIG    1       22.461 -30.470  13.541  0.00  0.00    +0.102 C 
ATOM      2  N   LIG    1       22.478 -30.902  12.149  0.00  0.00    -0.309 N 
ATOM      3  H   LIG    1       21.872 -30.407  11.510  0.00  0.00    +0.149 HD
ATOM      4  C   LIG    1       23.087 -32.048  11.694  0.00  0.00    +0.216 C 
ATOM      5  O   LIG    1       23.825 -32.768  12.367  0.00  0.00    -0.276 OA
ATOM      6  C   LIG    1       22.723 -32.364  10.260  0.00  0.00    +0.128 C 
ATOM      7  C   LIG    1       23.794 -33.103   9.437  0.00  0.00    +0.136 C 
ATOM      8  C   LIG    1       23.805 -32.756   7.910  0.00  0.00    +0.050 C 
ATOM      9  C   LIG    1       24.604 -33.825   7.154  0.00  0.00    +0.021 C 
ATOM     10  C   LIG    1       22.372 -32.836   7.320  0.00  0.00    +0.021 C 
ATOM     11  C   LIG    1       24.279 -31.281   7.748  0.00  0.00    +0.147 C 
ATOM     12  O   LIG    1       23.489 -30.380   8.093  0.00  0.00    -0.296 OA
ATOM     13  C   LIG    1       25.607 -30.816   7.109  0.00  0.00    +0.082 C 
ATOM     14  C   LIG    1       26.762 -31.784   6.901  0.00  0.00    +0.018 C 
ATOM     15  C   LIG    1       26.105 -29.502   7.805  0.00  0.00    +0.127 C 
ATOM     16  C   LIG    1       26.340 -29.538   9.348  0.00  0.00    +0.015 C 
ATOM     17  C   LIG    1       27.477 -30.486   9.741  0.00  0.00    +0.010 C 
ATOM     18  C   LIG    1       26.633 -28.112   9.898  0.00  0.00    +0.006 C 
ATOM     19  C   LIG    1       26.649 -27.980  11.432  0.00  0.00    +0.003 C 
ATOM     20  C   LIG    1       25.294 -28.295  12.074  0.00  0.00    +0.037 C 
ATOM     21  C   LIG    1       25.243 -28.177  13.580  0.00  0.00    +0.093 C 
ATOM     22  C   LIG    1       26.522 -28.209  14.365  0.00  0.00    +0.044 C 
ATOM     23  C   LIG    1       23.952 -28.560  14.306  0.00  0.00    +0.153 C 
ATOM     24  O   LIG    1       24.319 -27.192  14.065  0.00  0.00    -0.365 OA
ATOM     25  C   LIG    1       22.656 -28.937  13.642  0.00  0.00    +0.061 C 
ENDROOT
BRANCH   1  27
ATOM     26  C   LIG    1       21.269 -31.733  15.391  0.00  0.00    +0.041 C 
ATOM     27  C   LIG    1       21.118 -30.937  14.118  0.00  0.00    -0.051 C 
ATOM     28  C   LIG    1       19.943 -30.641  13.513  0.00  0.00    +0.029 C 
BRANCH  28  29
ATOM     29  C   LIG    1       18.600 -30.960  13.893  0.00  0.00    +0.071 A 
ATOM     30  N   LIG    1       17.966 -32.082  13.413  0.00  0.00    -0.245 NA
ATOM     31  C   LIG    1       16.744 -32.158  13.893  0.00  0.00    +0.076 A 
ATOM     32  C   LIG    1       15.787 -33.245  13.548  0.00  0.00    +0.074 C 
ATOM     33  S   LIG    1       16.300 -30.905  14.979  0.00  0.00    -0.080 S 
ATOM     34  C   LIG    1       17.851 -30.199  14.768  0.00  0.00    +0.074 A 
ENDBRANCH  28  29
ENDBRANCH   1  27
BRANCH   7  35
ATOM     35  O   LIG    1       25.115 -32.895   9.941  0.00  0.00    -0.390 OA
ATOM     36  H   LIG    1       25.728 -33.400   9.363  0.00  0.00    +0.210 HD
ENDBRANCH   7  35
BRANCH  15  37
ATOM     37  O   LIG    1       25.168 -28.457   7.493  0.00  0.00    -0.391 OA
ATOM     38  H   LIG    1       25.436 -28.100   6.618  0.00  0.00    +0.210 HD
ENDBRANCH  15  37
TORSDOF 4
ENDMDL
