MODEL 1
REMARK VINA RESULT:      -7.2      0.000      0.000
REMARK  Name = *****
REMARK                            x       y       z     vdW  Elec       q    Type
REMARK                         _______ _______ _______ _____ _____    ______ ____
ROOT
ATOM      1  C   LIG    1       26.038 -22.059   8.334  0.00  0.00    -0.000 C 
ENDROOT
BRANCH   1   2
ATOM      2  C   LIG    1       25.995 -20.605   7.816  0.00  0.00    -0.000 C 
BRANCH   2   3
ATOM      3  C   LIG    1       26.619 -20.557   6.429  0.00  0.00    -0.000 C 
BRANCH   3   4
ATOM      4  C   LIG    1       27.893 -19.736   6.249  0.00  0.00    +0.000 C 
BRANCH   4   5
ATOM      5  C   LIG    1       29.247 -20.375   6.564  0.00  0.00    +0.000 C 
BRANCH   5   6
ATOM      6  C   LIG    1       30.466 -19.462   6.802  0.00  0.00    +0.011 C 
BRANCH   6   7
ATOM      7  C   LIG    1       30.383 -18.468   7.968  0.00  0.00    +0.120 C 
BRANCH   7   8
ATOM      8  C   LIG    1       31.658 -18.177   8.746  0.00  0.00    +0.305 C 
ATOM      9  O   LIG    1       32.085 -18.910   9.668  0.00  0.00    -0.251 OA
BRANCH   8  10
ATOM     10  O   LIG    1       32.337 -17.113   8.300  0.00  0.00    -0.481 OA
ATOM     11  H   LIG    1       33.319 -17.189   8.394  0.00  0.00    +0.295 HD
ENDBRANCH   8  10
ENDBRANCH   7   8
ENDBRANCH   6   7
ENDBRANCH   5   6
ENDBRANCH   4   5
ENDBRANCH   3   4
ENDBRANCH   2   3
ENDBRANCH   1   2
BRANCH   1  12
ATOM     12  C   LIG    1       26.465 -22.954   7.196  0.00  0.00    -0.000 C 
BRANCH  12  13
ATOM     13  C   LIG    1       25.712 -24.270   7.045  0.00  0.00    -0.000 C 
BRANCH  13  14
ATOM     14  C   LIG    1       24.485 -24.204   6.112  0.00  0.00    -0.000 C 
BRANCH  14  15
ATOM     15  C   LIG    1       23.124 -23.861   6.758  0.00  0.00    -0.000 C 
BRANCH  15  16
ATOM     16  C   LIG    1       22.805 -22.368   6.794  0.00  0.00    -0.000 C 
BRANCH  16  17
ATOM     17  C   LIG    1       23.218 -21.553   5.587  0.00  0.00    -0.000 C 
BRANCH  17  18
ATOM     18  C   LIG    1       22.774 -20.088   5.785  0.00  0.00    -0.000 C 
BRANCH  18  19
ATOM     19  C   LIG    1       22.983 -19.290   4.505  0.00  0.00    -0.000 C 
BRANCH  19  21
ATOM     20  C   LIG    1       25.245 -18.602   3.496  0.00  0.00    +0.004 C 
ATOM     21  C   LIG    1       24.208 -19.700   3.687  0.00  0.00    -0.003 C 
ENDBRANCH  19  21
ENDBRANCH  18  19
ENDBRANCH  17  18
ENDBRANCH  16  17
ENDBRANCH  15  16
ENDBRANCH  14  15
ENDBRANCH  13  14
ENDBRANCH  12  13
ENDBRANCH   1  12
TORSDOF 17
ENDMDL
MODEL 2
REMARK VINA RESULT:      -6.8      1.160      2.192
REMARK  Name = *****
REMARK                            x       y       z     vdW  Elec       q    Type
REMARK                         _______ _______ _______ _____ _____    ______ ____
ROOT
ATOM      1  C   LIG    1       26.818 -20.450   6.402  0.00  0.00    -0.000 C 
ENDROOT
BRANCH   1   2
ATOM      2  C   LIG    1       28.240 -19.931   6.099  0.00  0.00    -0.000 C 
BRANCH   2   3
ATOM      3  C   LIG    1       29.222 -20.597   7.052  0.00  0.00    -0.000 C 
BRANCH   3   4
ATOM      4  C   LIG    1       30.521 -19.860   7.366  0.00  0.00    +0.000 C 
BRANCH   4   5
ATOM      5  C   LIG    1       30.701 -19.212   8.740  0.00  0.00    +0.000 C 
BRANCH   5   6
ATOM      6  C   LIG    1       30.213 -17.765   8.952  0.00  0.00    +0.011 C 
BRANCH   6   7
ATOM      7  C   LIG    1       30.803 -16.989  10.137  0.00  0.00    +0.120 C 
BRANCH   7   8
ATOM      8  C   LIG    1       32.222 -16.456  10.002  0.00  0.00    +0.305 C 
ATOM      9  O   LIG    1       33.014 -16.355  10.967  0.00  0.00    -0.251 OA
BRANCH   8  10
ATOM     10  O   LIG    1       32.584 -16.184   8.743  0.00  0.00    -0.481 OA
ATOM     11  H   LIG    1       31.838 -16.208   8.092  0.00  0.00    +0.295 HD
ENDBRANCH   8  10
ENDBRANCH   7   8
ENDBRANCH   6   7
ENDBRANCH   5   6
ENDBRANCH   4   5
ENDBRANCH   3   4
ENDBRANCH   2   3
ENDBRANCH   1   2
BRANCH   1  12
ATOM     12  C   LIG    1       26.642 -20.501   7.901  0.00  0.00    -0.000 C 
BRANCH  12  13
ATOM     13  C   LIG    1       25.998 -21.758   8.469  0.00  0.00    -0.000 C 
BRANCH  13  14
ATOM     14  C   LIG    1       25.941 -22.949   7.490  0.00  0.00    -0.000 C 
BRANCH  14  15
ATOM     15  C   LIG    1       24.550 -23.364   6.962  0.00  0.00    -0.000 C 
BRANCH  15  16
ATOM     16  C   LIG    1       23.446 -22.344   7.232  0.00  0.00    -0.000 C 
BRANCH  16  17
ATOM     17  C   LIG    1       22.828 -21.673   6.023  0.00  0.00    -0.000 C 
BRANCH  17  18
ATOM     18  C   LIG    1       23.130 -20.160   6.071  0.00  0.00    -0.000 C 
BRANCH  18  19
ATOM     19  C   LIG    1       22.442 -19.443   4.916  0.00  0.00    -0.000 C 
BRANCH  19  21
ATOM     20  C   LIG    1       24.660 -19.721   3.647  0.00  0.00    +0.004 C 
ATOM     21  C   LIG    1       23.388 -18.908   3.840  0.00  0.00    -0.003 C 
ENDBRANCH  19  21
ENDBRANCH  18  19
ENDBRANCH  17  18
ENDBRANCH  16  17
ENDBRANCH  15  16
ENDBRANCH  14  15
ENDBRANCH  13  14
ENDBRANCH  12  13
ENDBRANCH   1  12
TORSDOF 17
ENDMDL
MODEL 3
REMARK VINA RESULT:      -6.8      1.469      3.742
REMARK  Name = *****
REMARK                            x       y       z     vdW  Elec       q    Type
REMARK                         _______ _______ _______ _____ _____    ______ ____
ROOT
ATOM      1  C   LIG    1       26.428 -20.666   6.280  0.00  0.00    -0.000 C 
ENDROOT
BRANCH   1   2
ATOM      2  C   LIG    1       27.817 -20.269   6.825  0.00  0.00    -0.000 C 
BRANCH   2   3
ATOM      3  C   LIG    1       28.567 -19.497   5.749  0.00  0.00    -0.000 C 
BRANCH   3   4
ATOM      4  C   LIG    1       29.770 -18.661   6.180  0.00  0.00    +0.000 C 
BRANCH   4   5
ATOM      5  C   LIG    1       30.908 -19.328   6.953  0.00  0.00    +0.000 C 
BRANCH   5   6
ATOM      6  C   LIG    1       31.061 -19.033   8.458  0.00  0.00    +0.011 C 
BRANCH   6   7
ATOM      7  C   LIG    1       30.308 -17.819   9.018  0.00  0.00    +0.120 C 
BRANCH   7   8
ATOM      8  C   LIG    1       30.425 -17.535  10.508  0.00  0.00    +0.305 C 
ATOM      9  O   LIG    1       30.181 -16.416  11.016  0.00  0.00    -0.251 OA
BRANCH   8  10
ATOM     10  O   LIG    1       30.726 -18.610  11.245  0.00  0.00    -0.481 OA
ATOM     11  H   LIG    1       31.339 -19.248  10.801  0.00  0.00    +0.295 HD
ENDBRANCH   8  10
ENDBRANCH   7   8
ENDBRANCH   6   7
ENDBRANCH   5   6
ENDBRANCH   4   5
ENDBRANCH   3   4
ENDBRANCH   2   3
ENDBRANCH   1   2
BRANCH   1  12
ATOM     12  C   LIG    1       26.217 -19.958   4.963  0.00  0.00    -0.000 C 
BRANCH  12  13
ATOM     13  C   LIG    1       25.016 -20.401   4.137  0.00  0.00    -0.000 C 
BRANCH  13  14
ATOM     14  C   LIG    1       23.731 -19.582   4.382  0.00  0.00    -0.000 C 
BRANCH  14  15
ATOM     15  C   LIG    1       22.836 -20.010   5.564  0.00  0.00    -0.000 C 
BRANCH  15  16
ATOM     16  C   LIG    1       22.683 -21.521   5.722  0.00  0.00    -0.000 C 
BRANCH  16  17
ATOM     17  C   LIG    1       23.155 -22.121   7.029  0.00  0.00    -0.000 C 
BRANCH  17  18
ATOM     18  C   LIG    1       23.459 -23.620   6.822  0.00  0.00    -0.000 C 
BRANCH  18  19
ATOM     19  C   LIG    1       24.828 -23.803   6.180  0.00  0.00    -0.000 C 
BRANCH  19  21
ATOM     20  C   LIG    1       24.366 -26.300   5.773  0.00  0.00    +0.004 C 
ATOM     21  C   LIG    1       24.936 -24.996   5.230  0.00  0.00    -0.003 C 
ENDBRANCH  19  21
ENDBRANCH  18  19
ENDBRANCH  17  18
ENDBRANCH  16  17
ENDBRANCH  15  16
ENDBRANCH  14  15
ENDBRANCH  13  14
ENDBRANCH  12  13
ENDBRANCH   1  12
TORSDOF 17
ENDMDL
MODEL 4
REMARK VINA RESULT:      -6.8      1.152      3.954
REMARK  Name = *****
REMARK                            x       y       z     vdW  Elec       q    Type
REMARK                         _______ _______ _______ _____ _____    ______ ____
ROOT
ATOM      1  C   LIG    1       24.961 -20.217   3.941  0.00  0.00    -0.000 C 
ENDROOT
BRANCH   1   2
ATOM      2  C   LIG    1       26.223 -19.739   4.691  0.00  0.00    -0.000 C 
BRANCH   2   3
ATOM      3  C   LIG    1       26.566 -20.749   5.775  0.00  0.00    -0.000 C 
BRANCH   3   4
ATOM      4  C   LIG    1       27.409 -20.271   6.955  0.00  0.00    +0.000 C 
BRANCH   4   5
ATOM      5  C   LIG    1       28.868 -20.716   7.064  0.00  0.00    +0.000 C 
BRANCH   5   6
ATOM      6  C   LIG    1       29.973 -19.643   7.112  0.00  0.00    +0.011 C 
BRANCH   6   7
ATOM      7  C   LIG    1       30.189 -18.913   8.445  0.00  0.00    +0.120 C 
BRANCH   7   8
ATOM      8  C   LIG    1       31.505 -19.139   9.174  0.00  0.00    +0.305 C 
ATOM      9  O   LIG    1       32.063 -18.264   9.876  0.00  0.00    -0.251 OA
BRANCH   8  10
ATOM     10  O   LIG    1       31.976 -20.388   9.074  0.00  0.00    -0.481 OA
ATOM     11  H   LIG    1       31.524 -20.938   8.386  0.00  0.00    +0.295 HD
ENDBRANCH   8  10
ENDBRANCH   7   8
ENDBRANCH   6   7
ENDBRANCH   5   6
ENDBRANCH   4   5
ENDBRANCH   3   4
ENDBRANCH   2   3
ENDBRANCH   1   2
BRANCH   1  12
ATOM     12  C   LIG    1       23.952 -19.095   3.949  0.00  0.00    -0.000 C 
BRANCH  12  13
ATOM     13  C   LIG    1       22.652 -19.354   4.700  0.00  0.00    -0.000 C 
BRANCH  13  14
ATOM     14  C   LIG    1       22.630 -20.664   5.515  0.00  0.00    -0.000 C 
BRANCH  14  15
ATOM     15  C   LIG    1       23.204 -20.613   6.948  0.00  0.00    -0.000 C 
BRANCH  15  16
ATOM     16  C   LIG    1       23.645 -21.968   7.497  0.00  0.00    -0.000 C 
BRANCH  16  17
ATOM     17  C   LIG    1       23.228 -23.191   6.708  0.00  0.00    -0.000 C 
BRANCH  17  18
ATOM     18  C   LIG    1       24.442 -23.727   5.920  0.00  0.00    -0.000 C 
BRANCH  18  19
ATOM     19  C   LIG    1       25.480 -24.310   6.871  0.00  0.00    -0.000 C 
BRANCH  19  21
ATOM     20  C   LIG    1       25.560 -26.165   5.092  0.00  0.00    +0.004 C 
ATOM     21  C   LIG    1       26.064 -25.654   6.435  0.00  0.00    -0.003 C 
ENDBRANCH  19  21
ENDBRANCH  18  19
ENDBRANCH  17  18
ENDBRANCH  16  17
ENDBRANCH  15  16
ENDBRANCH  14  15
ENDBRANCH  13  14
ENDBRANCH  12  13
ENDBRANCH   1  12
TORSDOF 17
ENDMDL
MODEL 5
REMARK VINA RESULT:      -6.7      1.363      1.919
REMARK  Name = *****
REMARK                            x       y       z     vdW  Elec       q    Type
REMARK                         _______ _______ _______ _____ _____    ______ ____
ROOT
ATOM      1  C   LIG    1       26.508 -20.404   7.303  0.00  0.00    -0.000 C 
ENDROOT
BRANCH   1   2
ATOM      2  C   LIG    1       27.877 -20.649   6.631  0.00  0.00    -0.000 C 
BRANCH   2   3
ATOM      3  C   LIG    1       28.081 -19.613   5.535  0.00  0.00    -0.000 C 
BRANCH   3   4
ATOM      4  C   LIG    1       29.276 -18.671   5.659  0.00  0.00    +0.000 C 
BRANCH   4   5
ATOM      5  C   LIG    1       30.473 -19.087   6.515  0.00  0.00    +0.000 C 
BRANCH   5   6
ATOM      6  C   LIG    1       30.731 -18.352   7.845  0.00  0.00    +0.011 C 
BRANCH   6   7
ATOM      7  C   LIG    1       30.686 -19.187   9.131  0.00  0.00    +0.120 C 
BRANCH   7   8
ATOM      8  C   LIG    1       31.115 -20.645   9.049  0.00  0.00    +0.305 C 
ATOM      9  O   LIG    1       32.267 -21.041   9.340  0.00  0.00    -0.251 OA
BRANCH   8  10
ATOM     10  O   LIG    1       30.127 -21.485   8.721  0.00  0.00    -0.481 OA
ATOM     11  H   LIG    1       29.437 -21.594   9.422  0.00  0.00    +0.295 HD
ENDBRANCH   8  10
ENDBRANCH   7   8
ENDBRANCH   6   7
ENDBRANCH   5   6
ENDBRANCH   4   5
ENDBRANCH   3   4
ENDBRANCH   2   3
ENDBRANCH   1   2
BRANCH   1  12
ATOM     12  C   LIG    1       26.261 -21.517   8.292  0.00  0.00    -0.000 C 
BRANCH  12  13
ATOM     13  C   LIG    1       26.188 -22.929   7.725  0.00  0.00    -0.000 C 
BRANCH  13  14
ATOM     14  C   LIG    1       25.324 -23.067   6.455  0.00  0.00    -0.000 C 
BRANCH  14  15
ATOM     15  C   LIG    1       23.945 -23.745   6.609  0.00  0.00    -0.000 C 
BRANCH  15  16
ATOM     16  C   LIG    1       22.799 -22.779   6.902  0.00  0.00    -0.000 C 
BRANCH  16  17
ATOM     17  C   LIG    1       23.061 -21.311   6.639  0.00  0.00    -0.000 C 
BRANCH  17  18
ATOM     18  C   LIG    1       22.616 -20.963   5.203  0.00  0.00    -0.000 C 
BRANCH  18  19
ATOM     19  C   LIG    1       22.487 -19.454   5.036  0.00  0.00    -0.000 C 
BRANCH  19  21
ATOM     20  C   LIG    1       24.634 -19.650   3.635  0.00  0.00    +0.004 C 
ATOM     21  C   LIG    1       23.376 -18.852   3.947  0.00  0.00    -0.003 C 
ENDBRANCH  19  21
ENDBRANCH  18  19
ENDBRANCH  17  18
ENDBRANCH  16  17
ENDBRANCH  15  16
ENDBRANCH  14  15
ENDBRANCH  13  14
ENDBRANCH  12  13
ENDBRANCH   1  12
TORSDOF 17
ENDMDL
MODEL 6
REMARK VINA RESULT:      -6.7      2.184      4.805
REMARK  Name = *****
REMARK                            x       y       z     vdW  Elec       q    Type
REMARK                         _______ _______ _______ _____ _____    ______ ____
ROOT
ATOM      1  C   LIG    1       23.986 -19.460   4.046  0.00  0.00    -0.000 C 
ENDROOT
BRANCH   1   2
ATOM      2  C   LIG    1       25.076 -20.535   4.245  0.00  0.00    -0.000 C 
BRANCH   2   3
ATOM      3  C   LIG    1       26.241 -19.922   5.008  0.00  0.00    -0.000 C 
BRANCH   3   4
ATOM      4  C   LIG    1       26.733 -20.646   6.259  0.00  0.00    +0.000 C 
BRANCH   4   5
ATOM      5  C   LIG    1       28.031 -20.189   6.927  0.00  0.00    +0.000 C 
BRANCH   5   6
ATOM      6  C   LIG    1       28.939 -21.243   7.592  0.00  0.00    +0.011 C 
BRANCH   6   7
ATOM      7  C   LIG    1       30.256 -20.752   8.207  0.00  0.00    +0.120 C 
BRANCH   7   8
ATOM      8  C   LIG    1       31.053 -21.730   9.056  0.00  0.00    +0.305 C 
ATOM      9  O   LIG    1       30.711 -22.078  10.210  0.00  0.00    -0.251 OA
BRANCH   8  10
ATOM     10  O   LIG    1       32.111 -22.259   8.429  0.00  0.00    -0.481 OA
ATOM     11  H   LIG    1       32.985 -21.979   8.801  0.00  0.00    +0.295 HD
ENDBRANCH   8  10
ENDBRANCH   7   8
ENDBRANCH   6   7
ENDBRANCH   5   6
ENDBRANCH   4   5
ENDBRANCH   3   4
ENDBRANCH   2   3
ENDBRANCH   1   2
BRANCH   1  12
ATOM     12  C   LIG    1       22.915 -19.673   5.088  0.00  0.00    -0.000 C 
BRANCH  12  13
ATOM     13  C   LIG    1       22.438 -21.105   5.291  0.00  0.00    -0.000 C 
BRANCH  13  14
ATOM     14  C   LIG    1       22.948 -21.775   6.584  0.00  0.00    -0.000 C 
BRANCH  14  15
ATOM     15  C   LIG    1       22.810 -23.310   6.687  0.00  0.00    -0.000 C 
BRANCH  15  16
ATOM     16  C   LIG    1       24.138 -24.052   6.817  0.00  0.00    -0.000 C 
BRANCH  16  17
ATOM     17  C   LIG    1       25.073 -23.990   5.628  0.00  0.00    -0.000 C 
BRANCH  17  18
ATOM     18  C   LIG    1       25.043 -25.343   4.884  0.00  0.00    -0.000 C 
BRANCH  18  19
ATOM     19  C   LIG    1       24.628 -26.462   5.830  0.00  0.00    -0.000 C 
BRANCH  19  21
ATOM     20  C   LIG    1       24.125 -28.975   6.035  0.00  0.00    +0.004 C 
ATOM     21  C   LIG    1       24.876 -27.874   5.298  0.00  0.00    -0.003 C 
ENDBRANCH  19  21
ENDBRANCH  18  19
ENDBRANCH  17  18
ENDBRANCH  16  17
ENDBRANCH  15  16
ENDBRANCH  14  15
ENDBRANCH  13  14
ENDBRANCH  12  13
ENDBRANCH   1  12
TORSDOF 17
ENDMDL
MODEL 7
REMARK VINA RESULT:      -6.6      1.851      4.449
REMARK  Name = *****
REMARK                            x       y       z     vdW  Elec       q    Type
REMARK                         _______ _______ _______ _____ _____    ______ ____
ROOT
ATOM      1  C   LIG    1       24.459 -20.959   4.710  0.00  0.00    -0.000 C 
ENDROOT
BRANCH   1   2
ATOM      2  C   LIG    1       25.671 -20.007   4.626  0.00  0.00    -0.000 C 
BRANCH   2   3
ATOM      3  C   LIG    1       26.588 -20.269   5.812  0.00  0.00    -0.000 C 
BRANCH   3   4
ATOM      4  C   LIG    1       28.045 -19.828   5.698  0.00  0.00    +0.000 C 
BRANCH   4   5
ATOM      5  C   LIG    1       29.101 -20.495   6.580  0.00  0.00    +0.000 C 
BRANCH   5   6
ATOM      6  C   LIG    1       29.434 -19.869   7.948  0.00  0.00    +0.011 C 
BRANCH   6   7
ATOM      7  C   LIG    1       30.196 -18.537   7.947  0.00  0.00    +0.120 C 
BRANCH   7   8
ATOM      8  C   LIG    1       31.605 -18.523   8.522  0.00  0.00    +0.305 C 
ATOM      9  O   LIG    1       32.081 -19.462   9.200  0.00  0.00    -0.251 OA
BRANCH   8  10
ATOM     10  O   LIG    1       32.326 -17.454   8.167  0.00  0.00    -0.481 OA
ATOM     11  H   LIG    1       33.150 -17.669   7.662  0.00  0.00    +0.295 HD
ENDBRANCH   8  10
ENDBRANCH   7   8
ENDBRANCH   6   7
ENDBRANCH   5   6
ENDBRANCH   4   5
ENDBRANCH   3   4
ENDBRANCH   2   3
ENDBRANCH   1   2
BRANCH   1  12
ATOM     12  C   LIG    1       23.389 -20.291   5.540  0.00  0.00    -0.000 C 
BRANCH  12  13
ATOM     13  C   LIG    1       23.242 -20.773   6.977  0.00  0.00    -0.000 C 
BRANCH  13  14
ATOM     14  C   LIG    1       23.796 -22.189   7.240  0.00  0.00    -0.000 C 
BRANCH  14  15
ATOM     15  C   LIG    1       22.932 -23.382   6.775  0.00  0.00    -0.000 C 
BRANCH  15  16
ATOM     16  C   LIG    1       23.725 -24.650   6.467  0.00  0.00    -0.000 C 
BRANCH  16  17
ATOM     17  C   LIG    1       25.124 -24.463   5.918  0.00  0.00    -0.000 C 
BRANCH  17  18
ATOM     18  C   LIG    1       25.969 -25.713   6.241  0.00  0.00    -0.000 C 
BRANCH  18  19
ATOM     19  C   LIG    1       25.076 -26.936   6.393  0.00  0.00    -0.000 C 
BRANCH  19  21
ATOM     20  C   LIG    1       24.757 -29.384   5.673  0.00  0.00    +0.004 C 
ATOM     21  C   LIG    1       25.239 -27.990   5.297  0.00  0.00    -0.003 C 
ENDBRANCH  19  21
ENDBRANCH  18  19
ENDBRANCH  17  18
ENDBRANCH  16  17
ENDBRANCH  15  16
ENDBRANCH  14  15
ENDBRANCH  13  14
ENDBRANCH  12  13
ENDBRANCH   1  12
TORSDOF 17
ENDMDL
MODEL 8
REMARK VINA RESULT:      -6.5      2.111      4.726
REMARK  Name = *****
REMARK                            x       y       z     vdW  Elec       q    Type
REMARK                         _______ _______ _______ _____ _____    ______ ____
ROOT
ATOM      1  C   LIG    1       23.776 -20.693   6.830  0.00  0.00    -0.000 C 
ENDROOT
BRANCH   1   2
ATOM      2  C   LIG    1       25.282 -20.604   6.502  0.00  0.00    -0.000 C 
BRANCH   2   3
ATOM      3  C   LIG    1       26.065 -20.503   7.804  0.00  0.00    -0.000 C 
BRANCH   3   4
ATOM      4  C   LIG    1       27.558 -20.817   7.763  0.00  0.00    +0.000 C 
BRANCH   4   5
ATOM      5  C   LIG    1       28.397 -20.320   6.584  0.00  0.00    +0.000 C 
BRANCH   5   6
ATOM      6  C   LIG    1       29.470 -19.242   6.833  0.00  0.00    +0.011 C 
BRANCH   6   7
ATOM      7  C   LIG    1       29.905 -19.004   8.285  0.00  0.00    +0.120 C 
BRANCH   7   8
ATOM      8  C   LIG    1       31.396 -18.910   8.574  0.00  0.00    +0.305 C 
ATOM      9  O   LIG    1       32.039 -19.802   9.173  0.00  0.00    -0.251 OA
BRANCH   8  10
ATOM     10  O   LIG    1       31.984 -17.826   8.054  0.00  0.00    -0.481 OA
ATOM     11  H   LIG    1       31.849 -16.999   8.580  0.00  0.00    +0.295 HD
ENDBRANCH   8  10
ENDBRANCH   7   8
ENDBRANCH   6   7
ENDBRANCH   5   6
ENDBRANCH   4   5
ENDBRANCH   3   4
ENDBRANCH   2   3
ENDBRANCH   1   2
BRANCH   1  12
ATOM     12  C   LIG    1       23.192 -21.853   6.060  0.00  0.00    -0.000 C 
BRANCH  12  13
ATOM     13  C   LIG    1       22.795 -23.078   6.873  0.00  0.00    -0.000 C 
BRANCH  13  14
ATOM     14  C   LIG    1       23.666 -24.327   6.618  0.00  0.00    -0.000 C 
BRANCH  14  15
ATOM     15  C   LIG    1       25.173 -24.214   6.938  0.00  0.00    -0.000 C 
BRANCH  15  16
ATOM     16  C   LIG    1       26.056 -25.179   6.151  0.00  0.00    -0.000 C 
BRANCH  16  17
ATOM     17  C   LIG    1       25.412 -25.895   4.984  0.00  0.00    -0.000 C 
BRANCH  17  18
ATOM     18  C   LIG    1       25.663 -27.412   5.115  0.00  0.00    -0.000 C 
BRANCH  18  19
ATOM     19  C   LIG    1       24.373 -28.138   5.473  0.00  0.00    -0.000 C 
BRANCH  19  21
ATOM     20  C   LIG    1       25.490 -28.447   7.769  0.00  0.00    +0.004 C 
ATOM     21  C   LIG    1       24.418 -28.911   6.792  0.00  0.00    -0.003 C 
ENDBRANCH  19  21
ENDBRANCH  18  19
ENDBRANCH  17  18
ENDBRANCH  16  17
ENDBRANCH  15  16
ENDBRANCH  14  15
ENDBRANCH  13  14
ENDBRANCH  12  13
ENDBRANCH   1  12
TORSDOF 17
ENDMDL
MODEL 9
REMARK VINA RESULT:      -6.5      1.744      4.016
REMARK  Name = *****
REMARK                            x       y       z     vdW  Elec       q    Type
REMARK                         _______ _______ _______ _____ _____    ______ ____
ROOT
ATOM      1  C   LIG    1       26.480 -20.330   6.775  0.00  0.00    -0.000 C 
ENDROOT
BRANCH   1   2
ATOM      2  C   LIG    1       27.302 -21.551   7.244  0.00  0.00    -0.000 C 
BRANCH   2   3
ATOM      3  C   LIG    1       28.736 -21.111   7.501  0.00  0.00    -0.000 C 
BRANCH   3   4
ATOM      4  C   LIG    1       29.002 -19.619   7.682  0.00  0.00    +0.000 C 
BRANCH   4   5
ATOM      5  C   LIG    1       30.390 -19.061   7.363  0.00  0.00    +0.000 C 
BRANCH   5   6
ATOM      6  C   LIG    1       31.291 -18.592   8.522  0.00  0.00    +0.011 C 
BRANCH   6   7
ATOM      7  C   LIG    1       30.928 -17.266   9.203  0.00  0.00    +0.120 C 
BRANCH   7   8
ATOM      8  C   LIG    1       30.637 -17.289  10.697  0.00  0.00    +0.305 C 
ATOM      9  O   LIG    1       30.330 -16.268  11.355  0.00  0.00    -0.251 OA
BRANCH   8  10
ATOM     10  O   LIG    1       30.651 -18.514  11.235  0.00  0.00    -0.481 OA
ATOM     11  H   LIG    1       30.665 -18.522  12.225  0.00  0.00    +0.295 HD
ENDBRANCH   8  10
ENDBRANCH   7   8
ENDBRANCH   6   7
ENDBRANCH   5   6
ENDBRANCH   4   5
ENDBRANCH   3   4
ENDBRANCH   2   3
ENDBRANCH   1   2
BRANCH   1  12
ATOM     12  C   LIG    1       25.843 -20.669   5.449  0.00  0.00    -0.000 C 
BRANCH  12  13
ATOM     13  C   LIG    1       24.321 -20.698   5.412  0.00  0.00    -0.000 C 
BRANCH  13  14
ATOM     14  C   LIG    1       23.644 -20.675   6.799  0.00  0.00    -0.000 C 
BRANCH  14  15
ATOM     15  C   LIG    1       23.543 -22.016   7.557  0.00  0.00    -0.000 C 
BRANCH  15  16
ATOM     16  C   LIG    1       22.763 -23.100   6.817  0.00  0.00    -0.000 C 
BRANCH  16  17
ATOM     17  C   LIG    1       23.505 -24.383   6.506  0.00  0.00    -0.000 C 
BRANCH  17  18
ATOM     18  C   LIG    1       25.022 -24.143   6.654  0.00  0.00    -0.000 C 
BRANCH  18  19
ATOM     19  C   LIG    1       25.757 -25.465   6.830  0.00  0.00    -0.000 C 
BRANCH  19  21
ATOM     20  C   LIG    1       25.907 -27.336   5.074  0.00  0.00    +0.004 C 
ATOM     21  C   LIG    1       25.083 -26.665   6.164  0.00  0.00    -0.003 C 
ENDBRANCH  19  21
ENDBRANCH  18  19
ENDBRANCH  17  18
ENDBRANCH  16  17
ENDBRANCH  15  16
ENDBRANCH  14  15
ENDBRANCH  13  14
ENDBRANCH  12  13
ENDBRANCH   1  12
TORSDOF 17
ENDMDL
