MODEL 1
REMARK VINA RESULT:     -11.2      0.000      0.000
REMARK  Name = *****
REMARK                            x       y       z     vdW  Elec       q    Type
REMARK                         _______ _______ _______ _____ _____    ______ ____
ROOT
ATOM      1  C   LIG    1       26.913 -22.615   7.769  0.00  0.00    +0.045 C 
ATOM      2  C   LIG    1       26.252 -21.989   6.563  0.00  0.00    -0.031 A 
ATOM      3  C   LIG    1       26.681 -20.715   6.066  0.00  0.00    -0.014 A 
ATOM      4  C   LIG    1       25.880 -20.110   5.064  0.00  0.00    +0.009 A 
ATOM      5  C   LIG    1       24.732 -20.707   4.553  0.00  0.00    +0.001 A 
ATOM      6  C   LIG    1       24.380 -21.974   4.979  0.00  0.00    +0.013 A 
ATOM      7  C   LIG    1       25.141 -22.640   5.955  0.00  0.00    +0.041 A 
ENDROOT
BRANCH   3   8
ATOM      8  C   LIG    1       27.895 -19.969   6.542  0.00  0.00    -0.017 A 
ATOM      9  C   LIG    1       28.272 -19.969   7.901  0.00  0.00    +0.012 A 
ATOM     10  C   LIG    1       29.389 -19.263   8.379  0.00  0.00    +0.046 A 
ATOM     11  C   LIG    1       30.216 -18.587   7.494  0.00  0.00    +0.130 A 
ATOM     12  C   LIG    1       29.847 -18.534   6.152  0.00  0.00    +0.046 A 
ATOM     13  C   LIG    1       28.693 -19.186   5.695  0.00  0.00    +0.012 A 
BRANCH  11  14
ATOM     14  O   LIG    1       31.334 -17.883   7.809  0.00  0.00    -0.406 OA
BRANCH  14  15
ATOM     15  C   LIG    1       31.415 -17.190   9.048  0.00  0.00    +0.575 C 
ATOM     16  F   LIG    1       32.340 -16.211   8.944  0.00  0.00    -0.133 F 
ATOM     17  F   LIG    1       31.827 -18.057   9.999  0.00  0.00    -0.133 F 
ATOM     18  F   LIG    1       30.254 -16.643   9.463  0.00  0.00    -0.133 F 
ENDBRANCH  14  15
ENDBRANCH  11  14
ENDBRANCH   3   8
BRANCH   7  19
ATOM     19  C   LIG    1       24.635 -24.011   6.294  0.00  0.00    +0.249 C 
ATOM     20  N   LIG    1       25.456 -25.083   5.993  0.00  0.00    -0.280 N 
ATOM     21  H   LIG    1       26.346 -24.887   5.558  0.00  0.00    +0.155 HD
ATOM     22  O   LIG    1       23.503 -24.086   6.763  0.00  0.00    -0.270 OA
BRANCH  20  23
ATOM     23  C   LIG    1       25.148 -26.452   6.184  0.00  0.00    +0.052 A 
ATOM     24  C   LIG    1       25.708 -27.147   7.251  0.00  0.00    +0.136 A 
ATOM     25  N   LIG    1       25.519 -28.468   7.508  0.00  0.00    -0.238 NA
ATOM     26  C   LIG    1       24.756 -29.170   6.656  0.00  0.00    +0.121 A 
ATOM     27  C   LIG    1       24.135 -28.549   5.572  0.00  0.00    +0.045 A 
ATOM     28  C   LIG    1       24.319 -27.181   5.349  0.00  0.00    +0.028 A 
BRANCH  26  29
ATOM     29  N   LIG    1       24.493 -30.526   6.859  0.00  0.00    -0.310 N 
ATOM     30  C   LIG    1       24.627 -31.382   5.661  0.00  0.00    +0.137 C 
ATOM     31  C   LIG    1       26.063 -31.937   5.506  0.00  0.00    +0.133 C 
ATOM     32  C   LIG    1       26.122 -32.971   4.385  0.00  0.00    +0.039 C 
ATOM     33  O   LIG    1       26.500 -32.595   6.710  0.00  0.00    -0.371 OA
ATOM     34  C   LIG    1       26.500 -31.671   7.815  0.00  0.00    +0.133 C 
ATOM     35  C   LIG    1       26.991 -32.424   9.044  0.00  0.00    +0.039 C 
ATOM     36  C   LIG    1       25.083 -31.123   8.065  0.00  0.00    +0.137 C 
ENDBRANCH  26  29
ENDBRANCH  20  23
ENDBRANCH   7  19
TORSDOF 6
ENDMDL
MODEL 2
REMARK VINA RESULT:      -9.6      1.835      2.678
REMARK  Name = *****
REMARK                            x       y       z     vdW  Elec       q    Type
REMARK                         _______ _______ _______ _____ _____    ______ ____
ROOT
ATOM      1  C   LIG    1       26.617 -24.449   6.804  0.00  0.00    +0.045 C 
ATOM      2  C   LIG    1       25.288 -23.737   6.704  0.00  0.00    -0.031 A 
ATOM      3  C   LIG    1       25.193 -22.322   6.910  0.00  0.00    -0.014 A 
ATOM      4  C   LIG    1       23.890 -21.769   6.999  0.00  0.00    +0.009 A 
ATOM      5  C   LIG    1       22.735 -22.534   6.881  0.00  0.00    +0.001 A 
ATOM      6  C   LIG    1       22.843 -23.883   6.594  0.00  0.00    +0.013 A 
ATOM      7  C   LIG    1       24.103 -24.492   6.472  0.00  0.00    +0.041 A 
ENDROOT
BRANCH   3   8
ATOM      8  C   LIG    1       26.364 -21.393   7.061  0.00  0.00    -0.017 A 
ATOM      9  C   LIG    1       26.918 -20.722   5.951  0.00  0.00    +0.012 A 
ATOM     10  C   LIG    1       28.027 -19.865   6.059  0.00  0.00    +0.046 A 
ATOM     11  C   LIG    1       28.578 -19.591   7.303  0.00  0.00    +0.130 A 
ATOM     12  C   LIG    1       28.079 -20.270   8.411  0.00  0.00    +0.046 A 
ATOM     13  C   LIG    1       27.016 -21.175   8.285  0.00  0.00    +0.012 A 
BRANCH  11  14
ATOM     14  O   LIG    1       29.631 -18.772   7.558  0.00  0.00    -0.406 OA
BRANCH  14  15
ATOM     15  C   LIG    1       30.960 -19.239   7.365  0.00  0.00    +0.575 C 
ATOM     16  F   LIG    1       31.820 -18.347   7.903  0.00  0.00    -0.133 F 
ATOM     17  F   LIG    1       31.203 -19.307   6.038  0.00  0.00    -0.133 F 
ATOM     18  F   LIG    1       31.212 -20.453   7.894  0.00  0.00    -0.133 F 
ENDBRANCH  14  15
ENDBRANCH  11  14
ENDBRANCH   3   8
BRANCH   7  19
ATOM     19  C   LIG    1       24.046 -25.955   6.145  0.00  0.00    +0.249 C 
ATOM     20  N   LIG    1       24.853 -26.802   6.884  0.00  0.00    -0.280 N 
ATOM     21  H   LIG    1       25.438 -26.392   7.597  0.00  0.00    +0.155 HD
ATOM     22  O   LIG    1       23.330 -26.289   5.205  0.00  0.00    -0.270 OA
BRANCH  20  23
ATOM     23  C   LIG    1       24.985 -28.200   6.702  0.00  0.00    +0.052 A 
ATOM     24  C   LIG    1       25.409 -28.704   5.477  0.00  0.00    +0.136 A 
ATOM     25  N   LIG    1       25.531 -30.024   5.176  0.00  0.00    -0.238 NA
ATOM     26  C   LIG    1       25.193 -30.916   6.119  0.00  0.00    +0.121 A 
ATOM     27  C   LIG    1       24.780 -30.501   7.385  0.00  0.00    +0.045 A 
ATOM     28  C   LIG    1       24.695 -29.136   7.680  0.00  0.00    +0.028 A 
BRANCH  26  29
ATOM     29  N   LIG    1       25.310 -32.290   5.899  0.00  0.00    -0.310 N 
ATOM     30  C   LIG    1       25.202 -32.714   4.487  0.00  0.00    +0.137 C 
ATOM     31  C   LIG    1       26.580 -32.735   3.784  0.00  0.00    +0.133 C 
ATOM     32  C   LIG    1       26.469 -33.365   2.398  0.00  0.00    +0.039 C 
ATOM     33  O   LIG    1       27.534 -33.518   4.527  0.00  0.00    -0.371 OA
ATOM     34  C   LIG    1       27.717 -32.965   5.845  0.00  0.00    +0.133 C 
ATOM     35  C   LIG    1       28.747 -33.825   6.565  0.00  0.00    +0.039 C 
ATOM     36  C   LIG    1       26.390 -32.971   6.626  0.00  0.00    +0.137 C 
ENDBRANCH  26  29
ENDBRANCH  20  23
ENDBRANCH   7  19
TORSDOF 6
ENDMDL
MODEL 3
REMARK VINA RESULT:      -9.1      1.222      2.188
REMARK  Name = *****
REMARK                            x       y       z     vdW  Elec       q    Type
REMARK                         _______ _______ _______ _____ _____    ______ ____
ROOT
ATOM      1  C   LIG    1       26.858 -23.075   7.650  0.00  0.00    +0.045 C 
ATOM      2  C   LIG    1       25.944 -22.449   6.623  0.00  0.00    -0.031 A 
ATOM      3  C   LIG    1       26.167 -21.113   6.154  0.00  0.00    -0.014 A 
ATOM      4  C   LIG    1       25.154 -20.533   5.350  0.00  0.00    +0.009 A 
ATOM      5  C   LIG    1       23.989 -21.208   4.999  0.00  0.00    +0.001 A 
ATOM      6  C   LIG    1       23.829 -22.526   5.385  0.00  0.00    +0.013 A 
ATOM      7  C   LIG    1       24.804 -23.169   6.166  0.00  0.00    +0.041 A 
ENDROOT
BRANCH   3   8
ATOM      8  C   LIG    1       27.377 -20.281   6.471  0.00  0.00    -0.017 A 
ATOM      9  C   LIG    1       28.095 -19.611   5.458  0.00  0.00    +0.012 A 
ATOM     10  C   LIG    1       29.243 -18.844   5.723  0.00  0.00    +0.046 A 
ATOM     11  C   LIG    1       29.672 -18.660   7.029  0.00  0.00    +0.130 A 
ATOM     12  C   LIG    1       29.009 -19.341   8.045  0.00  0.00    +0.046 A 
ATOM     13  C   LIG    1       27.905 -20.159   7.766  0.00  0.00    +0.012 A 
BRANCH  11  14
ATOM     14  O   LIG    1       30.746 -17.932   7.431  0.00  0.00    -0.406 OA
BRANCH  14  15
ATOM     15  C   LIG    1       30.942 -17.654   8.811  0.00  0.00    +0.575 C 
ATOM     16  F   LIG    1       32.055 -16.902   8.954  0.00  0.00    -0.133 F 
ATOM     17  F   LIG    1       31.139 -18.822   9.461  0.00  0.00    -0.133 F 
ATOM     18  F   LIG    1       29.914 -17.018   9.409  0.00  0.00    -0.133 F 
ENDBRANCH  14  15
ENDBRANCH  11  14
ENDBRANCH   3   8
BRANCH   7  19
ATOM     19  C   LIG    1       24.485 -24.600   6.486  0.00  0.00    +0.249 C 
ATOM     20  N   LIG    1       25.538 -25.498   6.494  0.00  0.00    -0.280 N 
ATOM     21  H   LIG    1       26.459 -25.145   6.280  0.00  0.00    +0.155 HD
ATOM     22  O   LIG    1       23.303 -24.882   6.660  0.00  0.00    -0.270 OA
BRANCH  20  23
ATOM     23  C   LIG    1       25.445 -26.893   6.720  0.00  0.00    +0.052 A 
ATOM     24  C   LIG    1       26.000 -27.448   7.869  0.00  0.00    +0.136 A 
ATOM     25  N   LIG    1       26.009 -28.774   8.169  0.00  0.00    -0.238 NA
ATOM     26  C   LIG    1       25.468 -29.621   7.281  0.00  0.00    +0.121 A 
ATOM     27  C   LIG    1       24.869 -29.151   6.114  0.00  0.00    +0.045 A 
ATOM     28  C   LIG    1       24.842 -27.779   5.844  0.00  0.00    +0.028 A 
BRANCH  26  29
ATOM     29  N   LIG    1       25.417 -30.996   7.523  0.00  0.00    -0.310 N 
ATOM     30  C   LIG    1       24.743 -31.391   8.778  0.00  0.00    +0.137 C 
ATOM     31  C   LIG    1       23.228 -31.623   8.570  0.00  0.00    +0.133 C 
ATOM     32  C   LIG    1       22.597 -32.223   9.824  0.00  0.00    +0.039 C 
ATOM     33  O   LIG    1       22.984 -32.549   7.493  0.00  0.00    -0.371 OA
ATOM     34  C   LIG    1       23.527 -32.037   6.260  0.00  0.00    +0.133 C 
ATOM     35  C   LIG    1       23.217 -33.050   5.167  0.00  0.00    +0.039 C 
ATOM     36  C   LIG    1       25.049 -31.840   6.378  0.00  0.00    +0.137 C 
ENDBRANCH  26  29
ENDBRANCH  20  23
ENDBRANCH   7  19
TORSDOF 6
ENDMDL
MODEL 4
REMARK VINA RESULT:      -8.4      3.459      4.508
REMARK  Name = *****
REMARK                            x       y       z     vdW  Elec       q    Type
REMARK                         _______ _______ _______ _____ _____    ______ ____
ROOT
ATOM      1  C   LIG    1       25.595 -20.523   5.843  0.00  0.00    +0.045 C 
ATOM      2  C   LIG    1       24.190 -20.633   5.300  0.00  0.00    -0.031 A 
ATOM      3  C   LIG    1       23.598 -19.555   4.564  0.00  0.00    -0.014 A 
ATOM      4  C   LIG    1       22.215 -19.658   4.267  0.00  0.00    +0.009 A 
ATOM      5  C   LIG    1       21.441 -20.751   4.645  0.00  0.00    +0.001 A 
ATOM      6  C   LIG    1       22.046 -21.822   5.276  0.00  0.00    +0.013 A 
ATOM      7  C   LIG    1       23.417 -21.795   5.582  0.00  0.00    +0.041 A 
ENDROOT
BRANCH   3   8
ATOM      8  C   LIG    1       24.325 -18.322   4.108  0.00  0.00    -0.017 A 
ATOM      9  C   LIG    1       23.739 -17.043   4.205  0.00  0.00    +0.012 A 
ATOM     10  C   LIG    1       24.387 -15.876   3.766  0.00  0.00    +0.046 A 
ATOM     11  C   LIG    1       25.684 -15.940   3.279  0.00  0.00    +0.130 A 
ATOM     12  C   LIG    1       26.274 -17.192   3.133  0.00  0.00    +0.046 A 
ATOM     13  C   LIG    1       25.595 -18.359   3.510  0.00  0.00    +0.012 A 
BRANCH  11  14
ATOM     14  O   LIG    1       26.436 -14.897   2.842  0.00  0.00    -0.406 OA
BRANCH  14  15
ATOM     15  C   LIG    1       27.440 -14.341   3.681  0.00  0.00    +0.575 C 
ATOM     16  F   LIG    1       28.090 -15.344   4.312  0.00  0.00    -0.133 F 
ATOM     17  F   LIG    1       26.841 -13.575   4.619  0.00  0.00    -0.133 F 
ATOM     18  F   LIG    1       28.348 -13.575   3.042  0.00  0.00    -0.133 F 
ENDBRANCH  14  15
ENDBRANCH  11  14
ENDBRANCH   3   8
BRANCH   7  19
ATOM     19  C   LIG    1       23.918 -23.040   6.253  0.00  0.00    +0.249 C 
ATOM     20  N   LIG    1       24.184 -24.132   5.446  0.00  0.00    -0.280 N 
ATOM     21  H   LIG    1       24.022 -24.035   4.454  0.00  0.00    +0.155 HD
ATOM     22  O   LIG    1       24.001 -23.018   7.478  0.00  0.00    -0.270 OA
BRANCH  20  23
ATOM     23  C   LIG    1       24.614 -25.408   5.882  0.00  0.00    +0.052 A 
ATOM     24  C   LIG    1       23.996 -26.554   5.391  0.00  0.00    +0.136 A 
ATOM     25  N   LIG    1       24.295 -27.825   5.768  0.00  0.00    -0.238 NA
ATOM     26  C   LIG    1       25.239 -27.995   6.707  0.00  0.00    +0.121 A 
ATOM     27  C   LIG    1       25.926 -26.905   7.238  0.00  0.00    +0.045 A 
ATOM     28  C   LIG    1       25.624 -25.609   6.808  0.00  0.00    +0.028 A 
BRANCH  26  29
ATOM     29  N   LIG    1       25.620 -29.268   7.134  0.00  0.00    -0.310 N 
ATOM     30  C   LIG    1       25.401 -29.545   8.569  0.00  0.00    +0.137 C 
ATOM     31  C   LIG    1       24.000 -30.147   8.833  0.00  0.00    +0.133 C 
ATOM     32  C   LIG    1       23.877 -30.608  10.283  0.00  0.00    +0.039 C 
ATOM     33  O   LIG    1       23.763 -31.300   8.003  0.00  0.00    -0.371 OA
ATOM     34  C   LIG    1       23.834 -30.938   6.611  0.00  0.00    +0.133 C 
ATOM     35  C   LIG    1       23.554 -32.193   5.795  0.00  0.00    +0.039 C 
ATOM     36  C   LIG    1       25.229 -30.386   6.263  0.00  0.00    +0.137 C 
ENDBRANCH  26  29
ENDBRANCH  20  23
ENDBRANCH   7  19
TORSDOF 6
ENDMDL
MODEL 5
REMARK VINA RESULT:      -8.2      3.141      4.011
REMARK  Name = *****
REMARK                            x       y       z     vdW  Elec       q    Type
REMARK                         _______ _______ _______ _____ _____    ______ ____
ROOT
ATOM      1  C   LIG    1       24.795 -22.780   4.433  0.00  0.00    +0.045 C 
ATOM      2  C   LIG    1       25.224 -22.448   5.842  0.00  0.00    -0.031 A 
ATOM      3  C   LIG    1       25.751 -21.155   6.167  0.00  0.00    -0.014 A 
ATOM      4  C   LIG    1       26.314 -20.993   7.458  0.00  0.00    +0.009 A 
ATOM      5  C   LIG    1       26.357 -22.018   8.398  0.00  0.00    +0.001 A 
ATOM      6  C   LIG    1       25.765 -23.232   8.102  0.00  0.00    +0.013 A 
ATOM      7  C   LIG    1       25.170 -23.454   6.849  0.00  0.00    +0.041 A 
ENDROOT
BRANCH   3   8
ATOM      8  C   LIG    1       25.770 -19.975   5.237  0.00  0.00    -0.017 A 
ATOM      9  C   LIG    1       24.593 -19.509   4.615  0.00  0.00    +0.012 A 
ATOM     10  C   LIG    1       24.585 -18.423   3.723  0.00  0.00    +0.046 A 
ATOM     11  C   LIG    1       25.752 -17.714   3.479  0.00  0.00    +0.130 A 
ATOM     12  C   LIG    1       26.937 -18.174   4.046  0.00  0.00    +0.046 A 
ATOM     13  C   LIG    1       26.948 -19.301   4.881  0.00  0.00    +0.012 A 
BRANCH  11  14
ATOM     14  O   LIG    1       25.887 -16.637   2.663  0.00  0.00    -0.406 OA
BRANCH  14  15
ATOM     15  C   LIG    1       26.159 -15.355   3.213  0.00  0.00    +0.575 C 
ATOM     16  F   LIG    1       25.203 -15.054   4.119  0.00  0.00    -0.133 F 
ATOM     17  F   LIG    1       26.098 -14.439   2.221  0.00  0.00    -0.133 F 
ATOM     18  F   LIG    1       27.365 -15.240   3.806  0.00  0.00    -0.133 F 
ENDBRANCH  14  15
ENDBRANCH  11  14
ENDBRANCH   3   8
BRANCH   7  19
ATOM     19  C   LIG    1       24.561 -24.817   6.694  0.00  0.00    +0.249 C 
ATOM     20  N   LIG    1       25.425 -25.897   6.659  0.00  0.00    -0.280 N 
ATOM     21  H   LIG    1       26.415 -25.711   6.734  0.00  0.00    +0.155 HD
ATOM     22  O   LIG    1       23.343 -24.870   6.551  0.00  0.00    -0.270 OA
BRANCH  20  23
ATOM     23  C   LIG    1       25.062 -27.252   6.470  0.00  0.00    +0.052 A 
ATOM     24  C   LIG    1       25.361 -28.194   7.449  0.00  0.00    +0.136 A 
ATOM     25  N   LIG    1       25.100 -29.525   7.358  0.00  0.00    -0.238 NA
ATOM     26  C   LIG    1       24.535 -29.977   6.228  0.00  0.00    +0.121 A 
ATOM     27  C   LIG    1       24.180 -29.101   5.204  0.00  0.00    +0.045 A 
ATOM     28  C   LIG    1       24.428 -27.731   5.336  0.00  0.00    +0.028 A 
BRANCH  26  29
ATOM     29  N   LIG    1       24.214 -31.326   6.064  0.00  0.00    -0.310 N 
ATOM     30  C   LIG    1       25.128 -32.090   5.189  0.00  0.00    +0.137 C 
ATOM     31  C   LIG    1       26.295 -32.721   5.985  0.00  0.00    +0.133 C 
ATOM     32  C   LIG    1       27.104 -33.665   5.099  0.00  0.00    +0.039 C 
ATOM     33  O   LIG    1       25.808 -33.500   7.095  0.00  0.00    -0.371 OA
ATOM     34  C   LIG    1       25.055 -32.668   7.998  0.00  0.00    +0.133 C 
ATOM     35  C   LIG    1       24.591 -33.546   9.153  0.00  0.00    +0.039 C 
ATOM     36  C   LIG    1       23.837 -32.054   7.284  0.00  0.00    +0.137 C 
ENDBRANCH  26  29
ENDBRANCH  20  23
ENDBRANCH   7  19
TORSDOF 6
ENDMDL
