MODEL 1
REMARK VINA RESULT:      -5.5      0.000      0.000
REMARK  Name = *****
REMARK                            x       y       z     vdW  Elec       q    Type
REMARK                         _______ _______ _______ _____ _____    ______ ____
ROOT
ATOM      1  C   LIG    1       26.053 -28.525   9.245  0.00  0.00    +0.165 C 
ATOM      2  N   LIG    1       26.099 -29.973   8.983  0.00  0.00    -0.288 N 
ATOM      3  C   LIG    1       25.086 -30.479   8.194  0.00  0.00    +0.237 C 
ATOM      4  O   LIG    1       24.422 -29.667   7.540  0.00  0.00    -0.274 OA
ATOM      5  C   LIG    1       27.033 -30.661   9.864  0.00  0.00    +0.112 C 
ATOM      6  C   LIG    1       27.421 -29.653  10.944  0.00  0.00    +0.012 C 
ATOM      7  C   LIG    1       26.690 -29.734  12.284  0.00  0.00    +0.005 C 
ATOM      8  C   LIG    1       26.690 -28.292  12.781  0.00  0.00    +0.001 C 
ATOM      9  C   LIG    1       26.443 -27.468  11.528  0.00  0.00    +0.006 C 
ATOM     10  C   LIG    1       27.056 -28.275  10.377  0.00  0.00    +0.023 C 
ENDROOT
BRANCH   1  13
ATOM     11  N   LIG    1       25.405 -26.713   7.717  0.00  0.00    -0.304 N 
ATOM     12  H   LIG    1       24.686 -26.570   8.415  0.00  0.00    +0.149 HD
ATOM     13  C   LIG    1       26.401 -27.603   8.047  0.00  0.00    +0.234 C 
ATOM     14  O   LIG    1       27.378 -27.813   7.328  0.00  0.00    -0.274 OA
BRANCH  11  15
ATOM     15  C   LIG    1       25.401 -25.871   6.520  0.00  0.00    +0.149 C 
BRANCH  15  16
ATOM     16  C   LIG    1       25.118 -24.406   6.909  0.00  0.00    +0.237 C 
ATOM     17  O   LIG    1       25.891 -23.690   7.529  0.00  0.00    -0.285 OA
BRANCH  16  18
ATOM     18  C   LIG    1       23.737 -23.844   6.531  0.00  0.00    +0.282 C 
ATOM     19  N   LIG    1       23.709 -22.749   5.695  0.00  0.00    -0.306 N 
ATOM     20  H   LIG    1       22.772 -22.415   5.477  0.00  0.00    +0.149 HD
ATOM     21  O   LIG    1       22.729 -24.376   6.928  0.00  0.00    -0.267 OA
BRANCH  19  22
ATOM     22  C   LIG    1       24.832 -22.011   5.247  0.00  0.00    +0.073 C 
ATOM     23  C   LIG    1       24.665 -20.756   4.437  0.00  0.00    +0.024 C 
ATOM     24  C   LIG    1       25.157 -20.673   5.852  0.00  0.00    +0.024 C 
ENDBRANCH  19  22
ENDBRANCH  16  18
ENDBRANCH  15  16
BRANCH  15  25
ATOM     25  C   LIG    1       24.369 -26.414   5.528  0.00  0.00    +0.030 C 
BRANCH  25  27
ATOM     26  C   LIG    1       26.244 -27.449   4.258  0.00  0.00    +0.004 C 
ATOM     27  C   LIG    1       24.809 -27.634   4.732  0.00  0.00    -0.001 C 
ENDBRANCH  25  27
ENDBRANCH  15  25
ENDBRANCH  11  15
ENDBRANCH   1  13
BRANCH   3  28
ATOM     28  C   LIG    1       24.629 -31.968   8.264  0.00  0.00    +0.164 C 
BRANCH  28  29
ATOM     29  C   LIG    1       24.272 -32.550   6.817  0.00  0.00    -0.011 C 
ATOM     30  C   LIG    1       25.545 -33.117   6.145  0.00  0.00    +0.013 C 
ATOM     31  C   LIG    1       23.693 -31.480   5.859  0.00  0.00    +0.013 C 
ATOM     32  C   LIG    1       23.240 -33.704   6.862  0.00  0.00    +0.013 C 
ENDBRANCH  28  29
BRANCH  28  33
ATOM     33  N   LIG    1       23.400 -31.956   9.131  0.00  0.00    -0.302 N 
ATOM     34  H   LIG    1       22.701 -31.281   8.853  0.00  0.00    +0.149 HD
ATOM     35  C   LIG    1       23.366 -32.316  10.467  0.00  0.00    +0.234 C 
ATOM     36  O   LIG    1       24.377 -32.751  11.022  0.00  0.00    -0.274 OA
BRANCH  35  37
ATOM     37  C   LIG    1       22.001 -32.110  11.259  0.00  0.00    +0.162 C 
BRANCH  37  38
ATOM     38  C   LIG    1       20.786 -31.887  10.273  0.00  0.00    +0.018 C 
ATOM     39  C   LIG    1       20.062 -33.164   9.766  0.00  0.00    +0.006 C 
ATOM     40  C   LIG    1       19.107 -33.825  10.762  0.00  0.00    +0.000 C 
ATOM     41  C   LIG    1       18.111 -32.859  11.393  0.00  0.00    +0.000 C 
ATOM     42  C   LIG    1       18.784 -31.580  11.868  0.00  0.00    +0.000 C 
ATOM     43  C   LIG    1       19.673 -30.947  10.794  0.00  0.00    +0.006 C 
ENDBRANCH  37  38
BRANCH  37  44
ATOM     44  N   LIG    1       22.148 -30.993  12.229  0.00  0.00    -0.298 N 
ATOM     45  H   LIG    1       21.811 -31.112  13.181  0.00  0.00    +0.150 HD
ATOM     46  C   LIG    1       22.762 -29.779  11.944  0.00  0.00    +0.265 C 
ATOM     47  O   LIG    1       23.278 -29.504  10.890  0.00  0.00    -0.269 OA
BRANCH  46  48
ATOM     48  C   LIG    1       22.722 -28.766  13.055  0.00  0.00    +0.143 A 
ATOM     49  N   LIG    1       23.459 -29.007  14.174  0.00  0.00    -0.247 NA
ATOM     50  C   LIG    1       23.308 -28.085  15.160  0.00  0.00    +0.131 A 
ATOM     51  C   LIG    1       22.439 -27.006  15.063  0.00  0.00    +0.130 A 
ATOM     52  N   LIG    1       21.712 -26.765  13.950  0.00  0.00    -0.260 NA
ATOM     53  C   LIG    1       21.882 -27.665  12.939  0.00  0.00    +0.143 A 
ENDBRANCH  46  48
ENDBRANCH  37  44
ENDBRANCH  35  37
ENDBRANCH  28  33
ENDBRANCH   3  28
TORSDOF 14
ENDMDL
MODEL 2
REMARK VINA RESULT:      -5.3      3.010      9.231
REMARK  Name = *****
REMARK                            x       y       z     vdW  Elec       q    Type
REMARK                         _______ _______ _______ _____ _____    ______ ____
ROOT
ATOM      1  C   LIG    1       25.354 -29.920   9.194  0.00  0.00    +0.165 C 
ATOM      2  N   LIG    1       25.357 -29.464   7.794  0.00  0.00    -0.288 N 
ATOM      3  C   LIG    1       25.272 -28.100   7.600  0.00  0.00    +0.237 C 
ATOM      4  O   LIG    1       25.504 -27.377   8.576  0.00  0.00    -0.274 OA
ATOM      5  C   LIG    1       25.133 -30.559   6.860  0.00  0.00    +0.112 C 
ATOM      6  C   LIG    1       24.690 -31.754   7.701  0.00  0.00    +0.012 C 
ATOM      7  C   LIG    1       23.191 -32.035   7.799  0.00  0.00    +0.005 C 
ATOM      8  C   LIG    1       23.033 -32.672   9.175  0.00  0.00    +0.001 C 
ATOM      9  C   LIG    1       23.986 -31.885  10.060  0.00  0.00    +0.006 C 
ATOM     10  C   LIG    1       25.126 -31.435   9.138  0.00  0.00    +0.023 C 
ENDROOT
BRANCH   1  13
ATOM     11  N   LIG    1       26.431 -28.892  11.149  0.00  0.00    -0.304 N 
ATOM     12  H   LIG    1       25.473 -28.835  11.473  0.00  0.00    +0.149 HD
ATOM     13  C   LIG    1       26.643 -29.632  10.008  0.00  0.00    +0.234 C 
ATOM     14  O   LIG    1       27.764 -29.850   9.549  0.00  0.00    -0.274 OA
BRANCH  11  15
ATOM     15  C   LIG    1       27.490 -28.325  11.985  0.00  0.00    +0.149 C 
BRANCH  15  16
ATOM     16  C   LIG    1       27.840 -29.304  13.124  0.00  0.00    +0.237 C 
ATOM     17  O   LIG    1       27.472 -30.469  13.178  0.00  0.00    -0.285 OA
BRANCH  16  18
ATOM     18  C   LIG    1       28.664 -28.738  14.294  0.00  0.00    +0.282 C 
ATOM     19  N   LIG    1       30.024 -28.954  14.269  0.00  0.00    -0.306 N 
ATOM     20  H   LIG    1       30.523 -28.562  15.066  0.00  0.00    +0.149 HD
ATOM     21  O   LIG    1       28.129 -28.102  15.169  0.00  0.00    -0.267 OA
BRANCH  19  22
ATOM     22  C   LIG    1       30.727 -29.754  13.335  0.00  0.00    +0.073 C 
ATOM     23  C   LIG    1       31.875 -29.197  12.542  0.00  0.00    +0.024 C 
ATOM     24  C   LIG    1       32.132 -30.207  13.621  0.00  0.00    +0.024 C 
ENDBRANCH  19  22
ENDBRANCH  16  18
ENDBRANCH  15  16
BRANCH  15  25
ATOM     25  C   LIG    1       27.038 -26.962  12.515  0.00  0.00    +0.030 C 
BRANCH  25  27
ATOM     26  C   LIG    1       25.357 -25.586  13.730  0.00  0.00    +0.004 C 
ATOM     27  C   LIG    1       25.593 -26.895  12.990  0.00  0.00    -0.001 C 
ENDBRANCH  25  27
ENDBRANCH  15  25
ENDBRANCH  11  15
ENDBRANCH   1  13
BRANCH   3  28
ATOM     28  C   LIG    1       24.703 -27.469   6.293  0.00  0.00    +0.164 C 
BRANCH  28  29
ATOM     29  C   LIG    1       25.723 -27.614   5.068  0.00  0.00    -0.011 C 
ATOM     30  C   LIG    1       25.507 -28.970   4.356  0.00  0.00    +0.013 C 
ATOM     31  C   LIG    1       27.208 -27.565   5.507  0.00  0.00    +0.013 C 
ATOM     32  C   LIG    1       25.547 -26.512   3.995  0.00  0.00    +0.013 C 
ENDBRANCH  28  29
BRANCH  28  33
ATOM     33  N   LIG    1       24.496 -26.017   6.621  0.00  0.00    -0.302 N 
ATOM     34  H   LIG    1       23.605 -25.645   6.319  0.00  0.00    +0.149 HD
ATOM     35  C   LIG    1       25.504 -25.079   6.755  0.00  0.00    +0.234 C 
ATOM     36  O   LIG    1       26.686 -25.419   6.676  0.00  0.00    -0.274 OA
BRANCH  35  37
ATOM     37  C   LIG    1       25.084 -23.558   6.971  0.00  0.00    +0.162 C 
BRANCH  37  38
ATOM     38  C   LIG    1       23.923 -23.133   5.989  0.00  0.00    +0.018 C 
ATOM     39  C   LIG    1       22.826 -22.201   6.574  0.00  0.00    +0.006 C 
ATOM     40  C   LIG    1       23.217 -20.729   6.719  0.00  0.00    +0.000 C 
ATOM     41  C   LIG    1       23.816 -20.124   5.456  0.00  0.00    +0.000 C 
ATOM     42  C   LIG    1       24.870 -21.030   4.836  0.00  0.00    +0.000 C 
ATOM     43  C   LIG    1       24.382 -22.471   4.667  0.00  0.00    +0.006 C 
ENDBRANCH  37  38
BRANCH  37  44
ATOM     44  N   LIG    1       26.280 -22.685   6.837  0.00  0.00    -0.298 N 
ATOM     45  H   LIG    1       26.733 -22.597   5.931  0.00  0.00    +0.150 HD
ATOM     46  C   LIG    1       26.819 -21.924   7.868  0.00  0.00    +0.265 C 
ATOM     47  O   LIG    1       26.361 -21.857   8.981  0.00  0.00    -0.269 OA
BRANCH  46  48
ATOM     48  C   LIG    1       28.079 -21.180   7.522  0.00  0.00    +0.143 A 
ATOM     49  N   LIG    1       29.154 -21.314   8.347  0.00  0.00    -0.247 NA
ATOM     50  C   LIG    1       30.225 -20.550   8.008  0.00  0.00    +0.131 A 
ATOM     51  C   LIG    1       30.218 -19.666   6.937  0.00  0.00    +0.130 A 
ATOM     52  N   LIG    1       29.153 -19.538   6.116  0.00  0.00    -0.260 NA
ATOM     53  C   LIG    1       28.083 -20.326   6.425  0.00  0.00    +0.143 A 
ENDBRANCH  46  48
ENDBRANCH  37  44
ENDBRANCH  35  37
ENDBRANCH  28  33
ENDBRANCH   3  28
TORSDOF 14
ENDMDL
MODEL 3
REMARK VINA RESULT:      -5.2      3.716      7.677
REMARK  Name = *****
REMARK                            x       y       z     vdW  Elec       q    Type
REMARK                         _______ _______ _______ _____ _____    ______ ____
ROOT
ATOM      1  C   LIG    1       25.577 -21.956   6.839  0.00  0.00    +0.165 C 
ATOM      2  N   LIG    1       25.383 -23.409   6.983  0.00  0.00    -0.288 N 
ATOM      3  C   LIG    1       26.425 -24.205   6.552  0.00  0.00    +0.237 C 
ATOM      4  O   LIG    1       27.518 -23.655   6.373  0.00  0.00    -0.274 OA
ATOM      5  C   LIG    1       23.997 -23.752   7.268  0.00  0.00    +0.112 C 
ATOM      6  C   LIG    1       23.185 -22.481   7.029  0.00  0.00    +0.012 C 
ATOM      7  C   LIG    1       22.474 -22.334   5.684  0.00  0.00    +0.005 C 
ATOM      8  C   LIG    1       22.453 -20.828   5.450  0.00  0.00    +0.001 C 
ATOM      9  C   LIG    1       23.808 -20.355   5.948  0.00  0.00    +0.006 C 
ATOM     10  C   LIG    1       24.197 -21.328   7.069  0.00  0.00    +0.023 C 
ENDROOT
BRANCH   1  13
ATOM     11  N   LIG    1       27.717 -20.800   7.187  0.00  0.00    -0.304 N 
ATOM     12  H   LIG    1       27.651 -20.671   6.185  0.00  0.00    +0.149 HD
ATOM     13  C   LIG    1       26.597 -21.304   7.809  0.00  0.00    +0.234 C 
ATOM     14  O   LIG    1       26.511 -21.436   9.029  0.00  0.00    -0.274 OA
BRANCH  11  15
ATOM     15  C   LIG    1       28.908 -20.310   7.882  0.00  0.00    +0.149 C 
BRANCH  15  16
ATOM     16  C   LIG    1       29.555 -19.167   7.074  0.00  0.00    +0.237 C 
ATOM     17  O   LIG    1       28.990 -18.529   6.197  0.00  0.00    -0.285 OA
BRANCH  16  18
ATOM     18  C   LIG    1       31.034 -18.863   7.368  0.00  0.00    +0.282 C 
ATOM     19  N   LIG    1       31.315 -18.150   8.513  0.00  0.00    -0.306 N 
ATOM     20  H   LIG    1       32.307 -17.973   8.661  0.00  0.00    +0.149 HD
ATOM     21  O   LIG    1       31.901 -19.271   6.636  0.00  0.00    -0.267 OA
BRANCH  19  22
ATOM     22  C   LIG    1       30.366 -17.560   9.385  0.00  0.00    +0.073 C 
ATOM     23  C   LIG    1       30.353 -17.884  10.853  0.00  0.00    +0.024 C 
ATOM     24  C   LIG    1       30.792 -16.526  10.390  0.00  0.00    +0.024 C 
ENDBRANCH  19  22
ENDBRANCH  16  18
ENDBRANCH  15  16
BRANCH  15  25
ATOM     25  C   LIG    1       29.874 -21.476   8.106  0.00  0.00    +0.030 C 
BRANCH  25  27
ATOM     26  C   LIG    1       31.884 -21.815   9.535  0.00  0.00    +0.004 C 
ATOM     27  C   LIG    1       30.371 -21.646   9.534  0.00  0.00    -0.001 C 
ENDBRANCH  25  27
ENDBRANCH  15  25
ENDBRANCH  11  15
ENDBRANCH   1  13
BRANCH   3  28
ATOM     28  C   LIG    1       26.222 -25.680   6.092  0.00  0.00    +0.164 C 
BRANCH  28  29
ATOM     29  C   LIG    1       25.083 -25.805   4.975  0.00  0.00    -0.011 C 
ATOM     30  C   LIG    1       25.510 -26.824   3.893  0.00  0.00    +0.013 C 
ATOM     31  C   LIG    1       24.798 -24.466   4.249  0.00  0.00    +0.013 C 
ATOM     32  C   LIG    1       23.727 -26.295   5.539  0.00  0.00    +0.013 C 
ENDBRANCH  28  29
BRANCH  28  33
ATOM     33  N   LIG    1       25.809 -26.421   7.333  0.00  0.00    -0.302 N 
ATOM     34  H   LIG    1       25.901 -25.887   8.187  0.00  0.00    +0.149 HD
ATOM     35  C   LIG    1       25.862 -27.794   7.496  0.00  0.00    +0.234 C 
ATOM     36  O   LIG    1       26.204 -28.520   6.560  0.00  0.00    -0.274 OA
BRANCH  35  37
ATOM     37  C   LIG    1       25.511 -28.390   8.930  0.00  0.00    +0.162 C 
BRANCH  37  38
ATOM     38  C   LIG    1       26.787 -28.452   9.860  0.00  0.00    +0.018 C 
ATOM     39  C   LIG    1       26.703 -27.677  11.204  0.00  0.00    +0.006 C 
ATOM     40  C   LIG    1       25.889 -28.354  12.308  0.00  0.00    +0.000 C 
ATOM     41  C   LIG    1       26.270 -29.809  12.551  0.00  0.00    +0.000 C 
ATOM     42  C   LIG    1       26.397 -30.588  11.249  0.00  0.00    +0.000 C 
ATOM     43  C   LIG    1       27.277 -29.874  10.219  0.00  0.00    +0.006 C 
ENDBRANCH  37  38
BRANCH  37  44
ATOM     44  N   LIG    1       24.865 -29.720   8.776  0.00  0.00    -0.298 N 
ATOM     45  H   LIG    1       25.247 -30.383   8.106  0.00  0.00    +0.150 HD
ATOM     46  C   LIG    1       23.777 -30.159   9.521  0.00  0.00    +0.265 C 
ATOM     47  O   LIG    1       23.253 -29.526  10.403  0.00  0.00    -0.269 OA
BRANCH  46  48
ATOM     48  C   LIG    1       23.241 -31.509   9.135  0.00  0.00    +0.143 A 
ATOM     49  N   LIG    1       23.734 -32.103   8.014  0.00  0.00    -0.247 NA
ATOM     50  C   LIG    1       23.143 -33.283   7.692  0.00  0.00    +0.131 A 
ATOM     51  C   LIG    1       22.088 -33.825   8.414  0.00  0.00    +0.130 A 
ATOM     52  N   LIG    1       21.602 -33.237   9.529  0.00  0.00    -0.260 NA
ATOM     53  C   LIG    1       22.211 -32.069   9.883  0.00  0.00    +0.143 A 
ENDBRANCH  46  48
ENDBRANCH  37  44
ENDBRANCH  35  37
ENDBRANCH  28  33
ENDBRANCH   3  28
TORSDOF 14
ENDMDL
MODEL 4
REMARK VINA RESULT:      -5.2      2.447      8.888
REMARK  Name = *****
REMARK                            x       y       z     vdW  Elec       q    Type
REMARK                         _______ _______ _______ _____ _____    ______ ____
ROOT
ATOM      1  C   LIG    1       25.088 -30.376   8.467  0.00  0.00    +0.165 C 
ATOM      2  N   LIG    1       25.251 -29.657   7.193  0.00  0.00    -0.288 N 
ATOM      3  C   LIG    1       25.017 -28.298   7.229  0.00  0.00    +0.237 C 
ATOM      4  O   LIG    1       24.993 -27.760   8.342  0.00  0.00    -0.274 OA
ATOM      5  C   LIG    1       25.325 -30.566   6.056  0.00  0.00    +0.112 C 
ATOM      6  C   LIG    1       24.918 -31.940   6.582  0.00  0.00    +0.012 C 
ATOM      7  C   LIG    1       23.473 -32.386   6.357  0.00  0.00    +0.005 C 
ATOM      8  C   LIG    1       23.186 -33.292   7.550  0.00  0.00    +0.001 C 
ATOM      9  C   LIG    1       23.875 -32.601   8.715  0.00  0.00    +0.006 C 
ATOM     10  C   LIG    1       25.076 -31.866   8.106  0.00  0.00    +0.023 C 
ENDROOT
BRANCH   1  13
ATOM     11  N   LIG    1       25.699 -29.635  10.729  0.00  0.00    -0.304 N 
ATOM     12  H   LIG    1       24.702 -29.731  10.879  0.00  0.00    +0.149 HD
ATOM     13  C   LIG    1       26.183 -30.124   9.538  0.00  0.00    +0.234 C 
ATOM     14  O   LIG    1       27.382 -30.144   9.258  0.00  0.00    -0.274 OA
BRANCH  11  15
ATOM     15  C   LIG    1       26.530 -29.136  11.826  0.00  0.00    +0.149 C 
BRANCH  15  16
ATOM     16  C   LIG    1       25.925 -29.562  13.179  0.00  0.00    +0.237 C 
ATOM     17  O   LIG    1       26.527 -29.558  14.243  0.00  0.00    -0.285 OA
BRANCH  16  18
ATOM     18  C   LIG    1       24.477 -30.081  13.156  0.00  0.00    +0.282 C 
ATOM     19  N   LIG    1       23.480 -29.180  13.463  0.00  0.00    -0.306 N 
ATOM     20  H   LIG    1       22.541 -29.574  13.436  0.00  0.00    +0.149 HD
ATOM     21  O   LIG    1       24.239 -31.221  12.843  0.00  0.00    -0.267 OA
BRANCH  19  22
ATOM     22  C   LIG    1       23.665 -27.852  13.921  0.00  0.00    +0.073 C 
ATOM     23  C   LIG    1       22.912 -26.706  13.306  0.00  0.00    +0.024 C 
ATOM     24  C   LIG    1       22.584 -27.155  14.699  0.00  0.00    +0.024 C 
ENDBRANCH  19  22
ENDBRANCH  16  18
ENDBRANCH  15  16
BRANCH  15  25
ATOM     25  C   LIG    1       26.661 -27.616  11.706  0.00  0.00    +0.030 C 
BRANCH  25  27
ATOM     26  C   LIG    1       26.427 -25.577  13.116  0.00  0.00    +0.004 C 
ATOM     27  C   LIG    1       27.157 -26.904  12.956  0.00  0.00    -0.001 C 
ENDBRANCH  25  27
ENDBRANCH  15  25
ENDBRANCH  11  15
ENDBRANCH   1  13
BRANCH   3  28
ATOM     28  C   LIG    1       24.582 -27.484   5.972  0.00  0.00    +0.164 C 
BRANCH  28  29
ATOM     29  C   LIG    1       25.696 -27.521   4.824  0.00  0.00    -0.011 C 
ATOM     30  C   LIG    1       25.558 -28.818   3.993  0.00  0.00    +0.013 C 
ATOM     31  C   LIG    1       27.141 -27.492   5.380  0.00  0.00    +0.013 C 
ATOM     32  C   LIG    1       25.585 -26.340   3.829  0.00  0.00    +0.013 C 
ENDBRANCH  28  29
BRANCH  28  33
ATOM     33  N   LIG    1       24.398 -26.076   6.466  0.00  0.00    -0.302 N 
ATOM     34  H   LIG    1       23.557 -25.625   6.130  0.00  0.00    +0.149 HD
ATOM     35  C   LIG    1       25.422 -25.215   6.817  0.00  0.00    +0.234 C 
ATOM     36  O   LIG    1       26.592 -25.602   6.808  0.00  0.00    -0.274 OA
BRANCH  35  37
ATOM     37  C   LIG    1       25.041 -23.715   7.188  0.00  0.00    +0.162 C 
BRANCH  37  38
ATOM     38  C   LIG    1       23.792 -23.212   6.361  0.00  0.00    +0.018 C 
ATOM     39  C   LIG    1       22.900 -22.135   7.037  0.00  0.00    +0.006 C 
ATOM     40  C   LIG    1       23.458 -20.711   7.023  0.00  0.00    +0.000 C 
ATOM     41  C   LIG    1       23.916 -20.242   5.647  0.00  0.00    +0.000 C 
ATOM     42  C   LIG    1       24.763 -21.291   4.942  0.00  0.00    +0.000 C 
ATOM     43  C   LIG    1       24.108 -22.675   4.945  0.00  0.00    +0.006 C 
ENDBRANCH  37  38
BRANCH  37  44
ATOM     44  N   LIG    1       26.225 -22.836   7.003  0.00  0.00    -0.298 N 
ATOM     45  H   LIG    1       26.704 -22.829   6.106  0.00  0.00    +0.150 HD
ATOM     46  C   LIG    1       26.722 -21.969   7.970  0.00  0.00    +0.265 C 
ATOM     47  O   LIG    1       26.229 -21.803   9.057  0.00  0.00    -0.269 OA
BRANCH  46  48
ATOM     48  C   LIG    1       27.979 -21.239   7.588  0.00  0.00    +0.143 A 
ATOM     49  N   LIG    1       29.076 -21.386   8.381  0.00  0.00    -0.247 NA
ATOM     50  C   LIG    1       30.146 -20.633   8.013  0.00  0.00    +0.131 A 
ATOM     51  C   LIG    1       30.118 -19.748   6.943  0.00  0.00    +0.130 A 
ATOM     52  N   LIG    1       29.030 -19.606   6.154  0.00  0.00    -0.260 NA
ATOM     53  C   LIG    1       27.961 -20.383   6.493  0.00  0.00    +0.143 A 
ENDBRANCH  46  48
ENDBRANCH  37  44
ENDBRANCH  35  37
ENDBRANCH  28  33
ENDBRANCH   3  28
TORSDOF 14
ENDMDL
MODEL 5
REMARK VINA RESULT:      -5.1      2.690      7.858
REMARK  Name = *****
REMARK                            x       y       z     vdW  Elec       q    Type
REMARK                         _______ _______ _______ _____ _____    ______ ____
ROOT
ATOM      1  C   LIG    1       24.044 -28.858  12.608  0.00  0.00    +0.165 C 
ATOM      2  N   LIG    1       23.587 -30.094  11.952  0.00  0.00    -0.288 N 
ATOM      3  C   LIG    1       24.337 -30.522  10.875  0.00  0.00    +0.237 C 
ATOM      4  O   LIG    1       25.464 -30.029  10.742  0.00  0.00    -0.274 OA
ATOM      5  C   LIG    1       22.243 -30.471  12.366  0.00  0.00    +0.112 C 
ATOM      6  C   LIG    1       21.680 -29.273  13.129  0.00  0.00    +0.012 C 
ATOM      7  C   LIG    1       20.766 -28.313  12.367  0.00  0.00    +0.005 C 
ATOM      8  C   LIG    1       21.011 -26.970  13.046  0.00  0.00    +0.001 C 
ATOM      9  C   LIG    1       22.505 -26.959  13.320  0.00  0.00    +0.006 C 
ATOM     10  C   LIG    1       22.896 -28.427  13.529  0.00  0.00    +0.023 C 
ENDROOT
BRANCH   1  13
ATOM     11  N   LIG    1       26.195 -27.895  13.305  0.00  0.00    -0.304 N 
ATOM     12  H   LIG    1       25.792 -27.058  12.903  0.00  0.00    +0.149 HD
ATOM     13  C   LIG    1       25.347 -28.970  13.443  0.00  0.00    +0.234 C 
ATOM     14  O   LIG    1       25.682 -30.022  13.988  0.00  0.00    -0.274 OA
BRANCH  11  15
ATOM     15  C   LIG    1       27.561 -27.837  13.827  0.00  0.00    +0.149 C 
BRANCH  15  16
ATOM     16  C   LIG    1       28.240 -29.213  13.673  0.00  0.00    +0.237 C 
ATOM     17  O   LIG    1       28.202 -30.106  14.508  0.00  0.00    -0.285 OA
BRANCH  16  18
ATOM     18  C   LIG    1       29.066 -29.437  12.394  0.00  0.00    +0.282 C 
ATOM     19  N   LIG    1       30.429 -29.577  12.541  0.00  0.00    -0.306 N 
ATOM     20  H   LIG    1       30.929 -29.720  11.665  0.00  0.00    +0.149 HD
ATOM     21  O   LIG    1       28.523 -29.523  11.320  0.00  0.00    -0.267 OA
BRANCH  19  22
ATOM     22  C   LIG    1       31.162 -29.410  13.741  0.00  0.00    +0.073 C 
ATOM     23  C   LIG    1       32.493 -30.080  13.939  0.00  0.00    +0.024 C 
ATOM     24  C   LIG    1       32.424 -28.592  13.759  0.00  0.00    +0.024 C 
ENDBRANCH  19  22
ENDBRANCH  16  18
ENDBRANCH  15  16
BRANCH  15  25
ATOM     25  C   LIG    1       27.524 -27.373  15.285  0.00  0.00    +0.030 C 
BRANCH  25  27
ATOM     26  C   LIG    1       28.027 -25.207  14.166  0.00  0.00    +0.004 C 
ATOM     27  C   LIG    1       27.733 -25.881  15.499  0.00  0.00    -0.001 C 
ENDBRANCH  25  27
ENDBRANCH  15  25
ENDBRANCH  11  15
ENDBRANCH   1  13
BRANCH   3  28
ATOM     28  C   LIG    1       23.748 -31.412   9.739  0.00  0.00    +0.164 C 
BRANCH  28  29
ATOM     29  C   LIG    1       24.184 -32.944   9.896  0.00  0.00    -0.011 C 
ATOM     30  C   LIG    1       23.485 -33.571  11.125  0.00  0.00    +0.013 C 
ATOM     31  C   LIG    1       25.709 -33.121  10.102  0.00  0.00    +0.013 C 
ATOM     32  C   LIG    1       23.803 -33.814   8.673  0.00  0.00    +0.013 C 
ENDBRANCH  28  29
BRANCH  28  33
ATOM     33  N   LIG    1       24.312 -30.844   8.467  0.00  0.00    -0.302 N 
ATOM     34  H   LIG    1       24.747 -29.937   8.574  0.00  0.00    +0.149 HD
ATOM     35  C   LIG    1       23.845 -31.121   7.195  0.00  0.00    +0.234 C 
ATOM     36  O   LIG    1       22.941 -31.942   7.028  0.00  0.00    -0.274 OA
BRANCH  35  37
ATOM     37  C   LIG    1       24.481 -30.320   5.975  0.00  0.00    +0.162 C 
BRANCH  37  38
ATOM     38  C   LIG    1       25.920 -30.862   5.613  0.00  0.00    +0.018 C 
ATOM     39  C   LIG    1       26.493 -31.974   6.534  0.00  0.00    +0.006 C 
ATOM     40  C   LIG    1       25.928 -33.378   6.308  0.00  0.00    +0.000 C 
ATOM     41  C   LIG    1       25.951 -33.823   4.850  0.00  0.00    +0.000 C 
ATOM     42  C   LIG    1       25.429 -32.741   3.917  0.00  0.00    +0.000 C 
ATOM     43  C   LIG    1       26.088 -31.381   4.165  0.00  0.00    +0.006 C 
ENDBRANCH  37  38
BRANCH  37  44
ATOM     44  N   LIG    1       24.492 -28.865   6.283  0.00  0.00    -0.298 N 
ATOM     45  H   LIG    1       23.875 -28.505   7.006  0.00  0.00    +0.150 HD
ATOM     46  C   LIG    1       25.329 -27.938   5.674  0.00  0.00    +0.265 C 
ATOM     47  O   LIG    1       26.167 -28.209   4.851  0.00  0.00    -0.269 OA
BRANCH  46  48
ATOM     48  C   LIG    1       25.107 -26.509   6.085  0.00  0.00    +0.143 A 
ATOM     49  N   LIG    1       23.826 -26.058   6.184  0.00  0.00    -0.247 NA
ATOM     50  C   LIG    1       23.713 -24.737   6.484  0.00  0.00    +0.131 A 
ATOM     51  C   LIG    1       24.808 -23.897   6.634  0.00  0.00    +0.130 A 
ATOM     52  N   LIG    1       26.079 -24.347   6.541  0.00  0.00    -0.260 NA
ATOM     53  C   LIG    1       26.206 -25.679   6.274  0.00  0.00    +0.143 A 
ENDBRANCH  46  48
ENDBRANCH  37  44
ENDBRANCH  35  37
ENDBRANCH  28  33
ENDBRANCH   3  28
TORSDOF 14
ENDMDL
MODEL 6
REMARK VINA RESULT:      -5.0      2.933      6.785
REMARK  Name = *****
REMARK                            x       y       z     vdW  Elec       q    Type
REMARK                         _______ _______ _______ _____ _____    ______ ____
ROOT
ATOM      1  C   LIG    1       22.544 -32.937   9.987  0.00  0.00    +0.165 C 
ATOM      2  N   LIG    1       22.644 -32.095  11.191  0.00  0.00    -0.288 N 
ATOM      3  C   LIG    1       23.606 -32.462  12.110  0.00  0.00    +0.237 C 
ATOM      4  O   LIG    1       24.480 -33.249  11.727  0.00  0.00    -0.274 OA
ATOM      5  C   LIG    1       21.497 -31.210  11.337  0.00  0.00    +0.112 C 
ATOM      6  C   LIG    1       20.458 -31.686  10.324  0.00  0.00    +0.012 C 
ATOM      7  C   LIG    1       19.339 -32.596  10.831  0.00  0.00    +0.005 C 
ATOM      8  C   LIG    1       19.001 -33.459   9.619  0.00  0.00    +0.001 C 
ATOM      9  C   LIG    1       20.350 -33.752   8.984  0.00  0.00    +0.006 C 
ATOM     10  C   LIG    1       21.230 -32.537   9.307  0.00  0.00    +0.023 C 
ENDROOT
BRANCH   1  13
ATOM     11  N   LIG    1       24.259 -31.548   8.905  0.00  0.00    -0.304 N 
ATOM     12  H   LIG    1       24.050 -30.931   9.680  0.00  0.00    +0.149 HD
ATOM     13  C   LIG    1       23.703 -32.806   8.964  0.00  0.00    +0.234 C 
ATOM     14  O   LIG    1       23.938 -33.682   8.131  0.00  0.00    -0.274 OA
BRANCH  11  15
ATOM     15  C   LIG    1       25.227 -31.110   7.898  0.00  0.00    +0.149 C 
BRANCH  15  16
ATOM     16  C   LIG    1       24.496 -30.749   6.589  0.00  0.00    +0.237 C 
ATOM     17  O   LIG    1       23.288 -30.840   6.419  0.00  0.00    -0.285 OA
BRANCH  16  18
ATOM     18  C   LIG    1       25.373 -30.300   5.409  0.00  0.00    +0.282 C 
ATOM     19  N   LIG    1       25.793 -28.988   5.399  0.00  0.00    -0.306 N 
ATOM     20  H   LIG    1       26.369 -28.740   4.596  0.00  0.00    +0.149 HD
ATOM     21  O   LIG    1       25.701 -31.086   4.554  0.00  0.00    -0.267 OA
BRANCH  19  22
ATOM     22  C   LIG    1       25.395 -27.975   6.307  0.00  0.00    +0.073 C 
ATOM     23  C   LIG    1       25.854 -26.554   6.138  0.00  0.00    +0.024 C 
ATOM     24  C   LIG    1       24.419 -26.912   5.885  0.00  0.00    +0.024 C 
ENDBRANCH  19  22
ENDBRANCH  16  18
ENDBRANCH  15  16
BRANCH  15  25
ATOM     25  C   LIG    1       26.270 -32.210   7.692  0.00  0.00    +0.030 C 
BRANCH  25  27
ATOM     26  C   LIG    1       27.614 -33.815   9.040  0.00  0.00    +0.004 C 
ATOM     27  C   LIG    1       27.304 -32.344   8.801  0.00  0.00    -0.001 C 
ENDBRANCH  25  27
ENDBRANCH  15  25
ENDBRANCH  11  15
ENDBRANCH   1  13
BRANCH   3  28
ATOM     28  C   LIG    1       23.506 -32.100  13.623  0.00  0.00    +0.164 C 
BRANCH  28  29
ATOM     29  C   LIG    1       22.324 -32.897  14.349  0.00  0.00    -0.011 C 
ATOM     30  C   LIG    1       21.314 -31.902  14.966  0.00  0.00    +0.013 C 
ATOM     31  C   LIG    1       22.825 -33.806  15.500  0.00  0.00    +0.013 C 
ATOM     32  C   LIG    1       21.522 -33.809  13.388  0.00  0.00    +0.013 C 
ENDBRANCH  28  29
BRANCH  28  33
ATOM     33  N   LIG    1       23.224 -30.623  13.651  0.00  0.00    -0.302 N 
ATOM     34  H   LIG    1       22.848 -30.255  12.788  0.00  0.00    +0.149 HD
ATOM     35  C   LIG    1       23.891 -29.701  14.438  0.00  0.00    +0.234 C 
ATOM     36  O   LIG    1       24.745 -30.072  15.245  0.00  0.00    -0.274 OA
BRANCH  35  37
ATOM     37  C   LIG    1       23.547 -28.160  14.233  0.00  0.00    +0.162 C 
BRANCH  37  38
ATOM     38  C   LIG    1       24.502 -27.235  15.088  0.00  0.00    +0.018 C 
ATOM     39  C   LIG    1       26.028 -27.442  14.888  0.00  0.00    +0.006 C 
ATOM     40  C   LIG    1       26.617 -26.837  13.613  0.00  0.00    +0.000 C 
ATOM     41  C   LIG    1       26.240 -25.377  13.393  0.00  0.00    +0.000 C 
ATOM     42  C   LIG    1       24.755 -25.133  13.617  0.00  0.00    +0.000 C 
ATOM     43  C   LIG    1       24.256 -25.715  14.943  0.00  0.00    +0.006 C 
ENDBRANCH  37  38
BRANCH  37  44
ATOM     44  N   LIG    1       22.113 -27.921  14.542  0.00  0.00    -0.298 N 
ATOM     45  H   LIG    1       21.837 -27.716  15.498  0.00  0.00    +0.150 HD
ATOM     46  C   LIG    1       21.094 -27.916  13.596  0.00  0.00    +0.265 C 
ATOM     47  O   LIG    1       21.259 -28.069  12.412  0.00  0.00    -0.269 OA
BRANCH  46  48
ATOM     48  C   LIG    1       19.708 -27.734  14.150  0.00  0.00    +0.143 A 
ATOM     49  N   LIG    1       19.102 -28.803  14.734  0.00  0.00    -0.247 NA
ATOM     50  C   LIG    1       17.824 -28.578  15.138  0.00  0.00    +0.131 A 
ATOM     51  C   LIG    1       17.165 -27.373  14.934  0.00  0.00    +0.130 A 
ATOM     52  N   LIG    1       17.770 -26.310  14.358  0.00  0.00    -0.260 NA
ATOM     53  C   LIG    1       19.065 -26.513  13.980  0.00  0.00    +0.143 A 
ENDBRANCH  46  48
ENDBRANCH  37  44
ENDBRANCH  35  37
ENDBRANCH  28  33
ENDBRANCH   3  28
TORSDOF 14
ENDMDL
MODEL 7
REMARK VINA RESULT:      -4.7      2.642      7.584
REMARK  Name = *****
REMARK                            x       y       z     vdW  Elec       q    Type
REMARK                         _______ _______ _______ _____ _____    ______ ____
ROOT
ATOM      1  C   LIG    1       23.343 -28.332  13.249  0.00  0.00    +0.165 C 
ATOM      2  N   LIG    1       22.765 -29.655  12.959  0.00  0.00    -0.288 N 
ATOM      3  C   LIG    1       23.448 -30.428  12.044  0.00  0.00    +0.237 C 
ATOM      4  O   LIG    1       24.610 -30.095  11.780  0.00  0.00    -0.274 OA
ATOM      5  C   LIG    1       21.403 -29.779  13.460  0.00  0.00    +0.112 C 
ATOM      6  C   LIG    1       20.965 -28.372  13.861  0.00  0.00    +0.012 C 
ATOM      7  C   LIG    1       20.120 -27.581  12.863  0.00  0.00    +0.005 C 
ATOM      8  C   LIG    1       20.497 -26.130  13.143  0.00  0.00    +0.001 C 
ATOM      9  C   LIG    1       21.993 -26.179  13.405  0.00  0.00    +0.006 C 
ATOM     10  C   LIG    1       22.260 -27.562  14.012  0.00  0.00    +0.023 C 
ENDROOT
BRANCH   1  13
ATOM     11  N   LIG    1       25.718 -27.733  13.448  0.00  0.00    -0.304 N 
ATOM     12  H   LIG    1       25.495 -27.151  12.651  0.00  0.00    +0.149 HD
ATOM     13  C   LIG    1       24.651 -28.326  14.083  0.00  0.00    +0.234 C 
ATOM     14  O   LIG    1       24.769 -28.994  15.111  0.00  0.00    -0.274 OA
BRANCH  11  15
ATOM     15  C   LIG    1       27.100 -27.765  13.931  0.00  0.00    +0.149 C 
BRANCH  15  16
ATOM     16  C   LIG    1       27.628 -29.214  13.910  0.00  0.00    +0.237 C 
ATOM     17  O   LIG    1       27.164 -30.133  14.570  0.00  0.00    -0.285 OA
BRANCH  16  18
ATOM     18  C   LIG    1       28.863 -29.487  13.035  0.00  0.00    +0.282 C 
ATOM     19  N   LIG    1       28.660 -29.601  11.677  0.00  0.00    -0.306 N 
ATOM     20  H   LIG    1       29.508 -29.784  11.143  0.00  0.00    +0.149 HD
ATOM     21  O   LIG    1       29.961 -29.559  13.529  0.00  0.00    -0.267 OA
BRANCH  19  22
ATOM     22  C   LIG    1       27.406 -29.614  11.017  0.00  0.00    +0.073 C 
ATOM     23  C   LIG    1       27.306 -29.392   9.534  0.00  0.00    +0.024 C 
ATOM     24  C   LIG    1       27.035 -30.752  10.107  0.00  0.00    +0.024 C 
ENDBRANCH  19  22
ENDBRANCH  16  18
ENDBRANCH  15  16
BRANCH  15  25
ATOM     25  C   LIG    1       27.158 -27.150  15.331  0.00  0.00    +0.030 C 
BRANCH  25  27
ATOM     26  C   LIG    1       27.577 -24.795  14.642  0.00  0.00    +0.004 C 
ATOM     27  C   LIG    1       28.091 -25.957  15.480  0.00  0.00    -0.001 C 
ENDBRANCH  25  27
ENDBRANCH  15  25
ENDBRANCH  11  15
ENDBRANCH   1  13
BRANCH   3  28
ATOM     28  C   LIG    1       22.757 -31.540  11.198  0.00  0.00    +0.164 C 
BRANCH  28  29
ATOM     29  C   LIG    1       22.932 -32.987  11.859  0.00  0.00    -0.011 C 
ATOM     30  C   LIG    1       23.999 -33.797  11.086  0.00  0.00    +0.013 C 
ATOM     31  C   LIG    1       21.629 -33.823  11.841  0.00  0.00    +0.013 C 
ATOM     32  C   LIG    1       23.397 -32.931  13.335  0.00  0.00    +0.013 C 
ENDBRANCH  28  29
BRANCH  28  33
ATOM     33  N   LIG    1       23.445 -31.497   9.862  0.00  0.00    -0.302 N 
ATOM     34  H   LIG    1       24.112 -30.744   9.762  0.00  0.00    +0.149 HD
ATOM     35  C   LIG    1       22.909 -31.964   8.675  0.00  0.00    +0.234 C 
ATOM     36  O   LIG    1       21.813 -32.528   8.665  0.00  0.00    -0.274 OA
BRANCH  35  37
ATOM     37  C   LIG    1       23.730 -31.710   7.335  0.00  0.00    +0.162 C 
BRANCH  37  38
ATOM     38  C   LIG    1       24.884 -32.774   7.153  0.00  0.00    +0.018 C 
ATOM     39  C   LIG    1       24.691 -33.819   6.020  0.00  0.00    +0.006 C 
ATOM     40  C   LIG    1       24.958 -33.314   4.601  0.00  0.00    +0.000 C 
ATOM     41  C   LIG    1       26.293 -32.594   4.445  0.00  0.00    +0.000 C 
ATOM     42  C   LIG    1       26.530 -31.588   5.561  0.00  0.00    +0.000 C 
ATOM     43  C   LIG    1       26.301 -32.187   6.952  0.00  0.00    +0.006 C 
ENDBRANCH  37  38
BRANCH  37  44
ATOM     44  N   LIG    1       24.246 -30.316   7.320  0.00  0.00    -0.298 N 
ATOM     45  H   LIG    1       24.798 -29.981   8.106  0.00  0.00    +0.150 HD
ATOM     46  C   LIG    1       24.067 -29.421   6.272  0.00  0.00    +0.265 C 
ATOM     47  O   LIG    1       23.502 -29.681   5.239  0.00  0.00    -0.269 OA
BRANCH  46  48
ATOM     48  C   LIG    1       24.607 -28.038   6.512  0.00  0.00    +0.143 A 
ATOM     49  N   LIG    1       23.843 -26.974   6.141  0.00  0.00    -0.247 NA
ATOM     50  C   LIG    1       24.434 -25.764   6.320  0.00  0.00    +0.131 A 
ATOM     51  C   LIG    1       25.729 -25.616   6.798  0.00  0.00    +0.130 A 
ATOM     52  N   LIG    1       26.485 -26.672   7.170  0.00  0.00    -0.260 NA
ATOM     53  C   LIG    1       25.889 -27.891   7.029  0.00  0.00    +0.143 A 
ENDBRANCH  46  48
ENDBRANCH  37  44
ENDBRANCH  35  37
ENDBRANCH  28  33
ENDBRANCH   3  28
TORSDOF 14
ENDMDL
MODEL 8
REMARK VINA RESULT:      -4.4      2.486      4.524
REMARK  Name = *****
REMARK                            x       y       z     vdW  Elec       q    Type
REMARK                         _______ _______ _______ _____ _____    ______ ____
ROOT
ATOM      1  C   LIG    1       25.950 -28.286   6.931  0.00  0.00    +0.165 C 
ATOM      2  N   LIG    1       25.419 -28.798   8.205  0.00  0.00    -0.288 N 
ATOM      3  C   LIG    1       26.298 -28.806   9.269  0.00  0.00    +0.237 C 
ATOM      4  O   LIG    1       27.323 -28.124   9.158  0.00  0.00    -0.274 OA
ATOM      5  C   LIG    1       24.153 -29.497   8.030  0.00  0.00    +0.112 C 
ATOM      6  C   LIG    1       23.976 -29.690   6.526  0.00  0.00    +0.012 C 
ATOM      7  C   LIG    1       24.368 -31.043   5.934  0.00  0.00    +0.005 C 
ATOM      8  C   LIG    1       24.812 -30.701   4.515  0.00  0.00    +0.001 C 
ATOM      9  C   LIG    1       25.570 -29.393   4.670  0.00  0.00    +0.006 C 
ATOM     10  C   LIG    1       24.923 -28.680   5.863  0.00  0.00    +0.023 C 
ENDROOT
BRANCH   1  13
ATOM     11  N   LIG    1       25.198 -26.002   7.439  0.00  0.00    -0.304 N 
ATOM     12  H   LIG    1       24.568 -26.497   8.059  0.00  0.00    +0.149 HD
ATOM     13  C   LIG    1       26.193 -26.755   6.859  0.00  0.00    +0.234 C 
ATOM     14  O   LIG    1       27.074 -26.270   6.149  0.00  0.00    -0.274 OA
BRANCH  11  15
ATOM     15  C   LIG    1       25.088 -24.546   7.340  0.00  0.00    +0.149 C 
BRANCH  15  16
ATOM     16  C   LIG    1       24.002 -24.172   6.310  0.00  0.00    +0.237 C 
ATOM     17  O   LIG    1       22.811 -24.063   6.563  0.00  0.00    -0.285 OA
BRANCH  16  18
ATOM     18  C   LIG    1       24.466 -23.981   4.856  0.00  0.00    +0.282 C 
ATOM     19  N   LIG    1       24.511 -22.691   4.373  0.00  0.00    -0.306 N 
ATOM     20  H   LIG    1       24.821 -22.619   3.405  0.00  0.00    +0.149 HD
ATOM     21  O   LIG    1       24.807 -24.928   4.192  0.00  0.00    -0.267 OA
BRANCH  19  22
ATOM     22  C   LIG    1       24.053 -21.530   5.044  0.00  0.00    +0.073 C 
ATOM     23  C   LIG    1       24.952 -20.342   5.242  0.00  0.00    +0.024 C 
ATOM     24  C   LIG    1       23.800 -20.258   4.284  0.00  0.00    +0.024 C 
ENDBRANCH  19  22
ENDBRANCH  16  18
ENDBRANCH  15  16
BRANCH  15  25
ATOM     25  C   LIG    1       26.454 -23.963   6.975  0.00  0.00    +0.030 C 
BRANCH  25  27
ATOM     26  C   LIG    1       25.636 -22.154   8.477  0.00  0.00    +0.004 C 
ATOM     27  C   LIG    1       26.717 -22.552   7.482  0.00  0.00    -0.001 C 
ENDBRANCH  25  27
ENDBRANCH  15  25
ENDBRANCH  11  15
ENDBRANCH   1  13
BRANCH   3  28
ATOM     28  C   LIG    1       26.150 -29.781  10.476  0.00  0.00    +0.164 C 
BRANCH  28  29
ATOM     29  C   LIG    1       25.657 -31.232  10.013  0.00  0.00    -0.011 C 
ATOM     30  C   LIG    1       26.378 -31.646   8.709  0.00  0.00    +0.013 C 
ATOM     31  C   LIG    1       24.136 -31.291   9.728  0.00  0.00    +0.013 C 
ATOM     32  C   LIG    1       25.951 -32.337  11.057  0.00  0.00    +0.013 C 
ENDBRANCH  28  29
BRANCH  28  33
ATOM     33  N   LIG    1       25.117 -29.146  11.365  0.00  0.00    -0.302 N 
ATOM     34  H   LIG    1       24.691 -28.314  10.979  0.00  0.00    +0.149 HD
ATOM     35  C   LIG    1       25.101 -29.223  12.747  0.00  0.00    +0.234 C 
ATOM     36  O   LIG    1       25.934 -29.907  13.343  0.00  0.00    -0.274 OA
BRANCH  35  37
ATOM     37  C   LIG    1       24.005 -28.372  13.528  0.00  0.00    +0.162 C 
BRANCH  37  38
ATOM     38  C   LIG    1       22.790 -27.993  12.591  0.00  0.00    +0.018 C 
ATOM     39  C   LIG    1       21.768 -29.124  12.291  0.00  0.00    +0.006 C 
ATOM     40  C   LIG    1       20.779 -29.439  13.415  0.00  0.00    +0.000 C 
ATOM     41  C   LIG    1       20.071 -28.211  13.973  0.00  0.00    +0.000 C 
ATOM     42  C   LIG    1       21.040 -27.070  14.245  0.00  0.00    +0.000 C 
ATOM     43  C   LIG    1       21.953 -26.776  13.051  0.00  0.00    +0.006 C 
ENDBRANCH  37  38
BRANCH  37  44
ATOM     44  N   LIG    1       24.640 -27.172  14.133  0.00  0.00    -0.298 N 
ATOM     45  H   LIG    1       24.353 -26.872  15.061  0.00  0.00    +0.150 HD
ATOM     46  C   LIG    1       25.653 -26.431  13.536  0.00  0.00    +0.265 C 
ATOM     47  O   LIG    1       26.158 -26.694  12.473  0.00  0.00    -0.269 OA
BRANCH  46  48
ATOM     48  C   LIG    1       26.086 -25.209  14.298  0.00  0.00    +0.143 A 
ATOM     49  N   LIG    1       25.128 -24.445  14.891  0.00  0.00    -0.247 NA
ATOM     50  C   LIG    1       25.593 -23.319  15.492  0.00  0.00    +0.131 A 
ATOM     51  C   LIG    1       26.930 -22.945  15.470  0.00  0.00    +0.130 A 
ATOM     52  N   LIG    1       27.881 -23.707  14.885  0.00  0.00    -0.260 NA
ATOM     53  C   LIG    1       27.431 -24.858  14.308  0.00  0.00    +0.143 A 
ENDBRANCH  46  48
ENDBRANCH  37  44
ENDBRANCH  35  37
ENDBRANCH  28  33
ENDBRANCH   3  28
TORSDOF 14
ENDMDL
MODEL 9
REMARK VINA RESULT:      -4.2      2.926      8.015
REMARK  Name = *****
REMARK                            x       y       z     vdW  Elec       q    Type
REMARK                         _______ _______ _______ _____ _____    ______ ____
ROOT
ATOM      1  C   LIG    1       23.224 -28.306  13.155  0.00  0.00    +0.165 C 
ATOM      2  N   LIG    1       22.584 -29.618  12.967  0.00  0.00    -0.288 N 
ATOM      3  C   LIG    1       23.195 -30.468  12.068  0.00  0.00    +0.237 C 
ATOM      4  O   LIG    1       24.355 -30.197  11.735  0.00  0.00    -0.274 OA
ATOM      5  C   LIG    1       21.243 -29.660  13.534  0.00  0.00    +0.112 C 
ATOM      6  C   LIG    1       20.877 -28.216  13.873  0.00  0.00    +0.012 C 
ATOM      7  C   LIG    1       20.018 -27.448  12.869  0.00  0.00    +0.005 C 
ATOM      8  C   LIG    1       20.461 -26.000  13.049  0.00  0.00    +0.001 C 
ATOM      9  C   LIG    1       21.965 -26.095  13.247  0.00  0.00    +0.006 C 
ATOM     10  C   LIG    1       22.207 -27.452  13.920  0.00  0.00    +0.023 C 
ENDROOT
BRANCH   1  13
ATOM     11  N   LIG    1       25.597 -27.676  13.267  0.00  0.00    -0.304 N 
ATOM     12  H   LIG    1       25.330 -27.072  12.500  0.00  0.00    +0.149 HD
ATOM     13  C   LIG    1       24.569 -28.307  13.929  0.00  0.00    +0.234 C 
ATOM     14  O   LIG    1       24.743 -29.005  14.928  0.00  0.00    -0.274 OA
BRANCH  11  15
ATOM     15  C   LIG    1       27.000 -27.702  13.685  0.00  0.00    +0.149 C 
BRANCH  15  16
ATOM     16  C   LIG    1       27.423 -29.149  14.008  0.00  0.00    +0.237 C 
ATOM     17  O   LIG    1       28.079 -29.481  14.985  0.00  0.00    -0.285 OA
BRANCH  16  18
ATOM     18  C   LIG    1       27.032 -30.229  12.984  0.00  0.00    +0.282 C 
ATOM     19  N   LIG    1       26.444 -31.375  13.471  0.00  0.00    -0.306 N 
ATOM     20  H   LIG    1       26.206 -32.059  12.754  0.00  0.00    +0.149 HD
ATOM     21  O   LIG    1       27.206 -30.047  11.804  0.00  0.00    -0.267 OA
BRANCH  19  22
ATOM     22  C   LIG    1       26.275 -31.714  14.837  0.00  0.00    +0.073 C 
ATOM     23  C   LIG    1       25.166 -32.626  15.281  0.00  0.00    +0.024 C 
ATOM     24  C   LIG    1       26.588 -33.102  15.324  0.00  0.00    +0.024 C 
ENDBRANCH  19  22
ENDBRANCH  16  18
ENDBRANCH  15  16
BRANCH  15  25
ATOM     25  C   LIG    1       27.185 -26.766  14.882  0.00  0.00    +0.030 C 
BRANCH  25  27
ATOM     26  C   LIG    1       28.319 -24.564  15.124  0.00  0.00    +0.004 C 
ATOM     27  C   LIG    1       27.097 -25.280  14.567  0.00  0.00    -0.001 C 
ENDBRANCH  25  27
ENDBRANCH  15  25
ENDBRANCH  11  15
ENDBRANCH   1  13
BRANCH   3  28
ATOM     28  C   LIG    1       22.423 -31.597  11.319  0.00  0.00    +0.164 C 
BRANCH  28  29
ATOM     29  C   LIG    1       22.321 -32.932  12.196  0.00  0.00    -0.011 C 
ATOM     30  C   LIG    1       22.147 -32.573  13.690  0.00  0.00    +0.013 C 
ATOM     31  C   LIG    1       23.582 -33.825  12.089  0.00  0.00    +0.013 C 
ATOM     32  C   LIG    1       21.116 -33.825  11.808  0.00  0.00    +0.013 C 
ENDBRANCH  28  29
BRANCH  28  33
ATOM     33  N   LIG    1       23.228 -31.858  10.076  0.00  0.00    -0.302 N 
ATOM     34  H   LIG    1       24.039 -31.264   9.973  0.00  0.00    +0.149 HD
ATOM     35  C   LIG    1       22.721 -32.365   8.893  0.00  0.00    +0.234 C 
ATOM     36  O   LIG    1       21.540 -32.709   8.816  0.00  0.00    -0.274 OA
BRANCH  35  37
ATOM     37  C   LIG    1       23.698 -32.447   7.638  0.00  0.00    +0.162 C 
BRANCH  37  38
ATOM     38  C   LIG    1       24.763 -33.602   7.807  0.00  0.00    +0.018 C 
ATOM     39  C   LIG    1       25.756 -33.807   6.630  0.00  0.00    +0.006 C 
ATOM     40  C   LIG    1       26.898 -32.793   6.543  0.00  0.00    +0.000 C 
ATOM     41  C   LIG    1       27.652 -32.601   7.854  0.00  0.00    +0.000 C 
ATOM     42  C   LIG    1       26.706 -32.434   9.034  0.00  0.00    +0.000 C 
ATOM     43  C   LIG    1       25.630 -33.522   9.086  0.00  0.00    +0.006 C 
ENDBRANCH  37  38
BRANCH  37  44
ATOM     44  N   LIG    1       24.338 -31.124   7.414  0.00  0.00    -0.298 N 
ATOM     45  H   LIG    1       25.109 -30.836   8.012  0.00  0.00    +0.150 HD
ATOM     46  C   LIG    1       23.986 -30.240   6.401  0.00  0.00    +0.265 C 
ATOM     47  O   LIG    1       23.146 -30.458   5.564  0.00  0.00    -0.269 OA
BRANCH  46  48
ATOM     48  C   LIG    1       24.715 -28.925   6.417  0.00  0.00    +0.143 A 
ATOM     49  N   LIG    1       24.904 -28.277   5.235  0.00  0.00    -0.247 NA
ATOM     50  C   LIG    1       25.637 -27.137   5.325  0.00  0.00    +0.131 A 
ATOM     51  C   LIG    1       26.193 -26.685   6.514  0.00  0.00    +0.130 A 
ATOM     52  N   LIG    1       26.000 -27.326   7.688  0.00  0.00    -0.260 NA
ATOM     53  C   LIG    1       25.236 -28.453   7.617  0.00  0.00    +0.143 A 
ENDBRANCH  46  48
ENDBRANCH  37  44
ENDBRANCH  35  37
ENDBRANCH  28  33
ENDBRANCH   3  28
TORSDOF 14
ENDMDL
