MODEL 1
REMARK VINA RESULT:      -9.9      0.000      0.000
REMARK  Name = *****
REMARK                            x       y       z     vdW  Elec       q    Type
REMARK                         _______ _______ _______ _____ _____    ______ ____
ROOT
ATOM      1  C   LIG    1       28.916 -20.041   7.048  0.00  0.00    -0.013 A 
ATOM      2  C   LIG    1       29.483 -21.136   7.719  0.00  0.00    +0.096 A 
ATOM      3  C   LIG    1       30.609 -20.938   8.535  0.00  0.00    +0.318 A 
ATOM      4  C   LIG    1       31.185 -19.684   8.686  0.00  0.00    +0.237 A 
ATOM      5  C   LIG    1       30.615 -18.603   8.015  0.00  0.00    +0.166 A 
ATOM      6  C   LIG    1       29.491 -18.767   7.201  0.00  0.00    +0.057 A 
ENDROOT
BRANCH   3   7
ATOM      7  N   LIG    1       31.177 -22.069   9.238  0.00  0.00    +0.084 N 
ATOM      8  O   LIG    1       30.614 -22.402  10.300  0.00  0.00    -0.576 OA
ATOM      9  O   LIG    1       32.210 -22.568   8.789  0.00  0.00    +0.042 OA
ENDBRANCH   3   7
BRANCH   1  11
ATOM     10  C   LIG    1       26.472 -20.439   6.611  0.00  0.00    +0.114 C 
ATOM     11  C   LIG    1       27.736 -20.221   6.176  0.00  0.00    +0.032 C 
BRANCH  10  13
ATOM     12  N   LIG    1       24.147 -21.161   5.854  0.00  0.00    -0.297 N 
ATOM     13  C   LIG    1       25.370 -20.534   5.587  0.00  0.00    +0.257 C 
ATOM     14  O   LIG    1       25.577 -20.010   4.484  0.00  0.00    -0.269 OA
BRANCH  12  16
ATOM     15  C   LIG    1       23.047 -23.197   6.844  0.00  0.00    +0.024 C 
ATOM     16  C   LIG    1       23.714 -21.850   7.085  0.00  0.00    +0.104 C 
ENDBRANCH  12  16
BRANCH  12  17
ATOM     17  C   LIG    1       23.118 -21.060   4.811  0.00  0.00    +0.104 C 
ATOM     18  C   LIG    1       22.258 -19.812   4.946  0.00  0.00    +0.024 C 
ENDBRANCH  12  17
ENDBRANCH  10  13
BRANCH  10  19
ATOM     19  C   LIG    1       26.218 -20.495   7.993  0.00  0.00    +0.104 C 
ATOM     20  N   LIG    1       26.009 -20.541   9.124  0.00  0.00    -0.191 NA
ENDBRANCH  10  19
ENDBRANCH   1  11
BRANCH   4  21
ATOM     21  O   LIG    1       32.297 -19.476   9.448  0.00  0.00    -0.499 OA
ATOM     22  H   LIG    1       32.599 -18.569   9.240  0.00  0.00    +0.292 HD
ENDBRANCH   4  21
BRANCH   5  23
ATOM     23  O   LIG    1       31.211 -17.383   8.191  0.00  0.00    -0.503 OA
ATOM     24  H   LIG    1       31.470 -17.288   9.124  0.00  0.00    +0.292 HD
ENDBRANCH   5  23
TORSDOF 8
ENDMDL
MODEL 2
REMARK VINA RESULT:      -9.3      1.132      2.531
REMARK  Name = *****
REMARK                            x       y       z     vdW  Elec       q    Type
REMARK                         _______ _______ _______ _____ _____    ______ ____
ROOT
ATOM      1  C   LIG    1       28.904 -20.070   7.066  0.00  0.00    -0.013 A 
ATOM      2  C   LIG    1       29.289 -18.806   7.539  0.00  0.00    +0.096 A 
ATOM      3  C   LIG    1       30.423 -18.691   8.360  0.00  0.00    +0.318 A 
ATOM      4  C   LIG    1       31.168 -19.803   8.727  0.00  0.00    +0.237 A 
ATOM      5  C   LIG    1       30.777 -21.054   8.253  0.00  0.00    +0.166 A 
ATOM      6  C   LIG    1       29.658 -21.200   7.430  0.00  0.00    +0.057 A 
ENDROOT
BRANCH   3   7
ATOM      7  N   LIG    1       30.824 -17.381   8.829  0.00  0.00    +0.084 N 
ATOM      8  O   LIG    1       31.977 -17.014   8.528  0.00  0.00    -0.576 OA
ATOM      9  O   LIG    1       30.041 -16.762   9.551  0.00  0.00    +0.042 OA
ENDBRANCH   3   7
BRANCH   1  11
ATOM     10  C   LIG    1       26.449 -20.429   6.657  0.00  0.00    +0.114 C 
ATOM     11  C   LIG    1       27.710 -20.221   6.207  0.00  0.00    +0.032 C 
BRANCH  10  13
ATOM     12  N   LIG    1       24.115 -21.135   5.909  0.00  0.00    -0.297 N 
ATOM     13  C   LIG    1       25.332 -20.494   5.646  0.00  0.00    +0.257 C 
ATOM     14  O   LIG    1       25.520 -19.931   4.560  0.00  0.00    -0.269 OA
BRANCH  12  16
ATOM     15  C   LIG    1       22.974 -23.173   6.844  0.00  0.00    +0.024 C 
ATOM     16  C   LIG    1       23.704 -21.867   7.122  0.00  0.00    +0.104 C 
ENDBRANCH  12  16
BRANCH  12  17
ATOM     17  C   LIG    1       23.070 -21.002   4.886  0.00  0.00    +0.104 C 
ATOM     18  C   LIG    1       22.297 -19.696   4.995  0.00  0.00    +0.024 C 
ENDBRANCH  12  17
ENDBRANCH  10  13
BRANCH  10  19
ATOM     19  C   LIG    1       26.213 -20.503   8.041  0.00  0.00    +0.104 C 
ATOM     20  N   LIG    1       26.018 -20.563   9.174  0.00  0.00    -0.191 NA
ENDBRANCH  10  19
ENDBRANCH   1  11
BRANCH   4  21
ATOM     21  O   LIG    1       32.254 -19.718   9.549  0.00  0.00    -0.499 OA
ATOM     22  H   LIG    1       31.942 -19.997  10.433  0.00  0.00    +0.292 HD
ENDBRANCH   4  21
BRANCH   5  23
ATOM     23  O   LIG    1       31.540 -22.126   8.636  0.00  0.00    -0.503 OA
ATOM     24  H   LIG    1       31.667 -22.713   7.871  0.00  0.00    +0.292 HD
ENDBRANCH   5  23
TORSDOF 8
ENDMDL
MODEL 3
REMARK VINA RESULT:      -8.9      1.893      2.654
REMARK  Name = *****
REMARK                            x       y       z     vdW  Elec       q    Type
REMARK                         _______ _______ _______ _____ _____    ______ ____
ROOT
ATOM      1  C   LIG    1       28.568 -21.099   7.066  0.00  0.00    -0.013 A 
ATOM      2  C   LIG    1       29.553 -21.169   8.064  0.00  0.00    +0.096 A 
ATOM      3  C   LIG    1       30.512 -20.148   8.161  0.00  0.00    +0.318 A 
ATOM      4  C   LIG    1       30.518 -19.072   7.283  0.00  0.00    +0.237 A 
ATOM      5  C   LIG    1       29.536 -19.012   6.296  0.00  0.00    +0.166 A 
ATOM      6  C   LIG    1       28.565 -20.009   6.178  0.00  0.00    +0.057 A 
ENDROOT
BRANCH   3   7
ATOM      7  N   LIG    1       31.515 -20.219   9.203  0.00  0.00    +0.084 N 
ATOM      8  O   LIG    1       31.750 -19.159   9.818  0.00  0.00    -0.576 OA
ATOM      9  O   LIG    1       32.116 -21.283   9.355  0.00  0.00    +0.042 OA
ENDBRANCH   3   7
BRANCH   1  11
ATOM     10  C   LIG    1       26.407 -22.239   7.656  0.00  0.00    +0.114 C 
ATOM     11  C   LIG    1       27.551 -22.164   6.936  0.00  0.00    +0.032 C 
BRANCH  10  13
ATOM     12  N   LIG    1       24.100 -23.128   7.028  0.00  0.00    -0.297 N 
ATOM     13  C   LIG    1       25.443 -23.358   7.351  0.00  0.00    +0.257 C 
ATOM     14  O   LIG    1       25.892 -24.512   7.373  0.00  0.00    -0.269 OA
BRANCH  12  16
ATOM     15  C   LIG    1       23.478 -21.140   5.616  0.00  0.00    +0.024 C 
ATOM     16  C   LIG    1       23.376 -21.844   6.961  0.00  0.00    +0.104 C 
ENDBRANCH  12  16
BRANCH  12  17
ATOM     17  C   LIG    1       23.314 -24.301   6.621  0.00  0.00    +0.104 C 
ATOM     18  C   LIG    1       24.042 -25.183   5.620  0.00  0.00    +0.024 C 
ENDBRANCH  12  17
ENDBRANCH  10  13
BRANCH  10  19
ATOM     19  C   LIG    1       26.120 -21.242   8.604  0.00  0.00    +0.104 C 
ATOM     20  N   LIG    1       25.885 -20.426   9.381  0.00  0.00    -0.191 NA
ENDBRANCH  10  19
ENDBRANCH   1  11
BRANCH   4  21
ATOM     21  O   LIG    1       31.459 -18.086   7.340  0.00  0.00    -0.499 OA
ATOM     22  H   LIG    1       32.196 -18.386   6.769  0.00  0.00    +0.292 HD
ENDBRANCH   4  21
BRANCH   5  23
ATOM     23  O   LIG    1       29.574 -17.934   5.451  0.00  0.00    -0.503 OA
ATOM     24  H   LIG    1       29.831 -18.236   4.563  0.00  0.00    +0.292 HD
ENDBRANCH   5  23
TORSDOF 8
ENDMDL
MODEL 4
REMARK VINA RESULT:      -8.5      1.220      1.993
REMARK  Name = *****
REMARK                            x       y       z     vdW  Elec       q    Type
REMARK                         _______ _______ _______ _____ _____    ______ ____
ROOT
ATOM      1  C   LIG    1       28.688 -20.218   7.163  0.00  0.00    -0.013 A 
ATOM      2  C   LIG    1       29.319 -21.275   7.837  0.00  0.00    +0.096 A 
ATOM      3  C   LIG    1       30.520 -21.037   8.525  0.00  0.00    +0.318 A 
ATOM      4  C   LIG    1       31.108 -19.780   8.545  0.00  0.00    +0.237 A 
ATOM      5  C   LIG    1       30.474 -18.736   7.873  0.00  0.00    +0.166 A 
ATOM      6  C   LIG    1       29.275 -18.941   7.185  0.00  0.00    +0.057 A 
ENDROOT
BRANCH   3   7
ATOM      7  N   LIG    1       31.156 -22.129   9.232  0.00  0.00    +0.084 N 
ATOM      8  O   LIG    1       30.651 -22.450  10.326  0.00  0.00    -0.576 OA
ATOM      9  O   LIG    1       32.186 -22.606   8.752  0.00  0.00    +0.042 OA
ENDBRANCH   3   7
BRANCH   1  11
ATOM     10  C   LIG    1       26.208 -20.596   6.994  0.00  0.00    +0.114 C 
ATOM     11  C   LIG    1       27.427 -20.442   6.425  0.00  0.00    +0.032 C 
BRANCH  10  13
ATOM     12  N   LIG    1       24.962 -20.193   4.806  0.00  0.00    -0.297 N 
ATOM     13  C   LIG    1       25.012 -20.749   6.090  0.00  0.00    +0.257 C 
ATOM     14  O   LIG    1       24.061 -21.417   6.519  0.00  0.00    -0.269 OA
BRANCH  12  16
ATOM     15  C   LIG    1       25.397 -18.172   3.371  0.00  0.00    +0.024 C 
ATOM     16  C   LIG    1       25.973 -19.364   4.122  0.00  0.00    +0.104 C 
ENDBRANCH  12  16
BRANCH  12  17
ATOM     17  C   LIG    1       23.792 -20.537   3.987  0.00  0.00    +0.104 C 
ATOM     18  C   LIG    1       24.003 -21.791   3.151  0.00  0.00    +0.024 C 
ENDBRANCH  12  17
ENDBRANCH  10  13
BRANCH  10  19
ATOM     19  C   LIG    1       26.087 -20.536   8.394  0.00  0.00    +0.104 C 
ATOM     20  N   LIG    1       25.987 -20.487   9.539  0.00  0.00    -0.191 NA
ENDBRANCH  10  19
ENDBRANCH   1  11
BRANCH   4  21
ATOM     21  O   LIG    1       32.290 -19.535   9.181  0.00  0.00    -0.499 OA
ATOM     22  H   LIG    1       32.441 -20.302   9.769  0.00  0.00    +0.292 HD
ENDBRANCH   4  21
BRANCH   5  23
ATOM     23  O   LIG    1       31.084 -17.511   7.918  0.00  0.00    -0.503 OA
ATOM     24  H   LIG    1       31.851 -17.560   8.515  0.00  0.00    +0.292 HD
ENDBRANCH   5  23
TORSDOF 8
ENDMDL
MODEL 5
REMARK VINA RESULT:      -8.5      1.587      3.128
REMARK  Name = *****
REMARK                            x       y       z     vdW  Elec       q    Type
REMARK                         _______ _______ _______ _____ _____    ______ ____
ROOT
ATOM      1  C   LIG    1       28.617 -20.311   7.272  0.00  0.00    -0.013 A 
ATOM      2  C   LIG    1       29.075 -19.036   7.642  0.00  0.00    +0.096 A 
ATOM      3  C   LIG    1       30.283 -18.914   8.348  0.00  0.00    +0.318 A 
ATOM      4  C   LIG    1       31.033 -20.028   8.701  0.00  0.00    +0.237 A 
ATOM      5  C   LIG    1       30.570 -21.289   8.330  0.00  0.00    +0.166 A 
ATOM      6  C   LIG    1       29.375 -21.442   7.622  0.00  0.00    +0.057 A 
ENDROOT
BRANCH   3   7
ATOM      7  N   LIG    1       30.758 -17.595   8.711  0.00  0.00    +0.084 N 
ATOM      8  O   LIG    1       31.901 -17.290   8.318  0.00  0.00    -0.576 OA
ATOM      9  O   LIG    1       30.044 -16.905   9.440  0.00  0.00    +0.042 OA
ENDBRANCH   3   7
BRANCH   1  11
ATOM     10  C   LIG    1       26.125 -20.602   7.110  0.00  0.00    +0.114 C 
ATOM     11  C   LIG    1       27.345 -20.469   6.537  0.00  0.00    +0.032 C 
BRANCH  10  13
ATOM     12  N   LIG    1       24.912 -20.171   4.909  0.00  0.00    -0.297 N 
ATOM     13  C   LIG    1       24.918 -20.687   6.211  0.00  0.00    +0.257 C 
ATOM     14  O   LIG    1       23.917 -21.259   6.662  0.00  0.00    -0.269 OA
BRANCH  12  16
ATOM     15  C   LIG    1       25.507 -18.244   3.404  0.00  0.00    +0.024 C 
ATOM     16  C   LIG    1       25.986 -19.451   4.199  0.00  0.00    +0.104 C 
ENDBRANCH  12  16
BRANCH  12  17
ATOM     17  C   LIG    1       23.716 -20.445   4.101  0.00  0.00    +0.104 C 
ATOM     18  C   LIG    1       22.540 -19.551   4.463  0.00  0.00    +0.024 C 
ENDBRANCH  12  17
ENDBRANCH  10  13
BRANCH  10  19
ATOM     19  C   LIG    1       26.016 -20.583   8.512  0.00  0.00    +0.104 C 
ATOM     20  N   LIG    1       25.925 -20.567   9.659  0.00  0.00    -0.191 NA
ENDBRANCH  10  19
ENDBRANCH   1  11
BRANCH   4  21
ATOM     21  O   LIG    1       32.192 -19.933   9.414  0.00  0.00    -0.499 OA
ATOM     22  H   LIG    1       32.548 -20.843   9.468  0.00  0.00    +0.292 HD
ENDBRANCH   4  21
BRANCH   5  23
ATOM     23  O   LIG    1       31.339 -22.362   8.695  0.00  0.00    -0.503 OA
ATOM     24  H   LIG    1       32.209 -22.042   8.989  0.00  0.00    +0.292 HD
ENDBRANCH   5  23
TORSDOF 8
ENDMDL
MODEL 6
REMARK VINA RESULT:      -8.1      2.119      2.794
REMARK  Name = *****
REMARK                            x       y       z     vdW  Elec       q    Type
REMARK                         _______ _______ _______ _____ _____    ______ ____
ROOT
ATOM      1  C   LIG    1       28.237 -21.002   6.853  0.00  0.00    -0.013 A 
ATOM      2  C   LIG    1       29.191 -21.331   7.829  0.00  0.00    +0.096 A 
ATOM      3  C   LIG    1       30.325 -20.517   7.989  0.00  0.00    +0.318 A 
ATOM      4  C   LIG    1       30.532 -19.398   7.194  0.00  0.00    +0.237 A 
ATOM      5  C   LIG    1       29.579 -19.080   6.228  0.00  0.00    +0.166 A 
ATOM      6  C   LIG    1       28.438 -19.866   6.049  0.00  0.00    +0.057 A 
ENDROOT
BRANCH   3   7
ATOM      7  N   LIG    1       31.296 -20.853   9.009  0.00  0.00    +0.084 N 
ATOM      8  O   LIG    1       31.269 -22.025   9.434  0.00  0.00    -0.576 OA
ATOM      9  O   LIG    1       32.017 -19.952   9.438  0.00  0.00    +0.042 OA
ENDBRANCH   3   7
BRANCH   1  11
ATOM     10  C   LIG    1       25.967 -21.878   7.486  0.00  0.00    +0.114 C 
ATOM     11  C   LIG    1       27.039 -21.845   6.658  0.00  0.00    +0.032 C 
BRANCH  10  13
ATOM     12  N   LIG    1       24.948 -24.079   6.698  0.00  0.00    -0.297 N 
ATOM     13  C   LIG    1       24.796 -22.747   7.103  0.00  0.00    +0.257 C 
ATOM     14  O   LIG    1       23.668 -22.242   7.181  0.00  0.00    -0.269 OA
BRANCH  12  16
ATOM     15  C   LIG    1       26.148 -26.245   7.144  0.00  0.00    +0.024 C 
ATOM     16  C   LIG    1       26.192 -24.854   6.528  0.00  0.00    +0.104 C 
ENDBRANCH  12  16
BRANCH  12  17
ATOM     17  C   LIG    1       23.712 -24.845   6.487  0.00  0.00    +0.104 C 
ATOM     18  C   LIG    1       23.866 -25.943   5.446  0.00  0.00    +0.024 C 
ENDBRANCH  12  17
ENDBRANCH  10  13
BRANCH  10  19
ATOM     19  C   LIG    1       25.948 -21.055   8.625  0.00  0.00    +0.104 C 
ATOM     20  N   LIG    1       25.934 -20.382   9.559  0.00  0.00    -0.191 NA
ENDBRANCH  10  19
ENDBRANCH   1  11
BRANCH   4  21
ATOM     21  O   LIG    1       31.641 -18.612   7.312  0.00  0.00    -0.499 OA
ATOM     22  H   LIG    1       31.335 -17.694   7.169  0.00  0.00    +0.292 HD
ENDBRANCH   4  21
BRANCH   5  23
ATOM     23  O   LIG    1       29.819 -17.967   5.466  0.00  0.00    -0.503 OA
ATOM     24  H   LIG    1       29.595 -18.162   4.540  0.00  0.00    +0.292 HD
ENDBRANCH   5  23
TORSDOF 8
ENDMDL
MODEL 7
REMARK VINA RESULT:      -8.0      2.136      7.573
REMARK  Name = *****
REMARK                            x       y       z     vdW  Elec       q    Type
REMARK                         _______ _______ _______ _____ _____    ______ ____
ROOT
ATOM      1  C   LIG    1       25.743 -21.225   6.083  0.00  0.00    -0.013 A 
ATOM      2  C   LIG    1       25.096 -20.196   5.380  0.00  0.00    +0.096 A 
ATOM      3  C   LIG    1       23.746 -20.346   5.022  0.00  0.00    +0.318 A 
ATOM      4  C   LIG    1       23.035 -21.496   5.337  0.00  0.00    +0.237 A 
ATOM      5  C   LIG    1       23.686 -22.512   6.035  0.00  0.00    +0.166 A 
ATOM      6  C   LIG    1       25.026 -22.390   6.410  0.00  0.00    +0.057 A 
ENDROOT
BRANCH   3   7
ATOM      7  N   LIG    1       23.082 -19.273   4.312  0.00  0.00    +0.084 N 
ATOM      8  O   LIG    1       23.623 -18.888   3.257  0.00  0.00    -0.576 OA
ATOM      9  O   LIG    1       22.087 -18.766   4.832  0.00  0.00    +0.042 OA
ENDBRANCH   3   7
BRANCH   1  11
ATOM     10  C   LIG    1       27.612 -20.759   7.698  0.00  0.00    +0.114 C 
ATOM     11  C   LIG    1       27.165 -21.097   6.465  0.00  0.00    +0.032 C 
BRANCH  10  13
ATOM     12  N   LIG    1       29.905 -19.648   7.585  0.00  0.00    -0.297 N 
ATOM     13  C   LIG    1       29.101 -20.739   7.936  0.00  0.00    +0.257 C 
ATOM     14  O   LIG    1       29.598 -21.732   8.485  0.00  0.00    -0.269 OA
BRANCH  12  16
ATOM     15  C   LIG    1       29.421 -18.494   5.402  0.00  0.00    +0.024 C 
ATOM     16  C   LIG    1       29.513 -18.392   6.918  0.00  0.00    +0.104 C 
ENDBRANCH  12  16
BRANCH  12  17
ATOM     17  C   LIG    1       31.313 -19.712   8.000  0.00  0.00    +0.104 C 
ATOM     18  C   LIG    1       31.860 -18.364   8.445  0.00  0.00    +0.024 C 
ENDBRANCH  12  17
ENDBRANCH  10  13
BRANCH  10  19
ATOM     19  C   LIG    1       26.686 -20.511   8.725  0.00  0.00    +0.104 C 
ATOM     20  N   LIG    1       25.927 -20.309   9.567  0.00  0.00    -0.191 NA
ENDBRANCH  10  19
ENDBRANCH   1  11
BRANCH   4  21
ATOM     21  O   LIG    1       21.733 -21.674   4.972  0.00  0.00    -0.499 OA
ATOM     22  H   LIG    1       21.555 -21.003   4.282  0.00  0.00    +0.292 HD
ENDBRANCH   4  21
BRANCH   5  23
ATOM     23  O   LIG    1       22.950 -23.629   6.329  0.00  0.00    -0.503 OA
ATOM     24  H   LIG    1       23.554 -24.350   6.577  0.00  0.00    +0.292 HD
ENDBRANCH   5  23
TORSDOF 8
ENDMDL
MODEL 8
REMARK VINA RESULT:      -7.9      2.406      7.129
REMARK  Name = *****
REMARK                            x       y       z     vdW  Elec       q    Type
REMARK                         _______ _______ _______ _____ _____    ______ ____
ROOT
ATOM      1  C   LIG    1       25.923 -21.278   6.079  0.00  0.00    -0.013 A 
ATOM      2  C   LIG    1       25.239 -22.441   6.464  0.00  0.00    +0.096 A 
ATOM      3  C   LIG    1       23.895 -22.608   6.090  0.00  0.00    +0.318 A 
ATOM      4  C   LIG    1       23.220 -21.640   5.357  0.00  0.00    +0.237 A 
ATOM      5  C   LIG    1       23.909 -20.489   4.981  0.00  0.00    +0.166 A 
ATOM      6  C   LIG    1       25.247 -20.297   5.332  0.00  0.00    +0.057 A 
ENDROOT
BRANCH   3   7
ATOM      7  N   LIG    1       23.200 -23.818   6.476  0.00  0.00    +0.084 N 
ATOM      8  O   LIG    1       23.811 -24.890   6.291  0.00  0.00    -0.576 OA
ATOM      9  O   LIG    1       22.041 -23.715   6.878  0.00  0.00    +0.042 OA
ENDBRANCH   3   7
BRANCH   1  11
ATOM     10  C   LIG    1       27.759 -20.701   7.697  0.00  0.00    +0.114 C 
ATOM     11  C   LIG    1       27.335 -21.073   6.466  0.00  0.00    +0.032 C 
BRANCH  10  13
ATOM     12  N   LIG    1       29.996 -19.485   7.559  0.00  0.00    -0.297 N 
ATOM     13  C   LIG    1       29.243 -20.602   7.942  0.00  0.00    +0.257 C 
ATOM     14  O   LIG    1       29.784 -21.550   8.526  0.00  0.00    -0.269 OA
BRANCH  12  16
ATOM     15  C   LIG    1       29.437 -18.437   5.340  0.00  0.00    +0.024 C 
ATOM     16  C   LIG    1       29.548 -18.271   6.849  0.00  0.00    +0.104 C 
ENDBRANCH  12  16
BRANCH  12  17
ATOM     17  C   LIG    1       31.403 -19.466   7.982  0.00  0.00    +0.104 C 
ATOM     18  C   LIG    1       31.797 -18.168   8.670  0.00  0.00    +0.024 C 
ENDBRANCH  12  17
ENDBRANCH  10  13
BRANCH  10  19
ATOM     19  C   LIG    1       26.815 -20.492   8.718  0.00  0.00    +0.104 C 
ATOM     20  N   LIG    1       26.042 -20.322   9.554  0.00  0.00    -0.191 NA
ENDBRANCH  10  19
ENDBRANCH   1  11
BRANCH   4  21
ATOM     21  O   LIG    1       21.907 -21.768   5.011  0.00  0.00    -0.499 OA
ATOM     22  H   LIG    1       21.415 -21.850   5.853  0.00  0.00    +0.292 HD
ENDBRANCH   4  21
BRANCH   5  23
ATOM     23  O   LIG    1       23.210 -19.560   4.257  0.00  0.00    -0.503 OA
ATOM     24  H   LIG    1       22.332 -19.920   4.043  0.00  0.00    +0.292 HD
ENDBRANCH   5  23
TORSDOF 8
ENDMDL
MODEL 9
REMARK VINA RESULT:      -7.5      5.512      7.901
REMARK  Name = *****
REMARK                            x       y       z     vdW  Elec       q    Type
REMARK                         _______ _______ _______ _____ _____    ______ ____
ROOT
ATOM      1  C   LIG    1       25.516 -26.587   6.691  0.00  0.00    -0.013 A 
ATOM      2  C   LIG    1       25.936 -27.364   7.782  0.00  0.00    +0.096 A 
ATOM      3  C   LIG    1       25.473 -28.683   7.910  0.00  0.00    +0.318 A 
ATOM      4  C   LIG    1       24.595 -29.237   6.988  0.00  0.00    +0.237 A 
ATOM      5  C   LIG    1       24.183 -28.457   5.908  0.00  0.00    +0.166 A 
ATOM      6  C   LIG    1       24.632 -27.144   5.750  0.00  0.00    +0.057 A 
ENDROOT
BRANCH   3   7
ATOM      7  N   LIG    1       25.925 -29.484   9.029  0.00  0.00    +0.084 N 
ATOM      8  O   LIG    1       25.051 -30.140   9.629  0.00  0.00    -0.576 OA
ATOM      9  O   LIG    1       27.109 -29.401   9.357  0.00  0.00    +0.042 OA
ENDBRANCH   3   7
BRANCH   1  11
ATOM     10  C   LIG    1       25.180 -24.100   6.534  0.00  0.00    +0.114 C 
ATOM     11  C   LIG    1       25.981 -25.192   6.536  0.00  0.00    +0.032 C 
BRANCH  10  13
ATOM     12  N   LIG    1       25.286 -21.708   5.656  0.00  0.00    -0.297 N 
ATOM     13  C   LIG    1       25.826 -22.742   6.432  0.00  0.00    +0.257 C 
ATOM     14  O   LIG    1       26.860 -22.557   7.088  0.00  0.00    -0.269 OA
BRANCH  12  16
ATOM     15  C   LIG    1       22.884 -21.007   5.394  0.00  0.00    +0.024 C 
ATOM     16  C   LIG    1       24.084 -21.730   4.801  0.00  0.00    +0.104 C 
ENDBRANCH  12  16
BRANCH  12  17
ATOM     17  C   LIG    1       25.946 -20.399   5.759  0.00  0.00    +0.104 C 
ATOM     18  C   LIG    1       26.073 -19.694   4.417  0.00  0.00    +0.024 C 
ENDBRANCH  12  17
ENDBRANCH  10  13
BRANCH  10  19
ATOM     19  C   LIG    1       23.793 -24.260   6.698  0.00  0.00    +0.104 C 
ATOM     20  N   LIG    1       22.658 -24.392   6.831  0.00  0.00    -0.191 NA
ENDBRANCH  10  19
ENDBRANCH   1  11
BRANCH   4  21
ATOM     21  O   LIG    1       24.109 -30.505   7.111  0.00  0.00    -0.499 OA
ATOM     22  H   LIG    1       23.193 -30.410   7.442  0.00  0.00    +0.292 HD
ENDBRANCH   4  21
BRANCH   5  23
ATOM     23  O   LIG    1       23.320 -29.040   5.019  0.00  0.00    -0.503 OA
ATOM     24  H   LIG    1       23.793 -29.731   4.524  0.00  0.00    +0.292 HD
ENDBRANCH   5  23
TORSDOF 8
ENDMDL
