MODEL 1
REMARK VINA RESULT:      -0.8      0.000      0.000
REMARK  Name = *****
REMARK                            x       y       z     vdW  Elec       q    Type
REMARK                         _______ _______ _______ _____ _____    ______ ____
ROOT
ATOM      1  C   LIG    1       24.145 -19.927   3.954  0.00  0.00    +0.163 C 
ATOM      2  C   LIG    1       25.606 -19.361   4.047  0.00  0.00    +0.114 C 
ATOM      3  C   LIG    1       25.316 -17.880   3.854  0.00  0.00    +0.037 C 
ATOM      4  C   LIG    1       26.223 -16.859   3.361  0.00  0.00    +0.205 C 
ATOM      5  C   LIG    1       25.700 -15.437   3.298  0.00  0.00    +0.079 C 
ATOM      6  C   LIG    1       24.462 -15.143   3.751  0.00  0.00    +0.022 C 
ATOM      7  C   LIG    1       23.559 -16.207   4.297  0.00  0.00    +0.205 C 
ATOM      8  O   LIG    1       22.486 -15.941   4.828  0.00  0.00    -0.286 OA
ATOM      9  C   LIG    1       23.870 -13.764   3.779  0.00  0.00    +0.050 C 
ATOM     10  O   LIG    1       27.345 -17.142   2.952  0.00  0.00    -0.286 OA
ATOM     11  C   LIG    1       24.059 -17.593   4.190  0.00  0.00    +0.087 C 
ATOM     12  N   LIG    1       23.340 -18.755   4.378  0.00  0.00    -0.295 N 
ATOM     13  C   LIG    1       22.351 -19.047   5.403  0.00  0.00    +0.128 C 
ATOM     14  C   LIG    1       22.593 -20.496   5.752  0.00  0.00    +0.093 C 
ATOM     15  N   LIG    1       22.299 -21.572   4.810  0.00  0.00    -0.302 NA
ATOM     16  H   LIG    1       22.238 -22.472   5.285  0.00  0.00    +0.123 HD
ATOM     17  C   LIG    1       23.679 -21.030   4.876  0.00  0.00    +0.124 C 
ENDROOT
BRANCH   5  18
ATOM     18  N   LIG    1       26.592 -14.517   2.753  0.00  0.00    -0.355 N 
ATOM     19  H   LIG    1       27.196 -14.916   2.040  0.00  0.00    +0.142 HD
ATOM     20  H   LIG    1       27.136 -14.067   3.497  0.00  0.00    +0.142 HD
ENDBRANCH   5  18
BRANCH   1  22
ATOM     21  C   LIG    1       23.856 -21.546   2.198  0.00  0.00    +0.196 C 
ATOM     22  O   LIG    1       23.797 -20.185   2.586  0.00  0.00    -0.357 OA
ENDBRANCH   1  22
BRANCH   2  23
ATOM     23  C   LIG    1       26.307 -19.503   5.412  0.00  0.00    +0.246 C 
BRANCH  23  24
ATOM     24  O   LIG    1       27.618 -20.092   5.367  0.00  0.00    -0.450 OA
BRANCH  24  25
ATOM     25  C   LIG    1       28.601 -19.360   5.951  0.00  0.00    +0.398 C 
ATOM     26  O   LIG    1       29.085 -19.548   7.046  0.00  0.00    -0.227 OA
ATOM     27  N   LIG    1       29.039 -18.390   5.111  0.00  0.00    -0.295 N 
ATOM     28  H   LIG    1       29.839 -17.869   5.444  0.00  0.00    +0.148 HD
ATOM     29  H   LIG    1       28.982 -18.566   4.118  0.00  0.00    +0.148 HD
ENDBRANCH  24  25
ENDBRANCH  23  24
ENDBRANCH   2  23
TORSDOF 5
ENDMDL
