MODEL 1
REMARK VINA RESULT:       6.3      0.000      0.000
REMARK  Name = *****
REMARK                            x       y       z     vdW  Elec       q    Type
REMARK                         _______ _______ _______ _____ _____    ______ ____
ROOT
ATOM      1  C   LIG    1       26.709 -12.561   4.229  0.00  0.00    +0.132 C 
ATOM      2  C   LIG    1       25.910 -13.769   4.823  0.00  0.00    +0.014 C 
ATOM      3  C   LIG    1       26.566 -15.010   4.130  0.00  0.00    +0.002 C 
ATOM      4  C   LIG    1       25.814 -15.609   2.911  0.00  0.00    -0.003 C 
ATOM      5  C   LIG    1       24.297 -15.706   3.134  0.00  0.00    -0.000 C 
ATOM      6  C   LIG    1       23.773 -14.289   3.378  0.00  0.00    +0.005 C 
ATOM      7  C   LIG    1       23.927 -16.743   4.234  0.00  0.00    +0.019 C 
ATOM      8  C   LIG    1       24.594 -18.091   3.986  0.00  0.00    -0.064 C 
ATOM      9  C   LIG    1       23.981 -19.269   4.206  0.00  0.00    +0.026 C 
ATOM     10  C   LIG    1       22.620 -19.336   4.811  0.00  0.00    +0.080 C 
ATOM     11  N   LIG    1       21.946 -20.420   5.053  0.00  0.00    -0.092 NA
ATOM     12  C   LIG    1       21.997 -18.030   5.257  0.00  0.00    +0.059 C 
ATOM     13  C   LIG    1       26.037 -18.078   3.541  0.00  0.00    +0.031 C 
ATOM     14  C   LIG    1       22.396 -16.893   4.334  0.00  0.00    +0.014 C 
ATOM     15  C   LIG    1       26.344 -16.997   2.507  0.00  0.00    +0.008 C 
ATOM     16  C   LIG    1       27.988 -14.567   3.708  0.00  0.00    +0.008 C 
ATOM     17  C   LIG    1       24.363 -13.647   4.626  0.00  0.00    +0.011 C 
ATOM     18  C   LIG    1       28.135 -13.091   4.054  0.00  0.00    +0.049 C 
ENDROOT
BRANCH   1  20
ATOM     19  C   LIG    1       25.776 -11.713   1.864  0.00  0.00    +0.007 C 
ATOM     20  C   LIG    1       26.212 -12.072   2.925  0.00  0.00    -0.070 C 
ENDBRANCH   1  20
BRANCH   1  21
ATOM     21  O   LIG    1       26.727 -11.454   5.124  0.00  0.00    -0.376 OA
ATOM     22  H   LIG    1       26.209 -11.713   5.904  0.00  0.00    +0.211 HD
ENDBRANCH   1  21
BRANCH   2  23
ATOM     23  C   LIG    1       26.067 -13.882   6.395  0.00  0.00    +0.007 C 
ATOM     24  C   LIG    1       27.443 -14.084   7.012  0.00  0.00    +0.004 C 
ENDBRANCH   2  23
BRANCH  11  25
ATOM     25  O   LIG    1       22.630 -21.572   4.645  0.00  0.00    -0.409 OA
ATOM     26  H   LIG    1       23.437 -21.536   5.190  0.00  0.00    +0.328 HD
ENDBRANCH  11  25
TORSDOF 4
ENDMDL
MODEL 2
REMARK VINA RESULT:       6.8      2.750      6.889
REMARK  Name = *****
REMARK                            x       y       z     vdW  Elec       q    Type
REMARK                         _______ _______ _______ _____ _____    ______ ____
ROOT
ATOM      1  C   LIG    1       22.411 -20.375   4.477  0.00  0.00    +0.132 C 
ATOM      2  C   LIG    1       22.487 -18.942   3.851  0.00  0.00    +0.014 C 
ATOM      3  C   LIG    1       23.992 -18.806   3.444  0.00  0.00    +0.002 C 
ATOM      4  C   LIG    1       24.910 -18.013   4.413  0.00  0.00    -0.003 C 
ATOM      5  C   LIG    1       24.254 -16.728   4.940  0.00  0.00    -0.000 C 
ATOM      6  C   LIG    1       22.986 -17.132   5.696  0.00  0.00    +0.005 C 
ATOM      7  C   LIG    1       24.042 -15.669   3.819  0.00  0.00    +0.019 C 
ATOM      8  C   LIG    1       25.321 -15.420   3.029  0.00  0.00    -0.064 C 
ATOM      9  C   LIG    1       25.698 -14.201   2.601  0.00  0.00    +0.026 C 
ATOM     10  C   LIG    1       24.826 -13.007   2.788  0.00  0.00    +0.080 C 
ATOM     11  N   LIG    1       25.105 -11.793   2.419  0.00  0.00    -0.092 NA
ATOM     12  C   LIG    1       23.456 -13.241   3.391  0.00  0.00    +0.059 C 
ATOM     13  C   LIG    1       26.154 -16.626   2.660  0.00  0.00    +0.031 C 
ATOM     14  C   LIG    1       23.497 -14.359   4.418  0.00  0.00    +0.014 C 
ATOM     15  C   LIG    1       26.269 -17.652   3.785  0.00  0.00    +0.008 C 
ATOM     16  C   LIG    1       24.524 -20.249   3.274  0.00  0.00    +0.008 C 
ATOM     17  C   LIG    1       21.960 -17.820   4.806  0.00  0.00    +0.011 C 
ATOM     18  C   LIG    1       23.402 -21.205   3.658  0.00  0.00    +0.049 C 
ENDROOT
BRANCH   1  20
ATOM     19  C   LIG    1       23.109 -20.551   7.058  0.00  0.00    +0.007 C 
ATOM     20  C   LIG    1       22.785 -20.447   5.906  0.00  0.00    -0.070 C 
ENDBRANCH   1  20
BRANCH   1  21
ATOM     21  O   LIG    1       21.110 -20.935   4.345  0.00  0.00    -0.376 OA
ATOM     22  H   LIG    1       20.510 -20.207   4.113  0.00  0.00    +0.211 HD
ENDBRANCH   1  21
BRANCH   2  23
ATOM     23  C   LIG    1       21.565 -18.791   2.572  0.00  0.00    +0.007 C 
ATOM     24  C   LIG    1       20.150 -18.249   2.712  0.00  0.00    +0.004 C 
ENDBRANCH   2  23
BRANCH  11  25
ATOM     25  O   LIG    1       26.372 -11.696   1.833  0.00  0.00    -0.409 OA
ATOM     26  H   LIG    1       26.166 -11.321   0.956  0.00  0.00    +0.328 HD
ENDBRANCH  11  25
TORSDOF 4
ENDMDL
MODEL 3
REMARK VINA RESULT:       7.8      2.527      6.842
REMARK  Name = *****
REMARK                            x       y       z     vdW  Elec       q    Type
REMARK                         _______ _______ _______ _____ _____    ______ ____
ROOT
ATOM      1  C   LIG    1       23.325 -20.312   4.459  0.00  0.00    +0.132 C 
ATOM      2  C   LIG    1       24.346 -19.222   4.928  0.00  0.00    +0.014 C 
ATOM      3  C   LIG    1       23.541 -17.888   4.781  0.00  0.00    +0.002 C 
ATOM      4  C   LIG    1       23.813 -17.043   3.506  0.00  0.00    -0.003 C 
ATOM      5  C   LIG    1       25.306 -16.952   3.158  0.00  0.00    -0.000 C 
ATOM      6  C   LIG    1       25.813 -18.375   2.913  0.00  0.00    +0.005 C 
ATOM      7  C   LIG    1       26.110 -16.139   4.214  0.00  0.00    +0.019 C 
ATOM      8  C   LIG    1       25.466 -14.787   4.496  0.00  0.00    -0.064 C 
ATOM      9  C   LIG    1       26.173 -13.659   4.690  0.00  0.00    +0.026 C 
ATOM     10  C   LIG    1       27.663 -13.674   4.741  0.00  0.00    +0.080 C 
ATOM     11  N   LIG    1       28.431 -12.640   4.914  0.00  0.00    -0.092 NA
ATOM     12  C   LIG    1       28.342 -15.025   4.664  0.00  0.00    +0.059 C 
ATOM     13  C   LIG    1       23.961 -14.751   4.631  0.00  0.00    +0.031 C 
ATOM     14  C   LIG    1       27.572 -15.971   3.759  0.00  0.00    +0.014 C 
ATOM     15  C   LIG    1       23.238 -15.618   3.602  0.00  0.00    +0.008 C 
ATOM     16  C   LIG    1       22.044 -18.278   4.846  0.00  0.00    +0.008 C 
ATOM     17  C   LIG    1       25.700 -19.263   4.145  0.00  0.00    +0.011 C 
ATOM     18  C   LIG    1       21.965 -19.797   4.935  0.00  0.00    +0.049 C 
ENDROOT
BRANCH   1  20
ATOM     19  C   LIG    1       23.271 -20.731   1.812  0.00  0.00    +0.007 C 
ATOM     20  C   LIG    1       23.275 -20.524   2.996  0.00  0.00    -0.070 C 
ENDBRANCH   1  20
BRANCH   1  21
ATOM     21  O   LIG    1       23.587 -21.572   5.066  0.00  0.00    -0.376 OA
ATOM     22  H   LIG    1       22.833 -21.768   5.647  0.00  0.00    +0.211 HD
ENDBRANCH   1  21
BRANCH   2  23
ATOM     23  C   LIG    1       24.792 -19.421   6.434  0.00  0.00    +0.007 C 
ATOM     24  C   LIG    1       25.860 -20.447   6.784  0.00  0.00    +0.004 C 
ENDBRANCH   2  23
BRANCH  11  25
ATOM     25  O   LIG    1       27.702 -11.450   5.019  0.00  0.00    -0.409 OA
ATOM     26  H   LIG    1       27.591 -11.360   5.984  0.00  0.00    +0.328 HD
ENDBRANCH  11  25
TORSDOF 4
ENDMDL
MODEL 4
REMARK VINA RESULT:       8.8      2.487      3.514
REMARK  Name = *****
REMARK                            x       y       z     vdW  Elec       q    Type
REMARK                         _______ _______ _______ _____ _____    ______ ____
ROOT
ATOM      1  C   LIG    1       24.144 -12.210   4.325  0.00  0.00    +0.132 C 
ATOM      2  C   LIG    1       24.382 -13.718   4.669  0.00  0.00    +0.014 C 
ATOM      3  C   LIG    1       25.907 -13.771   5.019  0.00  0.00    +0.002 C 
ATOM      4  C   LIG    1       26.864 -14.272   3.904  0.00  0.00    -0.003 C 
ATOM      5  C   LIG    1       26.319 -15.498   3.156  0.00  0.00    -0.000 C 
ATOM      6  C   LIG    1       24.992 -15.094   2.510  0.00  0.00    +0.005 C 
ATOM      7  C   LIG    1       26.252 -16.762   4.062  0.00  0.00    +0.019 C 
ATOM      8  C   LIG    1       27.577 -17.019   4.771  0.00  0.00    -0.064 C 
ATOM      9  C   LIG    1       28.087 -18.250   4.957  0.00  0.00    +0.026 C 
ATOM     10  C   LIG    1       27.330 -19.473   4.563  0.00  0.00    +0.080 C 
ATOM     11  N   LIG    1       27.740 -20.699   4.694  0.00  0.00    -0.092 NA
ATOM     12  C   LIG    1       25.924 -19.275   4.037  0.00  0.00    +0.059 C 
ATOM     13  C   LIG    1       28.299 -15.823   5.346  0.00  0.00    +0.031 C 
ATOM     14  C   LIG    1       25.818 -17.988   3.238  0.00  0.00    +0.014 C 
ATOM     15  C   LIG    1       28.273 -14.600   4.431  0.00  0.00    +0.008 C 
ATOM     16  C   LIG    1       26.301 -12.336   5.448  0.00  0.00    +0.008 C 
ATOM     17  C   LIG    1       23.935 -14.693   3.530  0.00  0.00    +0.011 C 
ATOM     18  C   LIG    1       25.077 -11.447   5.268  0.00  0.00    +0.049 C 
ENDROOT
BRANCH   1  20
ATOM     19  C   LIG    1       24.749 -11.501   1.812  0.00  0.00    +0.007 C 
ATOM     20  C   LIG    1       24.459 -11.837   2.929  0.00  0.00    -0.070 C 
ENDBRANCH   1  20
BRANCH   1  21
ATOM     21  O   LIG    1       22.799 -11.821   4.580  0.00  0.00    -0.376 OA
ATOM     22  H   LIG    1       22.534 -12.248   5.411  0.00  0.00    +0.211 HD
ENDBRANCH   1  21
BRANCH   2  23
ATOM     23  C   LIG    1       23.525 -14.197   5.912  0.00  0.00    +0.007 C 
ATOM     24  C   LIG    1       22.424 -15.230   5.726  0.00  0.00    +0.004 C 
ENDBRANCH   2  23
BRANCH  11  25
ATOM     25  O   LIG    1       29.031 -20.771   5.231  0.00  0.00    -0.409 OA
ATOM     26  H   LIG    1       29.588 -20.761   4.430  0.00  0.00    +0.328 HD
ENDBRANCH  11  25
TORSDOF 4
ENDMDL
