MODEL 1
REMARK VINA RESULT:      -6.4      0.000      0.000
REMARK  Name = *****
REMARK                            x       y       z     vdW  Elec       q    Type
REMARK                         _______ _______ _______ _____ _____    ______ ____
ROOT
ATOM      1  C   LIG    1       25.031 -21.367   7.105  0.00  0.00    +0.053 C 
ENDROOT
BRANCH   1   2
ATOM      2  C   LIG    1       24.400 -20.595   5.970  0.00  0.00    -0.046 A 
ATOM      3  C   LIG    1       23.058 -20.198   6.033  0.00  0.00    +0.003 A 
ATOM      4  C   LIG    1       22.492 -19.458   4.993  0.00  0.00    +0.000 A 
ATOM      5  C   LIG    1       23.263 -19.104   3.887  0.00  0.00    +0.000 A 
ATOM      6  C   LIG    1       24.597 -19.494   3.816  0.00  0.00    +0.000 A 
ATOM      7  C   LIG    1       25.163 -20.239   4.849  0.00  0.00    +0.003 A 
ENDBRANCH   1   2
BRANCH   1   9
ATOM      8  C   LIG    1       27.535 -21.181   7.607  0.00  0.00    +0.024 C 
ATOM      9  C   LIG    1       26.144 -20.593   7.846  0.00  0.00    +0.052 C 
BRANCH   9  10
ATOM     10  N   LIG    1       25.891 -20.599   9.294  0.00  0.00    -0.327 NA
ATOM     11  H   LIG    1       24.888 -20.545   9.468  0.00  0.00    +0.118 HD
ATOM     12  H   LIG    1       26.202 -21.482   9.696  0.00  0.00    +0.118 HD
ENDBRANCH   9  10
ENDBRANCH   1   9
TORSDOF 3
ENDMDL
MODEL 2
REMARK VINA RESULT:      -6.4      0.080      1.529
REMARK  Name = *****
REMARK                            x       y       z     vdW  Elec       q    Type
REMARK                         _______ _______ _______ _____ _____    ______ ____
ROOT
ATOM      1  C   LIG    1       25.078 -21.406   7.110  0.00  0.00    +0.053 C 
ENDROOT
BRANCH   1   2
ATOM      2  C   LIG    1       24.451 -20.597   6.000  0.00  0.00    -0.046 A 
ATOM      3  C   LIG    1       25.191 -20.248   4.863  0.00  0.00    +0.003 A 
ATOM      4  C   LIG    1       24.594 -19.525   3.827  0.00  0.00    +0.000 A 
ATOM      5  C   LIG    1       23.254 -19.155   3.915  0.00  0.00    +0.000 A 
ATOM      6  C   LIG    1       22.510 -19.498   5.041  0.00  0.00    +0.000 A 
ATOM      7  C   LIG    1       23.105 -20.212   6.080  0.00  0.00    +0.003 A 
ENDBRANCH   1   2
BRANCH   1   9
ATOM      8  C   LIG    1       27.568 -21.329   7.705  0.00  0.00    +0.024 C 
ATOM      9  C   LIG    1       26.200 -20.664   7.869  0.00  0.00    +0.052 C 
BRANCH   9  10
ATOM     10  N   LIG    1       25.893 -20.606   9.305  0.00  0.00    -0.327 NA
ATOM     11  H   LIG    1       26.183 -19.704   9.683  0.00  0.00    +0.118 HD
ATOM     12  H   LIG    1       24.885 -20.661   9.445  0.00  0.00    +0.118 HD
ENDBRANCH   9  10
ENDBRANCH   1   9
TORSDOF 3
ENDMDL
MODEL 3
REMARK VINA RESULT:      -6.2      2.095      2.771
REMARK  Name = *****
REMARK                            x       y       z     vdW  Elec       q    Type
REMARK                         _______ _______ _______ _____ _____    ______ ____
ROOT
ATOM      1  C   LIG    1       25.473 -21.667   6.241  0.00  0.00    +0.053 C 
ENDROOT
BRANCH   1   2
ATOM      2  C   LIG    1       24.608 -20.675   5.502  0.00  0.00    -0.046 A 
ATOM      3  C   LIG    1       25.080 -20.031   4.351  0.00  0.00    +0.003 A 
ATOM      4  C   LIG    1       24.261 -19.138   3.655  0.00  0.00    +0.000 A 
ATOM      5  C   LIG    1       22.964 -18.889   4.100  0.00  0.00    +0.000 A 
ATOM      6  C   LIG    1       22.486 -19.524   5.243  0.00  0.00    +0.000 A 
ATOM      7  C   LIG    1       23.303 -20.409   5.943  0.00  0.00    +0.003 A 
ENDBRANCH   1   2
BRANCH   1   9
ATOM      8  C   LIG    1       25.788 -24.082   7.033  0.00  0.00    +0.024 C 
ATOM      9  C   LIG    1       24.922 -23.109   6.231  0.00  0.00    +0.052 C 
BRANCH   9  10
ATOM     10  N   LIG    1       24.833 -23.612   4.853  0.00  0.00    -0.327 NA
ATOM     11  H   LIG    1       25.663 -24.163   4.633  0.00  0.00    +0.118 HD
ATOM     12  H   LIG    1       24.040 -24.245   4.766  0.00  0.00    +0.118 HD
ENDBRANCH   9  10
ENDBRANCH   1   9
TORSDOF 3
ENDMDL
MODEL 4
REMARK VINA RESULT:      -6.1      2.245      4.263
REMARK  Name = *****
REMARK                            x       y       z     vdW  Elec       q    Type
REMARK                         _______ _______ _______ _____ _____    ______ ____
ROOT
ATOM      1  C   LIG    1       23.309 -20.834   6.676  0.00  0.00    +0.053 C 
ENDROOT
BRANCH   1   2
ATOM      2  C   LIG    1       24.794 -20.662   6.886  0.00  0.00    -0.046 A 
ATOM      3  C   LIG    1       25.344 -20.701   8.174  0.00  0.00    +0.003 A 
ATOM      4  C   LIG    1       26.723 -20.572   8.357  0.00  0.00    +0.000 A 
ATOM      5  C   LIG    1       27.562 -20.411   7.256  0.00  0.00    +0.000 A 
ATOM      6  C   LIG    1       27.024 -20.370   5.972  0.00  0.00    +0.000 A 
ATOM      7  C   LIG    1       25.648 -20.491   5.787  0.00  0.00    +0.003 A 
ENDBRANCH   1   2
BRANCH   1   9
ATOM      8  C   LIG    1       22.384 -19.182   4.952  0.00  0.00    +0.024 C 
ATOM      9  C   LIG    1       22.853 -20.612   5.217  0.00  0.00    +0.052 C 
BRANCH   9  10
ATOM     10  N   LIG    1       21.747 -21.521   4.885  0.00  0.00    -0.327 NA
ATOM     11  H   LIG    1       20.879 -20.992   4.804  0.00  0.00    +0.118 HD
ATOM     12  H   LIG    1       21.908 -21.944   3.972  0.00  0.00    +0.118 HD
ENDBRANCH   9  10
ENDBRANCH   1   9
TORSDOF 3
ENDMDL
MODEL 5
REMARK VINA RESULT:      -6.0      4.336      5.305
REMARK  Name = *****
REMARK                            x       y       z     vdW  Elec       q    Type
REMARK                         _______ _______ _______ _____ _____    ______ ____
ROOT
ATOM      1  C   LIG    1       25.992 -25.537   6.687  0.00  0.00    +0.053 C 
ENDROOT
BRANCH   1   2
ATOM      2  C   LIG    1       25.054 -24.364   6.843  0.00  0.00    -0.046 A 
ATOM      3  C   LIG    1       23.690 -24.494   6.552  0.00  0.00    +0.003 A 
ATOM      4  C   LIG    1       22.824 -23.411   6.728  0.00  0.00    +0.000 A 
ATOM      5  C   LIG    1       23.314 -22.196   7.204  0.00  0.00    +0.000 A 
ATOM      6  C   LIG    1       24.668 -22.058   7.496  0.00  0.00    +0.000 A 
ATOM      7  C   LIG    1       25.535 -23.134   7.313  0.00  0.00    +0.003 A 
ENDBRANCH   1   2
BRANCH   1   9
ATOM      8  C   LIG    1       24.729 -27.649   5.977  0.00  0.00    +0.024 C 
ATOM      9  C   LIG    1       25.618 -26.489   5.529  0.00  0.00    +0.052 C 
BRANCH   9  10
ATOM     10  N   LIG    1       26.831 -27.054   4.922  0.00  0.00    -0.327 NA
ATOM     11  H   LIG    1       26.988 -27.996   5.281  0.00  0.00    +0.118 HD
ATOM     12  H   LIG    1       26.702 -27.152   3.916  0.00  0.00    +0.118 HD
ENDBRANCH   9  10
ENDBRANCH   1   9
TORSDOF 3
ENDMDL
MODEL 6
REMARK VINA RESULT:      -5.9      2.710      4.153
REMARK  Name = *****
REMARK                            x       y       z     vdW  Elec       q    Type
REMARK                         _______ _______ _______ _____ _____    ______ ____
ROOT
ATOM      1  C   LIG    1       29.098 -20.033   6.537  0.00  0.00    +0.053 C 
ENDROOT
BRANCH   1   2
ATOM      2  C   LIG    1       27.657 -20.316   6.888  0.00  0.00    -0.046 A 
ATOM      3  C   LIG    1       27.266 -20.486   8.222  0.00  0.00    +0.003 A 
ATOM      4  C   LIG    1       25.925 -20.717   8.541  0.00  0.00    +0.000 A 
ATOM      5  C   LIG    1       24.967 -20.771   7.531  0.00  0.00    +0.000 A 
ATOM      6  C   LIG    1       25.346 -20.604   6.202  0.00  0.00    +0.000 A 
ATOM      7  C   LIG    1       26.684 -20.381   5.881  0.00  0.00    +0.003 A 
ENDBRANCH   1   2
BRANCH   1   9
ATOM      8  C   LIG    1       30.170 -18.261   8.042  0.00  0.00    +0.024 C 
ATOM      9  C   LIG    1       29.998 -19.754   7.760  0.00  0.00    +0.052 C 
BRANCH   9  10
ATOM     10  N   LIG    1       31.333 -20.333   7.553  0.00  0.00    -0.327 NA
ATOM     11  H   LIG    1       31.993 -19.922   8.213  0.00  0.00    +0.118 HD
ATOM     12  H   LIG    1       31.313 -21.331   7.757  0.00  0.00    +0.118 HD
ENDBRANCH   9  10
ENDBRANCH   1   9
TORSDOF 3
ENDMDL
MODEL 7
REMARK VINA RESULT:      -5.9      2.847      4.711
REMARK  Name = *****
REMARK                            x       y       z     vdW  Elec       q    Type
REMARK                         _______ _______ _______ _____ _____    ______ ____
ROOT
ATOM      1  C   LIG    1       23.242 -21.155   6.708  0.00  0.00    +0.053 C 
ENDROOT
BRANCH   1   2
ATOM      2  C   LIG    1       23.927 -22.499   6.753  0.00  0.00    -0.046 A 
ATOM      3  C   LIG    1       23.204 -23.679   6.535  0.00  0.00    +0.003 A 
ATOM      4  C   LIG    1       23.852 -24.917   6.548  0.00  0.00    +0.000 A 
ATOM      5  C   LIG    1       25.225 -24.984   6.771  0.00  0.00    +0.000 A 
ATOM      6  C   LIG    1       25.953 -23.817   6.989  0.00  0.00    +0.000 A 
ATOM      7  C   LIG    1       25.308 -22.581   6.984  0.00  0.00    +0.003 A 
ENDBRANCH   1   2
BRANCH   1   9
ATOM      8  C   LIG    1       22.421 -19.313   5.129  0.00  0.00    +0.024 C 
ATOM      9  C   LIG    1       23.495 -20.366   5.403  0.00  0.00    +0.052 C 
BRANCH   9  10
ATOM     10  N   LIG    1       23.537 -21.282   4.255  0.00  0.00    -0.327 NA
ATOM     11  H   LIG    1       22.721 -21.893   4.271  0.00  0.00    +0.118 HD
ATOM     12  H   LIG    1       23.476 -20.751   3.387  0.00  0.00    +0.118 HD
ENDBRANCH   9  10
ENDBRANCH   1   9
TORSDOF 3
ENDMDL
MODEL 8
REMARK VINA RESULT:      -5.9      2.770      3.433
REMARK  Name = *****
REMARK                            x       y       z     vdW  Elec       q    Type
REMARK                         _______ _______ _______ _____ _____    ______ ____
ROOT
ATOM      1  C   LIG    1       26.865 -20.430   7.583  0.00  0.00    +0.053 C 
ENDROOT
BRANCH   1   2
ATOM      2  C   LIG    1       25.712 -21.380   7.366  0.00  0.00    -0.046 A 
ATOM      3  C   LIG    1       24.391 -20.914   7.359  0.00  0.00    +0.003 A 
ATOM      4  C   LIG    1       23.332 -21.796   7.127  0.00  0.00    +0.000 A 
ATOM      5  C   LIG    1       23.587 -23.146   6.892  0.00  0.00    +0.000 A 
ATOM      6  C   LIG    1       24.896 -23.619   6.897  0.00  0.00    +0.000 A 
ATOM      7  C   LIG    1       25.953 -22.743   7.136  0.00  0.00    +0.003 A 
ENDBRANCH   1   2
BRANCH   1   9
ATOM      8  C   LIG    1       29.202 -19.691   6.841  0.00  0.00    +0.024 C 
ATOM      9  C   LIG    1       27.960 -20.515   6.497  0.00  0.00    +0.052 C 
BRANCH   9  10
ATOM     10  N   LIG    1       27.439 -20.034   5.210  0.00  0.00    -0.327 NA
ATOM     11  H   LIG    1       27.594 -19.030   5.129  0.00  0.00    +0.118 HD
ATOM     12  H   LIG    1       27.957 -20.464   4.445  0.00  0.00    +0.118 HD
ENDBRANCH   9  10
ENDBRANCH   1   9
TORSDOF 3
ENDMDL
MODEL 9
REMARK VINA RESULT:      -5.8      4.171      5.292
REMARK  Name = *****
REMARK                            x       y       z     vdW  Elec       q    Type
REMARK                         _______ _______ _______ _____ _____    ______ ____
ROOT
ATOM      1  C   LIG    1       24.521 -25.884   6.174  0.00  0.00    +0.053 C 
ENDROOT
BRANCH   1   2
ATOM      2  C   LIG    1       24.462 -24.463   6.680  0.00  0.00    -0.046 A 
ATOM      3  C   LIG    1       25.620 -23.812   7.124  0.00  0.00    +0.003 A 
ATOM      4  C   LIG    1       25.561 -22.486   7.562  0.00  0.00    +0.000 A 
ATOM      5  C   LIG    1       24.349 -21.800   7.550  0.00  0.00    +0.000 A 
ATOM      6  C   LIG    1       23.192 -22.438   7.111  0.00  0.00    +0.000 A 
ATOM      7  C   LIG    1       23.246 -23.763   6.681  0.00  0.00    +0.003 A 
ENDBRANCH   1   2
BRANCH   1   9
ATOM      8  C   LIG    1       26.269 -27.182   4.827  0.00  0.00    +0.024 C 
ATOM      9  C   LIG    1       25.945 -26.481   6.146  0.00  0.00    +0.052 C 
BRANCH   9  10
ATOM     10  N   LIG    1       26.110 -27.457   7.232  0.00  0.00    -0.327 NA
ATOM     11  H   LIG    1       26.813 -28.148   6.969  0.00  0.00    +0.118 HD
ATOM     12  H   LIG    1       26.467 -26.992   8.065  0.00  0.00    +0.118 HD
ENDBRANCH   9  10
ENDBRANCH   1   9
TORSDOF 3
ENDMDL
