MODEL 1
REMARK VINA RESULT:      -0.6      0.000      0.000
REMARK  Name = *****
REMARK                            x       y       z     vdW  Elec       q    Type
REMARK                         _______ _______ _______ _____ _____    ______ ____
ROOT
ATOM      1  C   LIG    1       24.967 -19.344   4.490  0.00  0.00    -0.018 A 
ATOM      2  C   LIG    1       26.241 -18.707   4.406  0.00  0.00    +0.039 A 
ATOM      3  I   LIG    1       26.540 -16.878   3.286  0.00  0.00    -0.042 I 
ATOM      4  C   LIG    1       27.395 -19.213   5.068  0.00  0.00    +0.051 A 
ATOM      5  C   LIG    1       27.233 -20.319   5.913  0.00  0.00    +0.036 A 
ATOM      6  I   LIG    1       28.829 -21.072   7.062  0.00  0.00    -0.042 I 
ATOM      7  C   LIG    1       26.002 -20.961   6.026  0.00  0.00    +0.030 A 
ATOM      8  C   LIG    1       24.886 -20.486   5.320  0.00  0.00    +0.019 A 
ATOM      9  I   LIG    1       23.104 -21.572   5.669  0.00  0.00    -0.043 I 
ENDROOT
BRANCH   4  10
ATOM     10  N   LIG    1       28.609 -18.493   5.068  0.00  0.00    -0.356 N 
ATOM     11  H   LIG    1       28.479 -17.484   5.082  0.00  0.00    +0.142 HD
ATOM     12  H   LIG    1       29.272 -18.802   4.363  0.00  0.00    +0.142 HD
ENDBRANCH   4  10
BRANCH   1  13
ATOM     13  C   LIG    1       23.739 -18.817   3.753  0.00  0.00    +0.052 C 
BRANCH  13  14
ATOM     14  C   LIG    1       22.598 -18.256   4.640  0.00  0.00    +0.102 C 
BRANCH  14  16
ATOM     15  C   LIG    1       20.794 -18.119   2.806  0.00  0.00    +0.004 C 
ATOM     16  C   LIG    1       21.204 -18.684   4.156  0.00  0.00    +0.011 C 
ENDBRANCH  14  16
BRANCH  14  17
ATOM     17  C   LIG    1       22.693 -16.740   4.619  0.00  0.00    +0.308 C 
ATOM     18  O   LIG    1       23.378 -16.104   3.821  0.00  0.00    -0.251 OA
BRANCH  17  19
ATOM     19  O   LIG    1       21.941 -16.124   5.555  0.00  0.00    -0.480 OA
ATOM     20  H   LIG    1       21.753 -16.657   6.351  0.00  0.00    +0.295 HD
ENDBRANCH  17  19
ENDBRANCH  14  17
ENDBRANCH  13  14
ENDBRANCH   1  13
TORSDOF 6
ENDMDL
MODEL 2
REMARK VINA RESULT:       0.4      3.306      5.237
REMARK  Name = *****
REMARK                            x       y       z     vdW  Elec       q    Type
REMARK                         _______ _______ _______ _____ _____    ______ ____
ROOT
ATOM      1  C   LIG    1       26.597 -18.731   4.438  0.00  0.00    -0.018 A 
ATOM      2  C   LIG    1       25.590 -17.898   3.865  0.00  0.00    +0.039 A 
ATOM      3  I   LIG    1       23.583 -18.616   3.485  0.00  0.00    -0.042 I 
ATOM      4  C   LIG    1       25.826 -16.536   3.526  0.00  0.00    +0.051 A 
ATOM      5  C   LIG    1       27.065 -15.980   3.871  0.00  0.00    +0.036 A 
ATOM      6  I   LIG    1       27.484 -13.940   3.558  0.00  0.00    -0.042 I 
ATOM      7  C   LIG    1       28.068 -16.761   4.439  0.00  0.00    +0.030 A 
ATOM      8  C   LIG    1       27.841 -18.118   4.713  0.00  0.00    +0.019 A 
ATOM      9  I   LIG    1       29.474 -19.112   5.621  0.00  0.00    -0.043 I 
ENDROOT
BRANCH   4  10
ATOM     10  N   LIG    1       24.776 -15.704   3.079  0.00  0.00    -0.356 N 
ATOM     11  H   LIG    1       25.097 -14.810   2.718  0.00  0.00    +0.142 HD
ATOM     12  H   LIG    1       24.008 -15.619   3.740  0.00  0.00    +0.142 HD
ENDBRANCH   4  10
BRANCH   1  13
ATOM     13  C   LIG    1       26.351 -20.200   4.771  0.00  0.00    +0.052 C 
BRANCH  13  14
ATOM     14  C   LIG    1       25.704 -20.489   6.150  0.00  0.00    +0.102 C 
BRANCH  14  16
ATOM     15  C   LIG    1       27.968 -21.331   7.047  0.00  0.00    +0.004 C 
ATOM     16  C   LIG    1       26.467 -21.553   6.952  0.00  0.00    +0.011 C 
ENDBRANCH  14  16
BRANCH  14  17
ATOM     17  C   LIG    1       24.283 -20.969   5.906  0.00  0.00    +0.308 C 
ATOM     18  O   LIG    1       23.361 -20.824   6.706  0.00  0.00    -0.251 OA
BRANCH  17  19
ATOM     19  O   LIG    1       24.098 -21.569   4.712  0.00  0.00    -0.480 OA
ATOM     20  H   LIG    1       24.541 -21.137   3.958  0.00  0.00    +0.295 HD
ENDBRANCH  17  19
ENDBRANCH  14  17
ENDBRANCH  13  14
ENDBRANCH   1  13
TORSDOF 6
ENDMDL
MODEL 3
REMARK VINA RESULT:       0.4      2.770      4.051
REMARK  Name = *****
REMARK                            x       y       z     vdW  Elec       q    Type
REMARK                         _______ _______ _______ _____ _____    ______ ____
ROOT
ATOM      1  C   LIG    1       26.030 -16.612   3.673  0.00  0.00    -0.018 A 
ATOM      2  C   LIG    1       25.765 -17.992   3.925  0.00  0.00    +0.039 A 
ATOM      3  I   LIG    1       23.924 -18.942   3.295  0.00  0.00    -0.042 I 
ATOM      4  C   LIG    1       26.697 -18.842   4.583  0.00  0.00    +0.051 A 
ATOM      5  C   LIG    1       27.958 -18.316   4.895  0.00  0.00    +0.036 A 
ATOM      6  I   LIG    1       29.475 -19.510   5.736  0.00  0.00    -0.042 I 
ATOM      7  C   LIG    1       28.255 -16.976   4.657  0.00  0.00    +0.030 A 
ATOM      8  C   LIG    1       27.303 -16.134   4.061  0.00  0.00    +0.019 A 
ATOM      9  I   LIG    1       27.970 -14.151   3.740  0.00  0.00    -0.043 I 
ENDROOT
BRANCH   4  10
ATOM     10  N   LIG    1       26.459 -20.229   4.704  0.00  0.00    -0.356 N 
ATOM     11  H   LIG    1       25.895 -20.471   5.516  0.00  0.00    +0.142 HD
ATOM     12  H   LIG    1       27.294 -20.800   4.610  0.00  0.00    +0.142 HD
ENDBRANCH   4  10
BRANCH   1  13
ATOM     13  C   LIG    1       25.016 -15.695   2.995  0.00  0.00    +0.052 C 
BRANCH  13  14
ATOM     14  C   LIG    1       24.236 -14.733   3.926  0.00  0.00    +0.102 C 
BRANCH  14  16
ATOM     15  C   LIG    1       22.441 -15.731   5.483  0.00  0.00    +0.004 C 
ATOM     16  C   LIG    1       22.770 -15.150   4.117  0.00  0.00    +0.011 C 
ENDBRANCH  14  16
BRANCH  14  17
ATOM     17  C   LIG    1       24.286 -13.346   3.310  0.00  0.00    +0.308 C 
ATOM     18  O   LIG    1       24.652 -13.116   2.160  0.00  0.00    -0.251 OA
BRANCH  17  19
ATOM     19  O   LIG    1       23.875 -12.358   4.134  0.00  0.00    -0.480 OA
ATOM     20  H   LIG    1       24.528 -11.649   4.287  0.00  0.00    +0.295 HD
ENDBRANCH  17  19
ENDBRANCH  14  17
ENDBRANCH  13  14
ENDBRANCH   1  13
TORSDOF 6
ENDMDL
MODEL 4
REMARK VINA RESULT:       1.0      1.188      2.753
REMARK  Name = *****
REMARK                            x       y       z     vdW  Elec       q    Type
REMARK                         _______ _______ _______ _____ _____    ______ ____
ROOT
ATOM      1  C   LIG    1       25.197 -18.796   4.225  0.00  0.00    -0.018 A 
ATOM      2  C   LIG    1       25.324 -19.994   4.991  0.00  0.00    +0.039 A 
ATOM      3  I   LIG    1       23.731 -21.455   5.110  0.00  0.00    -0.042 I 
ATOM      4  C   LIG    1       26.509 -20.322   5.707  0.00  0.00    +0.051 A 
ATOM      5  C   LIG    1       27.619 -19.479   5.559  0.00  0.00    +0.036 A 
ATOM      6  I   LIG    1       29.474 -19.933   6.448  0.00  0.00    -0.042 I 
ATOM      7  C   LIG    1       27.534 -18.306   4.814  0.00  0.00    +0.030 A 
ATOM      8  C   LIG    1       26.340 -17.965   4.161  0.00  0.00    +0.019 A 
ATOM      9  I   LIG    1       26.437 -16.171   3.042  0.00  0.00    -0.043 I 
ENDROOT
BRANCH   4  10
ATOM     10  N   LIG    1       26.648 -21.572   6.350  0.00  0.00    -0.356 N 
ATOM     11  H   LIG    1       27.173 -22.250   5.803  0.00  0.00    +0.142 HD
ATOM     12  H   LIG    1       25.779 -21.942   6.723  0.00  0.00    +0.142 HD
ENDBRANCH   4  10
BRANCH   1  13
ATOM     13  C   LIG    1       23.914 -18.431   3.484  0.00  0.00    +0.052 C 
BRANCH  13  14
ATOM     14  C   LIG    1       22.702 -18.040   4.367  0.00  0.00    +0.102 C 
BRANCH  14  16
ATOM     15  C   LIG    1       20.818 -19.767   4.039  0.00  0.00    +0.004 C 
ATOM     16  C   LIG    1       21.355 -18.383   3.713  0.00  0.00    +0.011 C 
ENDBRANCH  14  16
BRANCH  14  17
ATOM     17  C   LIG    1       22.771 -16.544   4.618  0.00  0.00    +0.308 C 
ATOM     18  O   LIG    1       23.493 -15.773   3.989  0.00  0.00    -0.251 OA
BRANCH  17  19
ATOM     19  O   LIG    1       21.952 -16.107   5.597  0.00  0.00    -0.480 OA
ATOM     20  H   LIG    1       21.728 -15.158   5.557  0.00  0.00    +0.295 HD
ENDBRANCH  17  19
ENDBRANCH  14  17
ENDBRANCH  13  14
ENDBRANCH   1  13
TORSDOF 6
ENDMDL
MODEL 5
REMARK VINA RESULT:       1.2      2.898      4.045
REMARK  Name = *****
REMARK                            x       y       z     vdW  Elec       q    Type
REMARK                         _______ _______ _______ _____ _____    ______ ____
ROOT
ATOM      1  C   LIG    1       24.970 -17.990   3.921  0.00  0.00    -0.018 A 
ATOM      2  C   LIG    1       25.929 -18.797   4.605  0.00  0.00    +0.039 A 
ATOM      3  I   LIG    1       28.057 -18.423   4.461  0.00  0.00    -0.042 I 
ATOM      4  C   LIG    1       25.555 -19.884   5.444  0.00  0.00    +0.051 A 
ATOM      5  C   LIG    1       24.189 -20.091   5.679  0.00  0.00    +0.036 A 
ATOM      6  I   LIG    1       23.512 -21.571   7.015  0.00  0.00    -0.042 I 
ATOM      7  C   LIG    1       23.226 -19.318   5.036  0.00  0.00    +0.030 A 
ATOM      8  C   LIG    1       23.609 -18.287   4.164  0.00  0.00    +0.019 A 
ATOM      9  I   LIG    1       21.995 -17.203   3.330  0.00  0.00    -0.043 I 
ENDROOT
BRANCH   4  10
ATOM     10  N   LIG    1       26.519 -20.582   6.205  0.00  0.00    -0.356 N 
ATOM     11  H   LIG    1       27.137 -21.159   5.640  0.00  0.00    +0.142 HD
ATOM     12  H   LIG    1       26.134 -21.072   7.008  0.00  0.00    +0.142 HD
ENDBRANCH   4  10
BRANCH   1  13
ATOM     13  C   LIG    1       25.375 -16.846   2.997  0.00  0.00    +0.052 C 
BRANCH  13  14
ATOM     14  C   LIG    1       25.619 -15.473   3.676  0.00  0.00    +0.102 C 
BRANCH  14  16
ATOM     15  C   LIG    1       24.292 -13.482   4.632  0.00  0.00    +0.004 C 
ATOM     16  C   LIG    1       24.426 -14.517   3.527  0.00  0.00    +0.011 C 
ENDBRANCH  14  16
BRANCH  14  17
ATOM     17  C   LIG    1       26.846 -14.848   3.035  0.00  0.00    +0.308 C 
ATOM     18  O   LIG    1       26.868 -14.386   1.897  0.00  0.00    -0.251 OA
BRANCH  17  19
ATOM     19  O   LIG    1       27.936 -14.824   3.831  0.00  0.00    -0.480 OA
ATOM     20  H   LIG    1       28.783 -14.690   3.367  0.00  0.00    +0.295 HD
ENDBRANCH  17  19
ENDBRANCH  14  17
ENDBRANCH  13  14
ENDBRANCH   1  13
TORSDOF 6
ENDMDL
MODEL 6
REMARK VINA RESULT:       1.2      3.888      5.601
REMARK  Name = *****
REMARK                            x       y       z     vdW  Elec       q    Type
REMARK                         _______ _______ _______ _____ _____    ______ ____
ROOT
ATOM      1  C   LIG    1       27.103 -16.555   4.025  0.00  0.00    -0.018 A 
ATOM      2  C   LIG    1       27.488 -17.859   4.458  0.00  0.00    +0.039 A 
ATOM      3  I   LIG    1       29.369 -18.225   5.467  0.00  0.00    -0.042 I 
ATOM      4  C   LIG    1       26.659 -19.001   4.280  0.00  0.00    +0.051 A 
ATOM      5  C   LIG    1       25.376 -18.803   3.752  0.00  0.00    +0.036 A 
ATOM      6  I   LIG    1       23.999 -20.387   3.575  0.00  0.00    -0.042 I 
ATOM      7  C   LIG    1       24.962 -17.543   3.325  0.00  0.00    +0.030 A 
ATOM      8  C   LIG    1       25.815 -16.436   3.453  0.00  0.00    +0.019 A 
ATOM      9  I   LIG    1       24.978 -14.608   2.793  0.00  0.00    -0.043 I 
ENDROOT
BRANCH   4  10
ATOM     10  N   LIG    1       27.012 -20.252   4.831  0.00  0.00    -0.356 N 
ATOM     11  H   LIG    1       27.581 -20.175   5.670  0.00  0.00    +0.142 HD
ATOM     12  H   LIG    1       27.384 -20.911   4.153  0.00  0.00    +0.142 HD
ENDBRANCH   4  10
BRANCH   1  13
ATOM     13  C   LIG    1       28.008 -15.338   4.189  0.00  0.00    +0.052 C 
BRANCH  13  14
ATOM     14  C   LIG    1       27.324 -13.954   4.054  0.00  0.00    +0.102 C 
BRANCH  14  16
ATOM     15  C   LIG    1       29.177 -12.193   4.373  0.00  0.00    +0.004 C 
ATOM     16  C   LIG    1       28.237 -12.900   3.411  0.00  0.00    +0.011 C 
ENDBRANCH  14  16
BRANCH  14  17
ATOM     17  C   LIG    1       26.929 -13.492   5.447  0.00  0.00    +0.308 C 
ATOM     18  O   LIG    1       27.430 -13.922   6.483  0.00  0.00    -0.251 OA
BRANCH  17  19
ATOM     19  O   LIG    1       25.972 -12.540   5.465  0.00  0.00    -0.480 OA
ATOM     20  H   LIG    1       25.090 -12.845   5.749  0.00  0.00    +0.295 HD
ENDBRANCH  17  19
ENDBRANCH  14  17
ENDBRANCH  13  14
ENDBRANCH   1  13
TORSDOF 6
ENDMDL
MODEL 7
REMARK VINA RESULT:       1.3      1.776      3.285
REMARK  Name = *****
REMARK                            x       y       z     vdW  Elec       q    Type
REMARK                         _______ _______ _______ _____ _____    ______ ____
ROOT
ATOM      1  C   LIG    1       25.383 -18.767   3.947  0.00  0.00    -0.018 A 
ATOM      2  C   LIG    1       25.522 -19.992   4.667  0.00  0.00    +0.039 A 
ATOM      3  I   LIG    1       24.046 -21.571   4.545  0.00  0.00    -0.042 I 
ATOM      4  C   LIG    1       26.646 -20.269   5.495  0.00  0.00    +0.051 A 
ATOM      5  C   LIG    1       27.695 -19.339   5.509  0.00  0.00    +0.036 A 
ATOM      6  I   LIG    1       29.475 -19.701   6.575  0.00  0.00    -0.042 I 
ATOM      7  C   LIG    1       27.597 -18.138   4.812  0.00  0.00    +0.030 A 
ATOM      8  C   LIG    1       26.456 -17.852   4.047  0.00  0.00    +0.019 A 
ATOM      9  I   LIG    1       26.529 -15.999   3.027  0.00  0.00    -0.043 I 
ENDROOT
BRANCH   4  10
ATOM     10  N   LIG    1       26.815 -21.537   6.093  0.00  0.00    -0.356 N 
ATOM     11  H   LIG    1       25.956 -22.078   6.138  0.00  0.00    +0.142 HD
ATOM     12  H   LIG    1       27.322 -21.513   6.974  0.00  0.00    +0.142 HD
ENDBRANCH   4  10
BRANCH   1  13
ATOM     13  C   LIG    1       24.161 -18.460   3.086  0.00  0.00    +0.052 C 
BRANCH  13  14
ATOM     14  C   LIG    1       23.025 -17.660   3.772  0.00  0.00    +0.102 C 
BRANCH  14  16
ATOM     15  C   LIG    1       23.170 -15.172   4.426  0.00  0.00    +0.004 C 
ATOM     16  C   LIG    1       23.552 -16.605   4.757  0.00  0.00    +0.011 C 
ENDBRANCH  14  16
BRANCH  14  17
ATOM     17  C   LIG    1       22.146 -18.648   4.520  0.00  0.00    +0.308 C 
ATOM     18  O   LIG    1       22.377 -19.052   5.657  0.00  0.00    -0.251 OA
BRANCH  17  19
ATOM     19  O   LIG    1       21.057 -19.051   3.832  0.00  0.00    -0.480 OA
ATOM     20  H   LIG    1       20.498 -19.708   4.290  0.00  0.00    +0.295 HD
ENDBRANCH  17  19
ENDBRANCH  14  17
ENDBRANCH  13  14
ENDBRANCH   1  13
TORSDOF 6
ENDMDL
MODEL 8
REMARK VINA RESULT:       1.3      3.046      5.167
REMARK  Name = *****
REMARK                            x       y       z     vdW  Elec       q    Type
REMARK                         _______ _______ _______ _____ _____    ______ ____
ROOT
ATOM      1  C   LIG    1       24.475 -17.463   3.899  0.00  0.00    -0.018 A 
ATOM      2  C   LIG    1       25.610 -16.599   3.960  0.00  0.00    +0.039 A 
ATOM      3  I   LIG    1       27.635 -17.352   3.814  0.00  0.00    -0.042 I 
ATOM      4  C   LIG    1       25.491 -15.188   4.095  0.00  0.00    +0.051 A 
ATOM      5  C   LIG    1       24.205 -14.632   4.062  0.00  0.00    +0.036 A 
ATOM      6  I   LIG    1       23.903 -12.548   4.106  0.00  0.00    -0.042 I 
ATOM      7  C   LIG    1       23.075 -15.443   3.996  0.00  0.00    +0.030 A 
ATOM      8  C   LIG    1       23.206 -16.838   3.922  0.00  0.00    +0.019 A 
ATOM      9  I   LIG    1       21.371 -17.882   3.778  0.00  0.00    -0.043 I 
ENDROOT
BRANCH   4  10
ATOM     10  N   LIG    1       26.627 -14.351   4.025  0.00  0.00    -0.356 N 
ATOM     11  H   LIG    1       27.256 -14.590   3.263  0.00  0.00    +0.142 HD
ATOM     12  H   LIG    1       27.102 -14.227   4.915  0.00  0.00    +0.142 HD
ENDBRANCH   4  10
BRANCH   1  13
ATOM     13  C   LIG    1       24.606 -18.979   3.786  0.00  0.00    +0.052 C 
BRANCH  13  14
ATOM     14  C   LIG    1       24.584 -19.768   5.119  0.00  0.00    +0.102 C 
BRANCH  14  16
ATOM     15  C   LIG    1       26.323 -20.462   6.889  0.00  0.00    +0.004 C 
ATOM     16  C   LIG    1       25.923 -20.457   5.423  0.00  0.00    +0.011 C 
ENDBRANCH  14  16
BRANCH  14  17
ATOM     17  C   LIG    1       23.491 -20.819   5.021  0.00  0.00    +0.308 C 
ATOM     18  O   LIG    1       22.615 -20.982   5.867  0.00  0.00    -0.251 OA
BRANCH  17  19
ATOM     19  O   LIG    1       23.545 -21.572   3.902  0.00  0.00    -0.480 OA
ATOM     20  H   LIG    1       22.686 -21.726   3.466  0.00  0.00    +0.295 HD
ENDBRANCH  17  19
ENDBRANCH  14  17
ENDBRANCH  13  14
ENDBRANCH   1  13
TORSDOF 6
ENDMDL
MODEL 9
REMARK VINA RESULT:       1.3      4.139      5.776
REMARK  Name = *****
REMARK                            x       y       z     vdW  Elec       q    Type
REMARK                         _______ _______ _______ _____ _____    ______ ____
ROOT
ATOM      1  C   LIG    1       26.956 -16.081   3.712  0.00  0.00    -0.018 A 
ATOM      2  C   LIG    1       27.279 -17.393   4.175  0.00  0.00    +0.039 A 
ATOM      3  I   LIG    1       29.211 -17.867   5.028  0.00  0.00    -0.042 I 
ATOM      4  C   LIG    1       26.349 -18.469   4.131  0.00  0.00    +0.051 A 
ATOM      5  C   LIG    1       25.042 -18.190   3.712  0.00  0.00    +0.036 A 
ATOM      6  I   LIG    1       23.536 -19.662   3.741  0.00  0.00    -0.042 I 
ATOM      7  C   LIG    1       24.689 -16.920   3.261  0.00  0.00    +0.030 A 
ATOM      8  C   LIG    1       25.633 -15.882   3.254  0.00  0.00    +0.019 A 
ATOM      9  I   LIG    1       24.882 -14.022   2.580  0.00  0.00    -0.043 I 
ENDROOT
BRANCH   4  10
ATOM     10  N   LIG    1       26.655 -19.720   4.711  0.00  0.00    -0.356 N 
ATOM     11  H   LIG    1       27.439 -20.189   4.265  0.00  0.00    +0.142 HD
ATOM     12  H   LIG    1       25.847 -20.322   4.842  0.00  0.00    +0.142 HD
ENDBRANCH   4  10
BRANCH   1  13
ATOM     13  C   LIG    1       27.965 -14.936   3.732  0.00  0.00    +0.052 C 
BRANCH  13  14
ATOM     14  C   LIG    1       27.994 -14.073   5.019  0.00  0.00    +0.102 C 
BRANCH  14  16
ATOM     15  C   LIG    1       25.837 -12.685   5.250  0.00  0.00    +0.004 C 
ATOM     16  C   LIG    1       26.609 -13.925   5.666  0.00  0.00    +0.011 C 
ENDBRANCH  14  16
BRANCH  14  17
ATOM     17  C   LIG    1       28.523 -12.699   4.646  0.00  0.00    +0.308 C 
ATOM     18  O   LIG    1       28.555 -12.261   3.498  0.00  0.00    -0.251 OA
BRANCH  17  19
ATOM     19  O   LIG    1       28.956 -11.968   5.695  0.00  0.00    -0.480 OA
ATOM     20  H   LIG    1       29.528 -11.212   5.465  0.00  0.00    +0.295 HD
ENDBRANCH  17  19
ENDBRANCH  14  17
ENDBRANCH  13  14
ENDBRANCH   1  13
TORSDOF 6
ENDMDL
