MODEL 1
REMARK VINA RESULT:      -5.2      0.000      0.000
REMARK  Name = *****
REMARK                            x       y       z     vdW  Elec       q    Type
REMARK                         _______ _______ _______ _____ _____    ______ ____
ROOT
ATOM      1  C   LIG    1       22.783 -33.824  15.329  0.00  0.00    +0.073 C 
ATOM      2  C   LIG    1       23.498 -33.082  14.204  0.00  0.00    +0.166 C 
ATOM      3  O   LIG    1       22.832 -33.337  12.969  0.00  0.00    -0.332 OA
ATOM      4  C   LIG    1       22.048 -32.185  12.642  0.00  0.00    +0.163 C 
ATOM      5  C   LIG    1       22.525 -31.084  13.618  0.00  0.00    +0.162 C 
ATOM      6  C   LIG    1       23.236 -30.009  12.784  0.00  0.00    +0.039 C 
ATOM      7  C   LIG    1       23.667 -30.787  11.547  0.00  0.00    +0.007 C 
ATOM      8  C   LIG    1       24.238 -30.012  10.351  0.00  0.00    +0.034 C 
ATOM      9  C   LIG    1       24.609 -31.009   9.211  0.00  0.00    +0.149 C 
ATOM     10  C   LIG    1       23.465 -32.032   8.922  0.00  0.00    +0.153 C 
ATOM     11  C   LIG    1       22.881 -32.691  10.190  0.00  0.00    +0.044 C 
ATOM     12  F   LIG    1       25.647 -31.769   9.724  0.00  0.00    -0.238 F 
ATOM     13  C   LIG    1       25.168 -30.243   7.932  0.00  0.00    +0.026 C 
ATOM     14  C   LIG    1       25.882 -28.948   8.356  0.00  0.00    -0.057 C 
ATOM     15  C   LIG    1       25.902 -27.825   7.617  0.00  0.00    +0.046 C 
ATOM     16  C   LIG    1       25.236 -27.751   6.296  0.00  0.00    +0.156 C 
ATOM     17  C   LIG    1       24.479 -28.958   5.804  0.00  0.00    +0.080 C 
ATOM     18  O   LIG    1       25.351 -26.732   5.622  0.00  0.00    -0.293 OA
ATOM     19  C   LIG    1       26.522 -28.981   9.713  0.00  0.00    +0.032 C 
ATOM     20  C   LIG    1       26.201 -31.124   7.187  0.00  0.00    +0.019 C 
ATOM     21  C   LIG    1       24.025 -29.850   6.957  0.00  0.00    +0.022 C 
ATOM     22  C   LIG    1       25.465 -29.178  10.797  0.00  0.00    +0.011 C 
ATOM     23  C   LIG    1       22.419 -31.643  11.218  0.00  0.00    +0.012 C 
ATOM     24  C   LIG    1       21.262 -30.796  10.625  0.00  0.00    +0.015 C 
ATOM     25  O   LIG    1       23.485 -31.691  14.489  0.00  0.00    -0.343 OA
ATOM     26  C   LIG    1       24.940 -33.558  14.083  0.00  0.00    +0.073 C 
ENDROOT
BRANCH  10  27
ATOM     27  O   LIG    1       23.927 -33.079   8.067  0.00  0.00    -0.389 OA
ATOM     28  H   LIG    1       23.163 -33.665   7.903  0.00  0.00    +0.210 HD
ENDBRANCH  10  27
BRANCH   4  29
ATOM     29  C   LIG    1       20.554 -32.499  12.856  0.00  0.00    +0.182 C 
ATOM     30  O   LIG    1       19.972 -33.352  12.177  0.00  0.00    -0.293 OA
BRANCH  29  31
ATOM     31  C   LIG    1       19.821 -31.759  13.953  0.00  0.00    +0.186 C 
ATOM     32 CL   LIG    1       18.858 -30.450  13.250  0.00  0.00    -0.117 Cl
ENDBRANCH  29  31
ENDBRANCH   4  29
TORSDOF 3
ENDMDL
MODEL 2
REMARK VINA RESULT:      -5.1      3.802      7.062
REMARK  Name = *****
REMARK                            x       y       z     vdW  Elec       q    Type
REMARK                         _______ _______ _______ _____ _____    ______ ____
ROOT
ATOM      1  C   LIG    1       28.947 -29.304  11.686  0.00  0.00    +0.073 C 
ATOM      2  C   LIG    1       27.446 -29.037  11.761  0.00  0.00    +0.166 C 
ATOM      3  O   LIG    1       26.781 -30.200  12.250  0.00  0.00    -0.332 OA
ATOM      4  C   LIG    1       26.448 -29.977  13.623  0.00  0.00    +0.163 C 
ATOM      5  C   LIG    1       26.689 -28.467  13.855  0.00  0.00    +0.162 C 
ATOM      6  C   LIG    1       25.321 -27.820  14.113  0.00  0.00    +0.039 C 
ATOM      7  C   LIG    1       24.365 -28.793  13.437  0.00  0.00    +0.007 C 
ATOM      8  C   LIG    1       22.856 -28.613  13.651  0.00  0.00    +0.034 C 
ATOM      9  C   LIG    1       22.081 -29.716  12.866  0.00  0.00    +0.149 C 
ATOM     10  C   LIG    1       22.674 -31.141  13.104  0.00  0.00    +0.153 C 
ATOM     11  C   LIG    1       24.210 -31.210  12.966  0.00  0.00    +0.044 C 
ATOM     12  F   LIG    1       22.328 -29.445  11.529  0.00  0.00    -0.238 F 
ATOM     13  C   LIG    1       20.510 -29.592  13.093  0.00  0.00    +0.026 C 
ATOM     14  C   LIG    1       20.121 -28.124  13.338  0.00  0.00    -0.057 C 
ATOM     15  C   LIG    1       19.111 -27.738  14.137  0.00  0.00    +0.046 C 
ATOM     16  C   LIG    1       18.261 -28.721  14.847  0.00  0.00    +0.156 C 
ATOM     17  C   LIG    1       18.581 -30.187  14.700  0.00  0.00    +0.080 C 
ATOM     18  O   LIG    1       17.301 -28.325  15.500  0.00  0.00    -0.293 OA
ATOM     19  C   LIG    1       20.998 -27.106  12.669  0.00  0.00    +0.032 C 
ATOM     20  C   LIG    1       19.745 -30.074  11.836  0.00  0.00    +0.019 C 
ATOM     21  C   LIG    1       20.045 -30.412  14.327  0.00  0.00    +0.022 C 
ATOM     22  C   LIG    1       22.424 -27.193  13.209  0.00  0.00    +0.011 C 
ATOM     23  C   LIG    1       24.912 -30.178  13.866  0.00  0.00    +0.012 C 
ATOM     24  C   LIG    1       24.619 -30.491  15.357  0.00  0.00    +0.015 C 
ATOM     25  O   LIG    1       27.217 -27.941  12.634  0.00  0.00    -0.343 OA
ATOM     26  C   LIG    1       26.893 -28.707  10.381  0.00  0.00    +0.073 C 
ENDROOT
BRANCH  10  27
ATOM     27  O   LIG    1       22.116 -32.081  12.183  0.00  0.00    -0.389 OA
ATOM     28  H   LIG    1       22.507 -32.950  12.399  0.00  0.00    +0.210 HD
ENDBRANCH  10  27
BRANCH   4  29
ATOM     29  C   LIG    1       27.370 -30.825  14.522  0.00  0.00    +0.182 C 
ATOM     30  O   LIG    1       27.402 -32.057  14.431  0.00  0.00    -0.293 OA
BRANCH  29  31
ATOM     31  C   LIG    1       28.271 -30.103  15.500  0.00  0.00    +0.186 C 
ATOM     32 CL   LIG    1       29.965 -30.371  15.061  0.00  0.00    -0.117 Cl
ENDBRANCH  29  31
ENDBRANCH   4  29
TORSDOF 3
ENDMDL
MODEL 3
REMARK VINA RESULT:      -5.0      2.442      3.997
REMARK  Name = *****
REMARK                            x       y       z     vdW  Elec       q    Type
REMARK                         _______ _______ _______ _____ _____    ______ ____
ROOT
ATOM      1  C   LIG    1       20.384 -27.591  14.764  0.00  0.00    +0.073 C 
ATOM      2  C   LIG    1       21.328 -27.972  13.628  0.00  0.00    +0.166 C 
ATOM      3  O   LIG    1       22.172 -29.042  14.050  0.00  0.00    -0.332 OA
ATOM      4  C   LIG    1       21.681 -30.252  13.465  0.00  0.00    +0.163 C 
ATOM      5  C   LIG    1       20.651 -29.796  12.405  0.00  0.00    +0.162 C 
ATOM      6  C   LIG    1       21.227 -30.152  11.026  0.00  0.00    +0.039 C 
ATOM      7  C   LIG    1       22.723 -30.207  11.301  0.00  0.00    +0.007 C 
ATOM      8  C   LIG    1       23.655 -30.746  10.206  0.00  0.00    +0.034 C 
ATOM      9  C   LIG    1       25.130 -30.706  10.708  0.00  0.00    +0.149 C 
ATOM     10  C   LIG    1       25.286 -31.307  12.140  0.00  0.00    +0.153 C 
ATOM     11  C   LIG    1       24.246 -30.784  13.154  0.00  0.00    +0.044 C 
ATOM     12  F   LIG    1       25.424 -29.360  10.851  0.00  0.00    -0.238 F 
ATOM     13  C   LIG    1       26.129 -31.296   9.616  0.00  0.00    +0.026 C 
ATOM     14  C   LIG    1       25.580 -31.045   8.201  0.00  0.00    -0.057 C 
ATOM     15  C   LIG    1       25.773 -31.877   7.162  0.00  0.00    +0.046 C 
ATOM     16  C   LIG    1       26.563 -33.122   7.299  0.00  0.00    +0.156 C 
ATOM     17  C   LIG    1       27.116 -33.477   8.655  0.00  0.00    +0.080 C 
ATOM     18  O   LIG    1       26.780 -33.808   6.305  0.00  0.00    -0.293 OA
ATOM     19  C   LIG    1       24.734 -29.815   8.048  0.00  0.00    +0.032 C 
ATOM     20  C   LIG    1       27.506 -30.597   9.714  0.00  0.00    +0.019 C 
ATOM     21  C   LIG    1       26.314 -32.829   9.782  0.00  0.00    +0.022 C 
ATOM     22  C   LIG    1       23.475 -29.924   8.905  0.00  0.00    +0.011 C 
ATOM     23  C   LIG    1       22.807 -30.972  12.645  0.00  0.00    +0.012 C 
ATOM     24  C   LIG    1       22.497 -32.484  12.483  0.00  0.00    +0.015 C 
ATOM     25  O   LIG    1       20.558 -28.372  12.504  0.00  0.00    -0.343 OA
ATOM     26  C   LIG    1       22.205 -26.787  13.242  0.00  0.00    +0.073 C 
ENDROOT
BRANCH  10  27
ATOM     27  O   LIG    1       26.583 -31.024  12.669  0.00  0.00    -0.389 OA
ATOM     28  H   LIG    1       26.545 -31.225  13.625  0.00  0.00    +0.210 HD
ENDBRANCH  10  27
BRANCH   4  29
ATOM     29  C   LIG    1       21.006 -31.113  14.551  0.00  0.00    +0.182 C 
ATOM     30  O   LIG    1       21.652 -31.578  15.497  0.00  0.00    -0.293 OA
BRANCH  29  31
ATOM     31  C   LIG    1       19.515 -31.347  14.450  0.00  0.00    +0.186 C 
ATOM     32 CL   LIG    1       19.207 -32.910  13.676  0.00  0.00    -0.117 Cl
ENDBRANCH  29  31
ENDBRANCH   4  29
TORSDOF 3
ENDMDL
MODEL 4
REMARK VINA RESULT:      -5.0      3.425      4.855
REMARK  Name = *****
REMARK                            x       y       z     vdW  Elec       q    Type
REMARK                         _______ _______ _______ _____ _____    ______ ____
ROOT
ATOM      1  C   LIG    1       26.615 -29.479  15.500  0.00  0.00    +0.073 C 
ATOM      2  C   LIG    1       26.503 -30.221  14.171  0.00  0.00    +0.166 C 
ATOM      3  O   LIG    1       25.591 -29.532  13.319  0.00  0.00    -0.332 OA
ATOM      4  C   LIG    1       26.352 -28.804  12.350  0.00  0.00    +0.163 C 
ATOM      5  C   LIG    1       27.795 -29.344  12.485  0.00  0.00    +0.162 C 
ATOM      6  C   LIG    1       28.123 -30.100  11.189  0.00  0.00    +0.039 C 
ATOM      7  C   LIG    1       26.742 -30.481  10.674  0.00  0.00    +0.007 C 
ATOM      8  C   LIG    1       26.620 -31.080   9.265  0.00  0.00    +0.034 C 
ATOM      9  C   LIG    1       25.124 -31.391   8.957  0.00  0.00    +0.149 C 
ATOM     10  C   LIG    1       24.184 -30.195   9.311  0.00  0.00    +0.153 C 
ATOM     11  C   LIG    1       24.442 -29.590  10.707  0.00  0.00    +0.044 C 
ATOM     12  F   LIG    1       24.776 -32.395   9.846  0.00  0.00    -0.238 F 
ATOM     13  C   LIG    1       24.946 -31.977   7.487  0.00  0.00    +0.026 C 
ATOM     14  C   LIG    1       26.203 -32.758   7.069  0.00  0.00    -0.057 C 
ATOM     15  C   LIG    1       26.658 -32.828   5.805  0.00  0.00    +0.046 C 
ATOM     16  C   LIG    1       25.957 -32.156   4.687  0.00  0.00    +0.156 C 
ATOM     17  C   LIG    1       24.731 -31.335   4.997  0.00  0.00    +0.080 C 
ATOM     18  O   LIG    1       26.364 -32.315   3.541  0.00  0.00    -0.293 OA
ATOM     19  C   LIG    1       26.960 -33.408   8.191  0.00  0.00    +0.032 C 
ATOM     20  C   LIG    1       23.749 -32.958   7.441  0.00  0.00    +0.019 C 
ATOM     21  C   LIG    1       24.728 -30.847   6.445  0.00  0.00    +0.022 C 
ATOM     22  C   LIG    1       27.499 -32.351   9.152  0.00  0.00    +0.011 C 
ATOM     23  C   LIG    1       25.916 -29.190  10.893  0.00  0.00    +0.012 C 
ATOM     24  C   LIG    1       26.291 -28.071   9.886  0.00  0.00    +0.015 C 
ATOM     25  O   LIG    1       27.787 -30.280  13.567  0.00  0.00    -0.343 OA
ATOM     26  C   LIG    1       25.985 -31.637  14.392  0.00  0.00    +0.073 C 
ENDROOT
BRANCH  10  27
ATOM     27  O   LIG    1       22.814 -30.597   9.263  0.00  0.00    -0.389 OA
ATOM     28  H   LIG    1       22.760 -31.334   8.624  0.00  0.00    +0.210 HD
ENDBRANCH  10  27
BRANCH   4  29
ATOM     29  C   LIG    1       26.296 -27.299  12.675  0.00  0.00    +0.182 C 
ATOM     30  O   LIG    1       27.264 -26.559  12.468  0.00  0.00    -0.293 OA
BRANCH  29  31
ATOM     31  C   LIG    1       25.003 -26.736  13.223  0.00  0.00    +0.186 C 
ATOM     32 CL   LIG    1       25.208 -25.016  13.589  0.00  0.00    -0.117 Cl
ENDBRANCH  29  31
ENDBRANCH   4  29
TORSDOF 3
ENDMDL
MODEL 5
REMARK VINA RESULT:      -5.0      8.709     11.844
REMARK  Name = *****
REMARK                            x       y       z     vdW  Elec       q    Type
REMARK                         _______ _______ _______ _____ _____    ______ ____
ROOT
ATOM      1  C   LIG    1       23.951 -25.221   5.715  0.00  0.00    +0.073 C 
ATOM      2  C   LIG    1       25.236 -24.494   6.102  0.00  0.00    +0.166 C 
ATOM      3  O   LIG    1       25.123 -23.115   5.758  0.00  0.00    -0.332 OA
ATOM      4  C   LIG    1       24.861 -22.379   6.956  0.00  0.00    +0.163 C 
ATOM      5  C   LIG    1       25.125 -23.377   8.107  0.00  0.00    +0.162 C 
ATOM      6  C   LIG    1       26.362 -22.881   8.869  0.00  0.00    +0.039 C 
ATOM      7  C   LIG    1       27.078 -22.042   7.819  0.00  0.00    +0.007 C 
ATOM      8  C   LIG    1       28.275 -21.184   8.252  0.00  0.00    +0.034 C 
ATOM      9  C   LIG    1       28.844 -20.420   7.017  0.00  0.00    +0.149 C 
ATOM     10  C   LIG    1       27.724 -19.719   6.185  0.00  0.00    +0.153 C 
ATOM     11  C   LIG    1       26.513 -20.626   5.879  0.00  0.00    +0.044 C 
ATOM     12  F   LIG    1       29.344 -21.408   6.184  0.00  0.00    -0.238 F 
ATOM     13  C   LIG    1       30.065 -19.484   7.429  0.00  0.00    +0.026 C 
ATOM     14  C   LIG    1       30.819 -20.087   8.626  0.00  0.00    -0.057 C 
ATOM     15  C   LIG    1       31.426 -19.355   9.578  0.00  0.00    +0.046 C 
ATOM     16  C   LIG    1       31.430 -17.875   9.536  0.00  0.00    +0.156 C 
ATOM     17  C   LIG    1       30.689 -17.185   8.420  0.00  0.00    +0.080 C 
ATOM     18  O   LIG    1       32.065 -17.252  10.381  0.00  0.00    -0.293 OA
ATOM     19  C   LIG    1       30.787 -21.585   8.719  0.00  0.00    +0.032 C 
ATOM     20  C   LIG    1       31.070 -19.364   6.257  0.00  0.00    +0.019 C 
ATOM     21  C   LIG    1       29.583 -18.067   7.844  0.00  0.00    +0.022 C 
ATOM     22  C   LIG    1       29.354 -22.076   8.914  0.00  0.00    +0.011 C 
ATOM     23  C   LIG    1       25.925 -21.245   7.160  0.00  0.00    +0.012 C 
ATOM     24  C   LIG    1       25.377 -20.126   8.084  0.00  0.00    +0.015 C 
ATOM     25  O   LIG    1       25.440 -24.634   7.500  0.00  0.00    -0.343 OA
ATOM     26  C   LIG    1       26.428 -25.083   5.357  0.00  0.00    +0.073 C 
ENDROOT
BRANCH  10  27
ATOM     27  O   LIG    1       28.239 -19.253   4.936  0.00  0.00    -0.389 OA
ATOM     28  H   LIG    1       28.245 -18.277   4.982  0.00  0.00    +0.210 HD
ENDBRANCH  10  27
BRANCH   4  29
ATOM     29  C   LIG    1       23.392 -21.909   6.962  0.00  0.00    +0.182 C 
ATOM     30  O   LIG    1       22.731 -21.877   8.006  0.00  0.00    -0.293 OA
BRANCH  29  31
ATOM     31  C   LIG    1       22.786 -21.449   5.655  0.00  0.00    +0.186 C 
ATOM     32 CL   LIG    1       22.677 -19.682   5.637  0.00  0.00    -0.117 Cl
ENDBRANCH  29  31
ENDBRANCH   4  29
TORSDOF 3
ENDMDL
MODEL 6
REMARK VINA RESULT:      -4.9      3.265      6.683
REMARK  Name = *****
REMARK                            x       y       z     vdW  Elec       q    Type
REMARK                         _______ _______ _______ _____ _____    ______ ____
ROOT
ATOM      1  C   LIG    1       27.127 -33.821   6.062  0.00  0.00    +0.073 C 
ATOM      2  C   LIG    1       26.773 -33.307   7.455  0.00  0.00    +0.166 C 
ATOM      3  O   LIG    1       26.736 -31.882   7.439  0.00  0.00    -0.332 OA
ATOM      4  C   LIG    1       25.365 -31.473   7.416  0.00  0.00    +0.163 C 
ATOM      5  C   LIG    1       24.559 -32.756   7.726  0.00  0.00    +0.162 C 
ATOM      6  C   LIG    1       23.898 -32.559   9.099  0.00  0.00    +0.039 C 
ATOM      7  C   LIG    1       24.800 -31.520   9.751  0.00  0.00    +0.007 C 
ATOM      8  C   LIG    1       24.356 -30.887  11.077  0.00  0.00    +0.034 C 
ATOM      9  C   LIG    1       25.431 -29.862  11.552  0.00  0.00    +0.149 C 
ATOM     10  C   LIG    1       25.875 -28.895  10.409  0.00  0.00    +0.153 C 
ATOM     11  C   LIG    1       26.208 -29.608   9.081  0.00  0.00    +0.044 C 
ATOM     12  F   LIG    1       26.554 -30.624  11.832  0.00  0.00    -0.238 F 
ATOM     13  C   LIG    1       24.991 -29.149  12.906  0.00  0.00    +0.026 C 
ATOM     14  C   LIG    1       24.117 -30.094  13.747  0.00  0.00    -0.057 C 
ATOM     15  C   LIG    1       23.117 -29.681  14.546  0.00  0.00    +0.046 C 
ATOM     16  C   LIG    1       22.785 -28.246  14.698  0.00  0.00    +0.156 C 
ATOM     17  C   LIG    1       23.562 -27.239  13.889  0.00  0.00    +0.080 C 
ATOM     18  O   LIG    1       21.919 -27.911  15.500  0.00  0.00    -0.293 OA
ATOM     19  C   LIG    1       24.401 -31.558  13.574  0.00  0.00    +0.032 C 
ATOM     20  C   LIG    1       26.236 -28.788  13.753  0.00  0.00    +0.019 C 
ATOM     21  C   LIG    1       24.163 -27.864  12.631  0.00  0.00    +0.022 C 
ATOM     22  C   LIG    1       24.116 -31.990  12.137  0.00  0.00    +0.011 C 
ATOM     23  C   LIG    1       25.050 -30.505   8.608  0.00  0.00    +0.012 C 
ATOM     24  C   LIG    1       23.800 -29.638   8.306  0.00  0.00    +0.015 C 
ATOM     25  O   LIG    1       25.505 -33.825   7.828  0.00  0.00    -0.343 OA
ATOM     26  C   LIG    1       27.818 -33.754   8.470  0.00  0.00    +0.073 C 
ENDROOT
BRANCH  10  27
ATOM     27  O   LIG    1       27.031 -28.149  10.798  0.00  0.00    -0.389 OA
ATOM     28  H   LIG    1       26.849 -27.798  11.691  0.00  0.00    +0.210 HD
ENDBRANCH  10  27
BRANCH   4  29
ATOM     29  C   LIG    1       25.013 -30.929   6.017  0.00  0.00    +0.182 C 
ATOM     30  O   LIG    1       24.056 -31.375   5.375  0.00  0.00    -0.293 OA
BRANCH  29  31
ATOM     31  C   LIG    1       25.851 -29.798   5.462  0.00  0.00    +0.186 C 
ATOM     32 CL   LIG    1       24.815 -28.407   5.104  0.00  0.00    -0.117 Cl
ENDBRANCH  29  31
ENDBRANCH   4  29
TORSDOF 3
ENDMDL
MODEL 7
REMARK VINA RESULT:      -4.8      3.309      5.230
REMARK  Name = *****
REMARK                            x       y       z     vdW  Elec       q    Type
REMARK                         _______ _______ _______ _____ _____    ______ ____
ROOT
ATOM      1  C   LIG    1       24.335 -28.279  14.848  0.00  0.00    +0.073 C 
ATOM      2  C   LIG    1       24.099 -28.864  13.458  0.00  0.00    +0.166 C 
ATOM      3  O   LIG    1       25.098 -28.380  12.564  0.00  0.00    -0.332 OA
ATOM      4  C   LIG    1       26.057 -29.422  12.363  0.00  0.00    +0.163 C 
ATOM      5  C   LIG    1       25.406 -30.689  12.964  0.00  0.00    +0.162 C 
ATOM      6  C   LIG    1       25.114 -31.649  11.802  0.00  0.00    +0.039 C 
ATOM      7  C   LIG    1       25.027 -30.704  10.611  0.00  0.00    +0.007 C 
ATOM      8  C   LIG    1       24.953 -31.302   9.199  0.00  0.00    +0.034 C 
ATOM      9  C   LIG    1       24.870 -30.153   8.148  0.00  0.00    +0.149 C 
ATOM     10  C   LIG    1       25.936 -29.041   8.399  0.00  0.00    +0.153 C 
ATOM     11  C   LIG    1       26.011 -28.567   9.867  0.00  0.00    +0.044 C 
ATOM     12  F   LIG    1       23.650 -29.540   8.384  0.00  0.00    -0.238 F 
ATOM     13  C   LIG    1       24.832 -30.729   6.664  0.00  0.00    +0.026 C 
ATOM     14  C   LIG    1       24.155 -32.110   6.644  0.00  0.00    -0.057 C 
ATOM     15  C   LIG    1       24.488 -33.098   5.795  0.00  0.00    +0.046 C 
ATOM     16  C   LIG    1       25.547 -32.923   4.774  0.00  0.00    +0.156 C 
ATOM     17  C   LIG    1       26.296 -31.616   4.733  0.00  0.00    +0.080 C 
ATOM     18  O   LIG    1       25.759 -33.824   3.969  0.00  0.00    -0.293 OA
ATOM     19  C   LIG    1       23.112 -32.330   7.701  0.00  0.00    +0.032 C 
ATOM     20  C   LIG    1       24.011 -29.793   5.744  0.00  0.00    +0.019 C 
ATOM     21  C   LIG    1       26.262 -30.901   6.082  0.00  0.00    +0.022 C 
ATOM     22  C   LIG    1       23.739 -32.259   9.092  0.00  0.00    +0.011 C 
ATOM     23  C   LIG    1       26.221 -29.744  10.837  0.00  0.00    +0.012 C 
ATOM     24  C   LIG    1       27.587 -30.424  10.554  0.00  0.00    +0.015 C 
ATOM     25  O   LIG    1       24.161 -30.280  13.539  0.00  0.00    -0.343 OA
ATOM     26  C   LIG    1       22.732 -28.448  12.930  0.00  0.00    +0.073 C 
ENDROOT
BRANCH  10  27
ATOM     27  O   LIG    1       25.670 -27.893   7.590  0.00  0.00    -0.389 OA
ATOM     28  H   LIG    1       26.327 -27.216   7.842  0.00  0.00    +0.210 HD
ENDBRANCH  10  27
BRANCH   4  29
ATOM     29  C   LIG    1       27.363 -29.072  13.104  0.00  0.00    +0.182 C 
ATOM     30  O   LIG    1       27.904 -27.969  12.969  0.00  0.00    -0.293 OA
BRANCH  29  31
ATOM     31  C   LIG    1       27.951 -30.106  14.038  0.00  0.00    +0.186 C 
ATOM     32 CL   LIG    1       29.681 -29.798  14.257  0.00  0.00    -0.117 Cl
ENDBRANCH  29  31
ENDBRANCH   4  29
TORSDOF 3
ENDMDL
MODEL 8
REMARK VINA RESULT:      -4.7      3.834      6.673
REMARK  Name = *****
REMARK                            x       y       z     vdW  Elec       q    Type
REMARK                         _______ _______ _______ _____ _____    ______ ____
ROOT
ATOM      1  C   LIG    1       29.007 -28.109  14.804  0.00  0.00    +0.073 C 
ATOM      2  C   LIG    1       27.854 -28.924  14.223  0.00  0.00    +0.166 C 
ATOM      3  O   LIG    1       26.634 -28.529  14.846  0.00  0.00    -0.332 OA
ATOM      4  C   LIG    1       25.923 -27.686  13.935  0.00  0.00    +0.163 C 
ATOM      5  C   LIG    1       26.662 -27.840  12.585  0.00  0.00    +0.162 C 
ATOM      6  C   LIG    1       25.706 -28.557  11.620  0.00  0.00    +0.039 C 
ATOM      7  C   LIG    1       24.775 -29.296  12.571  0.00  0.00    +0.007 C 
ATOM      8  C   LIG    1       23.525 -29.979  11.996  0.00  0.00    +0.034 C 
ATOM      9  C   LIG    1       22.731 -30.669  13.147  0.00  0.00    +0.149 C 
ATOM     10  C   LIG    1       22.532 -29.729  14.378  0.00  0.00    +0.153 C 
ATOM     11  C   LIG    1       23.821 -29.007  14.827  0.00  0.00    +0.044 C 
ATOM     12  F   LIG    1       23.563 -31.681  13.600  0.00  0.00    -0.238 F 
ATOM     13  C   LIG    1       21.402 -31.356  12.602  0.00  0.00    +0.026 C 
ATOM     14  C   LIG    1       21.599 -31.820  11.148  0.00  0.00    -0.057 C 
ATOM     15  C   LIG    1       20.620 -31.838  10.226  0.00  0.00    +0.046 C 
ATOM     16  C   LIG    1       19.237 -31.421  10.551  0.00  0.00    +0.156 C 
ATOM     17  C   LIG    1       18.947 -30.918  11.942  0.00  0.00    +0.080 C 
ATOM     18  O   LIG    1       18.360 -31.533   9.701  0.00  0.00    -0.293 OA
ATOM     19  C   LIG    1       23.004 -32.201  10.780  0.00  0.00    +0.032 C 
ATOM     20  C   LIG    1       21.057 -32.606  13.447  0.00  0.00    +0.019 C 
ATOM     21  C   LIG    1       20.201 -30.371  12.620  0.00  0.00    +0.022 C 
ATOM     22  C   LIG    1       23.932 -30.994  10.899  0.00  0.00    +0.011 C 
ATOM     23  C   LIG    1       24.482 -28.242  13.667  0.00  0.00    +0.012 C 
ATOM     24  C   LIG    1       23.535 -27.120  13.167  0.00  0.00    +0.015 C 
ATOM     25  O   LIG    1       27.787 -28.691  12.824  0.00  0.00    -0.343 OA
ATOM     26  C   LIG    1       28.070 -30.410  14.477  0.00  0.00    +0.073 C 
ENDROOT
BRANCH  10  27
ATOM     27  O   LIG    1       22.037 -30.462  15.500  0.00  0.00    -0.389 OA
ATOM     28  H   LIG    1       22.760 -30.493  16.156  0.00  0.00    +0.210 HD
ENDBRANCH  10  27
BRANCH   4  29
ATOM     29  C   LIG    1       25.982 -26.227  14.429  0.00  0.00    +0.182 C 
ATOM     30  O   LIG    1       25.453 -25.886  15.493  0.00  0.00    -0.293 OA
BRANCH  29  31
ATOM     31  C   LIG    1       26.741 -25.221  13.591  0.00  0.00    +0.186 C 
ATOM     32 CL   LIG    1       28.039 -24.500  14.555  0.00  0.00    -0.117 Cl
ENDBRANCH  29  31
ENDBRANCH   4  29
TORSDOF 3
ENDMDL
MODEL 9
REMARK VINA RESULT:      -4.7      2.846      7.054
REMARK  Name = *****
REMARK                            x       y       z     vdW  Elec       q    Type
REMARK                         _______ _______ _______ _____ _____    ______ ____
ROOT
ATOM      1  C   LIG    1       27.124 -32.411   8.762  0.00  0.00    +0.073 C 
ATOM      2  C   LIG    1       25.698 -32.458   9.305  0.00  0.00    +0.166 C 
ATOM      3  O   LIG    1       25.718 -32.226  10.712  0.00  0.00    -0.332 OA
ATOM      4  C   LIG    1       25.298 -30.878  10.946  0.00  0.00    +0.163 C 
ATOM      5  C   LIG    1       24.726 -30.396   9.592  0.00  0.00    +0.162 C 
ATOM      6  C   LIG    1       23.216 -30.191   9.781  0.00  0.00    +0.039 C 
ATOM      7  C   LIG    1       22.906 -31.106  10.958  0.00  0.00    +0.007 C 
ATOM      8  C   LIG    1       21.516 -31.031  11.605  0.00  0.00    +0.034 C 
ATOM      9  C   LIG    1       21.430 -32.053  12.780  0.00  0.00    +0.149 C 
ATOM     10  C   LIG    1       22.667 -31.971  13.729  0.00  0.00    +0.153 C 
ATOM     11  C   LIG    1       24.022 -31.952  12.990  0.00  0.00    +0.044 C 
ATOM     12  F   LIG    1       21.522 -33.298  12.179  0.00  0.00    -0.238 F 
ATOM     13  C   LIG    1       20.015 -31.980  13.507  0.00  0.00    +0.026 C 
ATOM     14  C   LIG    1       18.923 -31.559  12.509  0.00  0.00    -0.057 C 
ATOM     15  C   LIG    1       17.847 -30.824  12.839  0.00  0.00    +0.046 C 
ATOM     16  C   LIG    1       17.613 -30.366  14.228  0.00  0.00    +0.156 C 
ATOM     17  C   LIG    1       18.643 -30.699  15.277  0.00  0.00    +0.080 C 
ATOM     18  O   LIG    1       16.576 -29.768  14.497  0.00  0.00    -0.293 OA
ATOM     19  C   LIG    1       19.162 -31.968  11.084  0.00  0.00    +0.032 C 
ATOM     20  C   LIG    1       19.625 -33.370  14.066  0.00  0.00    +0.019 C 
ATOM     21  C   LIG    1       20.020 -30.942  14.662  0.00  0.00    +0.022 C 
ATOM     22  C   LIG    1       20.422 -31.297  10.541  0.00  0.00    +0.011 C 
ATOM     23  C   LIG    1       24.080 -30.836  11.932  0.00  0.00    +0.012 C 
ATOM     24  C   LIG    1       23.968 -29.450  12.620  0.00  0.00    +0.015 C 
ATOM     25  O   LIG    1       24.926 -31.459   8.656  0.00  0.00    -0.343 OA
ATOM     26  C   LIG    1       25.074 -33.824   9.048  0.00  0.00    +0.073 C 
ENDROOT
BRANCH  10  27
ATOM     27  O   LIG    1       22.685 -33.078  14.633  0.00  0.00    -0.389 OA
ATOM     28  H   LIG    1       22.695 -32.703  15.535  0.00  0.00    +0.210 HD
ENDBRANCH  10  27
BRANCH   4  29
ATOM     29  C   LIG    1       26.512 -30.025  11.364  0.00  0.00    +0.182 C 
ATOM     30  O   LIG    1       27.242 -30.360  12.303  0.00  0.00    -0.293 OA
BRANCH  29  31
ATOM     31  C   LIG    1       26.812 -28.775  10.566  0.00  0.00    +0.186 C 
ATOM     32 CL   LIG    1       26.841 -27.371  11.645  0.00  0.00    -0.117 Cl
ENDBRANCH  29  31
ENDBRANCH   4  29
TORSDOF 3
ENDMDL
