MODEL 1
REMARK VINA RESULT:      -9.8      0.000      0.000
REMARK  Name = *****
REMARK                            x       y       z     vdW  Elec       q    Type
REMARK                         _______ _______ _______ _____ _____    ______ ____
ROOT
ATOM      1  C   LIG    1       24.370 -21.791   6.925  0.00  0.00    +0.190 C 
ENDROOT
BRANCH   1   2
ATOM      2  C   LIG    1       23.994 -20.780   5.832  0.00  0.00    -0.005 A 
ATOM      3  C   LIG    1       22.862 -19.956   5.968  0.00  0.00    +0.007 A 
ATOM      4  C   LIG    1       22.509 -19.040   4.970  0.00  0.00    +0.000 A 
ATOM      5  C   LIG    1       23.281 -18.926   3.818  0.00  0.00    +0.000 A 
ATOM      6  C   LIG    1       24.412 -19.722   3.668  0.00  0.00    +0.000 A 
ATOM      7  C   LIG    1       24.767 -20.636   4.663  0.00  0.00    +0.007 A 
ENDBRANCH   1   2
BRANCH   1   8
ATOM      8  C   LIG    1       24.867 -23.141   6.344  0.00  0.00    +0.036 C 
ATOM      9  C   LIG    1       25.840 -23.897   7.265  0.00  0.00    +0.007 C 
ATOM     10  C   LIG    1       25.820 -25.309   6.707  0.00  0.00    +0.000 C 
ATOM     11  C   LIG    1       24.349 -25.549   6.413  0.00  0.00    +0.000 C 
ATOM     12  C   LIG    1       23.758 -24.179   6.077  0.00  0.00    +0.007 C 
ENDBRANCH   1   8
BRANCH   1  13
ATOM     13  C   LIG    1       25.431 -21.171   7.881  0.00  0.00    +0.344 C 
ATOM     14  O   LIG    1       25.514 -21.431   9.078  0.00  0.00    -0.247 OA
BRANCH  13  15
ATOM     15  O   LIG    1       26.272 -20.295   7.244  0.00  0.00    -0.454 OA
BRANCH  15  19
ATOM     16  C   LIG    1       29.291 -18.803   8.547  0.00  0.00    +0.192 C 
ATOM     17  N   LIG    1       29.594 -20.105   7.810  0.00  0.00    +0.242 N 
ATOM     18  C   LIG    1       28.439 -21.108   7.958  0.00  0.00    +0.178 C 
ATOM     19  C   LIG    1       27.502 -20.866   6.765  0.00  0.00    +0.226 C 
ATOM     20  C   LIG    1       28.226 -19.882   5.849  0.00  0.00    +0.101 C 
ATOM     21  C   LIG    1       29.671 -19.886   6.303  0.00  0.00    +0.136 C 
ATOM     22  C   LIG    1       30.893 -20.682   8.347  0.00  0.00    +0.192 C 
ENDBRANCH  15  19
ENDBRANCH  13  15
ENDBRANCH   1  13
BRANCH   1  23
ATOM     23  O   LIG    1       23.216 -22.074   7.739  0.00  0.00    -0.373 OA
ATOM     24  H   LIG    1       23.547 -22.253   8.641  0.00  0.00    +0.211 HD
ENDBRANCH   1  23
TORSDOF 6
ENDMDL
MODEL 2
REMARK VINA RESULT:      -9.6      0.896      1.253
REMARK  Name = *****
REMARK                            x       y       z     vdW  Elec       q    Type
REMARK                         _______ _______ _______ _____ _____    ______ ____
ROOT
ATOM      1  C   LIG    1       24.807 -21.494   6.928  0.00  0.00    +0.190 C 
ENDROOT
BRANCH   1   2
ATOM      2  C   LIG    1       24.269 -20.563   5.832  0.00  0.00    -0.005 A 
ATOM      3  C   LIG    1       22.951 -20.074   5.881  0.00  0.00    +0.007 A 
ATOM      4  C   LIG    1       22.453 -19.234   4.879  0.00  0.00    +0.000 A 
ATOM      5  C   LIG    1       23.262 -18.862   3.809  0.00  0.00    +0.000 A 
ATOM      6  C   LIG    1       24.572 -19.324   3.747  0.00  0.00    +0.000 A 
ATOM      7  C   LIG    1       25.072 -20.162   4.746  0.00  0.00    +0.007 A 
ENDBRANCH   1   2
BRANCH   1   8
ATOM      8  C   LIG    1       25.510 -22.752   6.352  0.00  0.00    +0.036 C 
ATOM      9  C   LIG    1       25.765 -23.856   7.393  0.00  0.00    +0.007 C 
ATOM     10  C   LIG    1       26.027 -25.084   6.539  0.00  0.00    +0.000 C 
ATOM     11  C   LIG    1       24.978 -24.981   5.444  0.00  0.00    +0.000 C 
ATOM     12  C   LIG    1       24.722 -23.486   5.248  0.00  0.00    +0.007 C 
ENDBRANCH   1   8
BRANCH   1  13
ATOM     13  C   LIG    1       25.761 -20.707   7.874  0.00  0.00    +0.344 C 
ATOM     14  O   LIG    1       25.482 -20.395   9.028  0.00  0.00    -0.247 OA
BRANCH  13  15
ATOM     15  O   LIG    1       26.957 -20.395   7.282  0.00  0.00    -0.454 OA
BRANCH  15  19
ATOM     16  C   LIG    1       29.944 -18.743   6.101  0.00  0.00    +0.192 C 
ATOM     17  N   LIG    1       30.102 -19.199   7.549  0.00  0.00    +0.242 N 
ATOM     18  C   LIG    1       28.763 -19.141   8.299  0.00  0.00    +0.178 C 
ATOM     19  C   LIG    1       28.112 -20.522   8.130  0.00  0.00    +0.226 C 
ATOM     20  C   LIG    1       29.165 -21.409   7.468  0.00  0.00    +0.101 C 
ATOM     21  C   LIG    1       30.480 -20.674   7.630  0.00  0.00    +0.136 C 
ATOM     22  C   LIG    1       31.148 -18.328   8.225  0.00  0.00    +0.192 C 
ENDBRANCH  15  19
ENDBRANCH  13  15
ENDBRANCH   1  13
BRANCH   1  23
ATOM     23  O   LIG    1       23.717 -21.952   7.752  0.00  0.00    -0.373 OA
ATOM     24  H   LIG    1       24.063 -22.690   8.289  0.00  0.00    +0.211 HD
ENDBRANCH   1  23
TORSDOF 6
ENDMDL
MODEL 3
REMARK VINA RESULT:      -8.8      1.323      3.897
REMARK  Name = *****
REMARK                            x       y       z     vdW  Elec       q    Type
REMARK                         _______ _______ _______ _____ _____    ______ ____
ROOT
ATOM      1  C   LIG    1       25.449 -21.050   6.071  0.00  0.00    +0.190 C 
ENDROOT
BRANCH   1   2
ATOM      2  C   LIG    1       25.398 -22.584   6.091  0.00  0.00    -0.005 A 
ATOM      3  C   LIG    1       25.818 -23.307   7.222  0.00  0.00    +0.007 A 
ATOM      4  C   LIG    1       25.784 -24.706   7.241  0.00  0.00    +0.000 A 
ATOM      5  C   LIG    1       25.327 -25.411   6.133  0.00  0.00    +0.000 A 
ATOM      6  C   LIG    1       24.895 -24.717   5.008  0.00  0.00    +0.000 A 
ATOM      7  C   LIG    1       24.927 -23.321   4.986  0.00  0.00    +0.007 A 
ENDBRANCH   1   2
BRANCH   1   8
ATOM      8  C   LIG    1       24.044 -20.407   5.919  0.00  0.00    +0.036 C 
ATOM      9  C   LIG    1       23.829 -19.686   4.578  0.00  0.00    +0.007 C 
ATOM     10  C   LIG    1       22.319 -19.550   4.495  0.00  0.00    +0.000 C 
ATOM     11  C   LIG    1       21.817 -20.899   4.984  0.00  0.00    +0.000 C 
ATOM     12  C   LIG    1       22.867 -21.402   5.976  0.00  0.00    +0.007 C 
ENDBRANCH   1   8
BRANCH   1  13
ATOM     13  C   LIG    1       26.167 -20.524   7.348  0.00  0.00    +0.344 C 
ATOM     14  O   LIG    1       25.635 -20.434   8.450  0.00  0.00    -0.247 OA
BRANCH  13  15
ATOM     15  O   LIG    1       27.471 -20.168   7.114  0.00  0.00    -0.454 OA
BRANCH  15  19
ATOM     16  C   LIG    1       30.908 -19.237   6.518  0.00  0.00    +0.192 C 
ATOM     17  N   LIG    1       30.640 -19.428   8.008  0.00  0.00    +0.242 N 
ATOM     18  C   LIG    1       29.201 -19.029   8.369  0.00  0.00    +0.178 C 
ATOM     19  C   LIG    1       28.354 -20.304   8.241  0.00  0.00    +0.226 C 
ATOM     20  C   LIG    1       29.340 -21.447   8.012  0.00  0.00    +0.101 C 
ATOM     21  C   LIG    1       30.699 -20.901   8.399  0.00  0.00    +0.136 C 
ATOM     22  C   LIG    1       31.651 -18.612   8.797  0.00  0.00    +0.192 C 
ENDBRANCH  15  19
ENDBRANCH  13  15
ENDBRANCH   1  13
BRANCH   1  23
ATOM     23  O   LIG    1       26.244 -20.607   4.955  0.00  0.00    -0.373 OA
ATOM     24  H   LIG    1       26.607 -21.410   4.533  0.00  0.00    +0.211 HD
ENDBRANCH   1  23
TORSDOF 6
ENDMDL
MODEL 4
REMARK VINA RESULT:      -8.0      2.443      5.788
REMARK  Name = *****
REMARK                            x       y       z     vdW  Elec       q    Type
REMARK                         _______ _______ _______ _____ _____    ______ ____
ROOT
ATOM      1  C   LIG    1       23.710 -21.881   6.726  0.00  0.00    +0.190 C 
ENDROOT
BRANCH   1   2
ATOM      2  C   LIG    1       25.200 -21.577   6.940  0.00  0.00    -0.005 A 
ATOM      3  C   LIG    1       25.903 -22.131   8.025  0.00  0.00    +0.007 A 
ATOM      4  C   LIG    1       27.258 -21.849   8.229  0.00  0.00    +0.000 A 
ATOM      5  C   LIG    1       27.939 -21.009   7.354  0.00  0.00    +0.000 A 
ATOM      6  C   LIG    1       27.268 -20.459   6.268  0.00  0.00    +0.000 A 
ATOM      7  C   LIG    1       25.915 -20.740   6.060  0.00  0.00    +0.007 A 
ENDBRANCH   1   2
BRANCH   1   8
ATOM      8  C   LIG    1       23.118 -21.137   5.499  0.00  0.00    +0.036 C 
ATOM      9  C   LIG    1       22.765 -19.665   5.772  0.00  0.00    +0.007 C 
ATOM     10  C   LIG    1       22.644 -19.073   4.379  0.00  0.00    +0.000 C 
ATOM     11  C   LIG    1       23.818 -19.687   3.633  0.00  0.00    +0.000 C 
ATOM     12  C   LIG    1       24.057 -21.053   4.278  0.00  0.00    +0.007 C 
ENDBRANCH   1   8
BRANCH   1  13
ATOM     13  C   LIG    1       23.493 -23.418   6.605  0.00  0.00    +0.344 C 
ATOM     14  O   LIG    1       22.441 -23.987   6.878  0.00  0.00    -0.247 OA
BRANCH  13  15
ATOM     15  O   LIG    1       24.608 -24.078   6.158  0.00  0.00    -0.454 OA
BRANCH  15  19
ATOM     16  C   LIG    1       26.323 -27.031   7.329  0.00  0.00    +0.192 C 
ATOM     17  N   LIG    1       25.248 -27.388   6.306  0.00  0.00    +0.242 N 
ATOM     18  C   LIG    1       24.055 -26.424   6.395  0.00  0.00    +0.178 C 
ATOM     19  C   LIG    1       24.350 -25.280   5.412  0.00  0.00    +0.226 C 
ATOM     20  C   LIG    1       25.593 -25.702   4.632  0.00  0.00    +0.101 C 
ATOM     21  C   LIG    1       25.749 -27.188   4.880  0.00  0.00    +0.136 C 
ATOM     22  C   LIG    1       24.810 -28.825   6.536  0.00  0.00    +0.192 C 
ENDBRANCH  15  19
ENDBRANCH  13  15
ENDBRANCH   1  13
BRANCH   1  23
ATOM     23  O   LIG    1       22.960 -21.462   7.883  0.00  0.00    -0.373 OA
ATOM     24  H   LIG    1       22.124 -21.966   7.871  0.00  0.00    +0.211 HD
ENDBRANCH   1  23
TORSDOF 6
ENDMDL
MODEL 5
REMARK VINA RESULT:      -7.8      2.667      5.389
REMARK  Name = *****
REMARK                            x       y       z     vdW  Elec       q    Type
REMARK                         _______ _______ _______ _____ _____    ______ ____
ROOT
ATOM      1  C   LIG    1       24.680 -22.393   5.846  0.00  0.00    +0.190 C 
ENDROOT
BRANCH   1   2
ATOM      2  C   LIG    1       23.967 -21.152   5.291  0.00  0.00    -0.005 A 
ATOM      3  C   LIG    1       24.223 -20.694   3.985  0.00  0.00    +0.007 A 
ATOM      4  C   LIG    1       23.583 -19.558   3.479  0.00  0.00    +0.000 A 
ATOM      5  C   LIG    1       22.672 -18.857   4.264  0.00  0.00    +0.000 A 
ATOM      6  C   LIG    1       22.395 -19.299   5.553  0.00  0.00    +0.000 A 
ATOM      7  C   LIG    1       23.031 -20.433   6.061  0.00  0.00    +0.007 A 
ENDBRANCH   1   2
BRANCH   1   8
ATOM      8  C   LIG    1       25.790 -22.037   6.871  0.00  0.00    +0.036 C 
ATOM      9  C   LIG    1       26.642 -20.820   6.470  0.00  0.00    +0.007 C 
ATOM     10  C   LIG    1       27.312 -20.421   7.772  0.00  0.00    +0.000 C 
ATOM     11  C   LIG    1       26.197 -20.554   8.796  0.00  0.00    +0.000 C 
ATOM     12  C   LIG    1       25.278 -21.660   8.275  0.00  0.00    +0.007 C 
ENDBRANCH   1   8
BRANCH   1  13
ATOM     13  C   LIG    1       23.641 -23.371   6.468  0.00  0.00    +0.344 C 
ATOM     14  O   LIG    1       22.454 -23.102   6.630  0.00  0.00    -0.247 OA
BRANCH  13  15
ATOM     15  O   LIG    1       24.190 -24.577   6.818  0.00  0.00    -0.454 OA
BRANCH  15  19
ATOM     16  C   LIG    1       24.769 -28.094   7.400  0.00  0.00    +0.192 C 
ATOM     17  N   LIG    1       25.036 -27.726   5.943  0.00  0.00    +0.242 N 
ATOM     18  C   LIG    1       24.107 -26.593   5.478  0.00  0.00    +0.178 C 
ATOM     19  C   LIG    1       24.855 -25.280   5.754  0.00  0.00    +0.226 C 
ATOM     20  C   LIG    1       26.268 -25.678   6.177  0.00  0.00    +0.101 C 
ATOM     21  C   LIG    1       26.427 -27.127   5.766  0.00  0.00    +0.136 C 
ATOM     22  C   LIG    1       24.860 -28.967   5.084  0.00  0.00    +0.192 C 
ENDBRANCH  15  19
ENDBRANCH  13  15
ENDBRANCH   1  13
BRANCH   1  23
ATOM     23  O   LIG    1       25.309 -23.113   4.767  0.00  0.00    -0.373 OA
ATOM     24  H   LIG    1       25.537 -22.452   4.086  0.00  0.00    +0.211 HD
ENDBRANCH   1  23
TORSDOF 6
ENDMDL
MODEL 6
REMARK VINA RESULT:      -7.7      2.428      5.939
REMARK  Name = *****
REMARK                            x       y       z     vdW  Elec       q    Type
REMARK                         _______ _______ _______ _____ _____    ______ ____
ROOT
ATOM      1  C   LIG    1       25.027 -21.496   6.362  0.00  0.00    +0.190 C 
ENDROOT
BRANCH   1   2
ATOM      2  C   LIG    1       26.509 -21.161   6.584  0.00  0.00    -0.005 A 
ATOM      3  C   LIG    1       27.247 -21.787   7.604  0.00  0.00    +0.007 A 
ATOM      4  C   LIG    1       28.595 -21.477   7.817  0.00  0.00    +0.000 A 
ATOM      5  C   LIG    1       29.233 -20.537   7.014  0.00  0.00    +0.000 A 
ATOM      6  C   LIG    1       28.526 -19.915   5.991  0.00  0.00    +0.000 A 
ATOM      7  C   LIG    1       27.182 -20.223   5.776  0.00  0.00    +0.007 A 
ENDBRANCH   1   2
BRANCH   1   8
ATOM      8  C   LIG    1       24.204 -20.274   5.874  0.00  0.00    +0.036 C 
ATOM      9  C   LIG    1       24.410 -19.936   4.388  0.00  0.00    +0.007 C 
ATOM     10  C   LIG    1       23.221 -19.047   4.066  0.00  0.00    +0.000 C 
ATOM     11  C   LIG    1       22.066 -19.736   4.773  0.00  0.00    +0.000 C 
ATOM     12  C   LIG    1       22.675 -20.435   5.990  0.00  0.00    +0.007 C 
ENDBRANCH   1   8
BRANCH   1  13
ATOM     13  C   LIG    1       24.894 -22.690   5.371  0.00  0.00    +0.344 C 
ATOM     14  O   LIG    1       24.542 -22.576   4.200  0.00  0.00    -0.247 OA
BRANCH  13  15
ATOM     15  O   LIG    1       25.215 -23.893   5.944  0.00  0.00    -0.454 OA
BRANCH  15  19
ATOM     16  C   LIG    1       26.154 -27.080   7.359  0.00  0.00    +0.192 C 
ATOM     17  N   LIG    1       25.004 -27.235   6.368  0.00  0.00    +0.242 N 
ATOM     18  C   LIG    1       24.094 -25.997   6.374  0.00  0.00    +0.178 C 
ATOM     19  C   LIG    1       24.648 -25.048   5.301  0.00  0.00    +0.226 C 
ATOM     20  C   LIG    1       25.729 -25.831   4.559  0.00  0.00    +0.101 C 
ATOM     21  C   LIG    1       25.511 -27.284   4.931  0.00  0.00    +0.136 C 
ATOM     22  C   LIG    1       24.223 -28.492   6.715  0.00  0.00    +0.192 C 
ENDBRANCH  15  19
ENDBRANCH  13  15
ENDBRANCH   1  13
BRANCH   1  23
ATOM     23  O   LIG    1       24.441 -21.940   7.601  0.00  0.00    -0.373 OA
ATOM     24  H   LIG    1       24.995 -21.577   8.318  0.00  0.00    +0.211 HD
ENDBRANCH   1  23
TORSDOF 6
ENDMDL
MODEL 7
REMARK VINA RESULT:      -7.5      2.201      5.639
REMARK  Name = *****
REMARK                            x       y       z     vdW  Elec       q    Type
REMARK                         _______ _______ _______ _____ _____    ______ ____
ROOT
ATOM      1  C   LIG    1       25.949 -21.028   6.973  0.00  0.00    +0.190 C 
ENDROOT
BRANCH   1   2
ATOM      2  C   LIG    1       27.299 -20.305   6.859  0.00  0.00    -0.005 A 
ATOM      3  C   LIG    1       28.064 -20.015   8.004  0.00  0.00    +0.007 A 
ATOM      4  C   LIG    1       29.289 -19.347   7.905  0.00  0.00    +0.000 A 
ATOM      5  C   LIG    1       29.779 -18.958   6.662  0.00  0.00    +0.000 A 
ATOM      6  C   LIG    1       29.046 -19.246   5.516  0.00  0.00    +0.000 A 
ATOM      7  C   LIG    1       27.822 -19.913   5.610  0.00  0.00    +0.007 A 
ENDBRANCH   1   2
BRANCH   1   8
ATOM      8  C   LIG    1       25.188 -21.088   5.622  0.00  0.00    +0.036 C 
ATOM      9  C   LIG    1       23.657 -21.094   5.768  0.00  0.00    +0.007 C 
ATOM     10  C   LIG    1       23.174 -20.715   4.379  0.00  0.00    +0.000 C 
ATOM     11  C   LIG    1       24.124 -19.603   3.968  0.00  0.00    +0.000 C 
ATOM     12  C   LIG    1       25.447 -19.897   4.678  0.00  0.00    +0.007 C 
ENDBRANCH   1   8
BRANCH   1  13
ATOM     13  C   LIG    1       26.157 -22.454   7.561  0.00  0.00    +0.344 C 
ATOM     14  O   LIG    1       26.381 -22.684   8.745  0.00  0.00    -0.247 OA
BRANCH  13  15
ATOM     15  O   LIG    1       26.064 -23.438   6.610  0.00  0.00    -0.454 OA
BRANCH  15  19
ATOM     16  C   LIG    1       25.515 -25.924   4.049  0.00  0.00    +0.192 C 
ATOM     17  N   LIG    1       25.311 -26.514   5.442  0.00  0.00    +0.242 N 
ATOM     18  C   LIG    1       26.242 -25.850   6.468  0.00  0.00    +0.178 C 
ATOM     19  C   LIG    1       25.461 -24.665   7.057  0.00  0.00    +0.226 C 
ATOM     20  C   LIG    1       24.037 -24.787   6.519  0.00  0.00    +0.101 C 
ATOM     21  C   LIG    1       23.920 -26.198   5.981  0.00  0.00    +0.136 C 
ATOM     22  C   LIG    1       25.546 -28.014   5.378  0.00  0.00    +0.192 C 
ENDBRANCH  15  19
ENDBRANCH  13  15
ENDBRANCH   1  13
BRANCH   1  23
ATOM     23  O   LIG    1       25.105 -20.330   7.909  0.00  0.00    -0.373 OA
ATOM     24  H   LIG    1       24.492 -19.784   7.380  0.00  0.00    +0.211 HD
ENDBRANCH   1  23
TORSDOF 6
ENDMDL
MODEL 8
REMARK VINA RESULT:      -7.0      2.156      5.128
REMARK  Name = *****
REMARK                            x       y       z     vdW  Elec       q    Type
REMARK                         _______ _______ _______ _____ _____    ______ ____
ROOT
ATOM      1  C   LIG    1       25.447 -21.193   6.164  0.00  0.00    +0.190 C 
ENDROOT
BRANCH   1   2
ATOM      2  C   LIG    1       24.404 -20.343   5.423  0.00  0.00    -0.005 A 
ATOM      3  C   LIG    1       24.723 -19.697   4.215  0.00  0.00    +0.007 A 
ATOM      4  C   LIG    1       23.779 -18.914   3.542  0.00  0.00    +0.000 A 
ATOM      5  C   LIG    1       22.497 -18.761   4.061  0.00  0.00    +0.000 A 
ATOM      6  C   LIG    1       22.156 -19.401   5.247  0.00  0.00    +0.000 A 
ATOM      7  C   LIG    1       23.095 -20.184   5.920  0.00  0.00    +0.007 A 
ENDBRANCH   1   2
BRANCH   1   8
ATOM      8  C   LIG    1       26.530 -20.331   6.867  0.00  0.00    +0.036 C 
ATOM      9  C   LIG    1       27.247 -21.051   8.022  0.00  0.00    +0.007 C 
ATOM     10  C   LIG    1       28.496 -20.212   8.231  0.00  0.00    +0.000 C 
ATOM     11  C   LIG    1       28.958 -19.911   6.815  0.00  0.00    +0.000 C 
ATOM     12  C   LIG    1       27.692 -19.882   5.957  0.00  0.00    +0.007 C 
ENDBRANCH   1   8
BRANCH   1  13
ATOM     13  C   LIG    1       24.740 -22.138   7.179  0.00  0.00    +0.344 C 
ATOM     14  O   LIG    1       23.908 -21.766   8.001  0.00  0.00    -0.247 OA
BRANCH  13  15
ATOM     15  O   LIG    1       25.146 -23.442   7.061  0.00  0.00    -0.454 OA
BRANCH  15  19
ATOM     16  C   LIG    1       26.431 -26.747   6.376  0.00  0.00    +0.192 C 
ATOM     17  N   LIG    1       24.976 -26.619   5.933  0.00  0.00    +0.242 N 
ATOM     18  C   LIG    1       24.198 -25.662   6.849  0.00  0.00    +0.178 C 
ATOM     19  C   LIG    1       24.320 -24.266   6.219  0.00  0.00    +0.226 C 
ATOM     20  C   LIG    1       24.983 -24.471   4.858  0.00  0.00    +0.101 C 
ATOM     21  C   LIG    1       24.867 -25.953   4.565  0.00  0.00    +0.136 C 
ATOM     22  C   LIG    1       24.344 -28.001   5.921  0.00  0.00    +0.192 C 
ENDBRANCH  15  19
ENDBRANCH  13  15
ENDBRANCH   1  13
BRANCH   1  23
ATOM     23  O   LIG    1       26.125 -22.051   5.226  0.00  0.00    -0.373 OA
ATOM     24  H   LIG    1       26.849 -22.486   5.717  0.00  0.00    +0.211 HD
ENDBRANCH   1  23
TORSDOF 6
ENDMDL
MODEL 9
REMARK VINA RESULT:      -7.0      2.120      5.300
REMARK  Name = *****
REMARK                            x       y       z     vdW  Elec       q    Type
REMARK                         _______ _______ _______ _____ _____    ______ ____
ROOT
ATOM      1  C   LIG    1       26.645 -21.119   6.504  0.00  0.00    +0.190 C 
ENDROOT
BRANCH   1   2
ATOM      2  C   LIG    1       25.313 -20.612   5.934  0.00  0.00    -0.005 A 
ATOM      3  C   LIG    1       25.238 -20.078   4.635  0.00  0.00    +0.007 A 
ATOM      4  C   LIG    1       24.028 -19.605   4.115  0.00  0.00    +0.000 A 
ATOM      5  C   LIG    1       22.867 -19.658   4.881  0.00  0.00    +0.000 A 
ATOM      6  C   LIG    1       22.915 -20.192   6.164  0.00  0.00    +0.000 A 
ATOM      7  C   LIG    1       24.121 -20.666   6.685  0.00  0.00    +0.007 A 
ENDBRANCH   1   2
BRANCH   1   8
ATOM      8  C   LIG    1       27.525 -19.975   7.075  0.00  0.00    +0.036 C 
ATOM      9  C   LIG    1       28.588 -20.449   8.082  0.00  0.00    +0.007 C 
ATOM     10  C   LIG    1       29.556 -19.280   8.140  0.00  0.00    +0.000 C 
ATOM     11  C   LIG    1       29.688 -18.861   6.685  0.00  0.00    +0.000 C 
ATOM     12  C   LIG    1       28.353 -19.208   6.025  0.00  0.00    +0.007 C 
ENDBRANCH   1   8
BRANCH   1  13
ATOM     13  C   LIG    1       26.382 -22.212   7.581  0.00  0.00    +0.344 C 
ATOM     14  O   LIG    1       26.072 -21.971   8.744  0.00  0.00    -0.247 OA
BRANCH  13  15
ATOM     15  O   LIG    1       26.532 -23.484   7.094  0.00  0.00    -0.454 OA
BRANCH  15  19
ATOM     16  C   LIG    1       26.880 -26.693   5.473  0.00  0.00    +0.192 C 
ATOM     17  N   LIG    1       25.475 -26.512   6.041  0.00  0.00    +0.242 N 
ATOM     18  C   LIG    1       25.498 -25.663   7.321  0.00  0.00    +0.178 C 
ATOM     19  C   LIG    1       25.306 -24.205   6.877  0.00  0.00    +0.226 C 
ATOM     20  C   LIG    1       24.973 -24.256   5.387  0.00  0.00    +0.101 C 
ATOM     21  C   LIG    1       24.596 -25.695   5.100  0.00  0.00    +0.136 C 
ATOM     22  C   LIG    1       24.872 -27.882   6.302  0.00  0.00    +0.192 C 
ENDBRANCH  15  19
ENDBRANCH  13  15
ENDBRANCH   1  13
BRANCH   1  23
ATOM     23  O   LIG    1       27.403 -21.762   5.461  0.00  0.00    -0.373 OA
ATOM     24  H   LIG    1       27.261 -22.723   5.564  0.00  0.00    +0.211 HD
ENDBRANCH   1  23
TORSDOF 6
ENDMDL
