MODEL 1
REMARK VINA RESULT:      -6.0      0.000      0.000
REMARK  Name = *****
REMARK                            x       y       z     vdW  Elec       q    Type
REMARK                         _______ _______ _______ _____ _____    ______ ____
ROOT
ATOM      1  O   LIG    1       25.485 -16.125   3.918  0.00  0.00    -0.458 OA
ENDROOT
BRANCH   1   3
ATOM      2  C   LIG    1       24.242 -14.052   3.868  0.00  0.00    +0.032 C 
ATOM      3  C   LIG    1       25.170 -14.993   3.066  0.00  0.00    +0.180 C 
ATOM      4  C   LIG    1       26.481 -14.311   2.669  0.00  0.00    +0.048 C 
ATOM      5  C   LIG    1       27.096 -13.376   3.728  0.00  0.00    -0.011 C 
ATOM      6  C   LIG    1       28.589 -13.682   3.915  0.00  0.00    +0.007 C 
ATOM      7  C   LIG    1       26.409 -13.313   5.101  0.00  0.00    +0.004 C 
ATOM      8  C   LIG    1       24.934 -13.701   5.196  0.00  0.00    +0.007 C 
BRANCH   2  10
ATOM      9  C   LIG    1       23.801 -11.517   3.947  0.00  0.00    +0.007 C 
ATOM     10  C   LIG    1       23.738 -12.792   3.099  0.00  0.00    -0.011 C 
ATOM     11  C   LIG    1       24.555 -12.537   1.819  0.00  0.00    +0.007 C 
ENDBRANCH   2  10
ENDBRANCH   1   3
BRANCH   1  12
ATOM     12  C   LIG    1       25.631 -17.348   3.340  0.00  0.00    +0.341 C 
ATOM     13  O   LIG    1       26.493 -17.688   2.555  0.00  0.00    -0.245 OA
BRANCH  12  14
ATOM     14  C   LIG    1       24.554 -18.240   3.876  0.00  0.00    +0.080 A 
ATOM     15  C   LIG    1       24.851 -19.549   4.314  0.00  0.00    +0.039 A 
ATOM     16  C   LIG    1       23.791 -20.358   4.748  0.00  0.00    +0.023 A 
ATOM     17  C   LIG    1       22.490 -19.859   4.856  0.00  0.00    +0.002 A 
ATOM     18  C   LIG    1       22.218 -18.544   4.497  0.00  0.00    +0.001 A 
ATOM     19  C   LIG    1       23.241 -17.741   4.005  0.00  0.00    +0.017 A 
BRANCH  15  20
ATOM     20  N   LIG    1       26.109 -20.151   4.116  0.00  0.00    -0.357 N 
ATOM     21  H   LIG    1       26.759 -19.958   4.882  0.00  0.00    +0.142 HD
ATOM     22  H   LIG    1       26.058 -21.144   3.905  0.00  0.00    +0.142 HD
ENDBRANCH  15  20
ENDBRANCH  12  14
ENDBRANCH   1  12
TORSDOF 5
ENDMDL
MODEL 2
REMARK VINA RESULT:      -5.8      0.794      2.676
REMARK  Name = *****
REMARK                            x       y       z     vdW  Elec       q    Type
REMARK                         _______ _______ _______ _____ _____    ______ ____
ROOT
ATOM      1  O   LIG    1       25.046 -16.084   3.392  0.00  0.00    -0.458 OA
ENDROOT
BRANCH   1   3
ATOM      2  C   LIG    1       27.112 -14.873   3.720  0.00  0.00    +0.032 C 
ATOM      3  C   LIG    1       25.723 -15.195   4.318  0.00  0.00    +0.180 C 
ATOM      4  C   LIG    1       24.865 -13.941   4.494  0.00  0.00    +0.048 C 
ATOM      5  C   LIG    1       24.971 -12.894   3.369  0.00  0.00    -0.011 C 
ATOM      6  C   LIG    1       23.574 -12.450   2.911  0.00  0.00    +0.007 C 
ATOM      7  C   LIG    1       25.822 -13.257   2.142  0.00  0.00    +0.004 C 
ATOM      8  C   LIG    1       26.913 -14.314   2.299  0.00  0.00    +0.007 C 
BRANCH   2  10
ATOM      9  C   LIG    1       28.693 -12.843   3.799  0.00  0.00    +0.007 C 
ATOM     10  C   LIG    1       28.028 -13.968   4.600  0.00  0.00    -0.011 C 
ATOM     11  C   LIG    1       27.247 -13.314   5.755  0.00  0.00    +0.007 C 
ENDBRANCH   2  10
ENDBRANCH   1   3
BRANCH   1  12
ATOM     12  C   LIG    1       25.471 -17.374   3.309  0.00  0.00    +0.341 C 
ATOM     13  O   LIG    1       26.547 -17.766   2.903  0.00  0.00    -0.245 OA
BRANCH  12  14
ATOM     14  C   LIG    1       24.387 -18.251   3.856  0.00  0.00    +0.080 A 
ATOM     15  C   LIG    1       24.671 -19.561   4.298  0.00  0.00    +0.039 A 
ATOM     16  C   LIG    1       23.603 -20.355   4.742  0.00  0.00    +0.023 A 
ATOM     17  C   LIG    1       22.309 -19.839   4.855  0.00  0.00    +0.002 A 
ATOM     18  C   LIG    1       22.051 -18.522   4.492  0.00  0.00    +0.001 A 
ATOM     19  C   LIG    1       23.081 -17.734   3.990  0.00  0.00    +0.017 A 
BRANCH  15  20
ATOM     20  N   LIG    1       25.919 -20.180   4.096  0.00  0.00    -0.357 N 
ATOM     21  H   LIG    1       26.646 -19.513   3.823  0.00  0.00    +0.142 HD
ATOM     22  H   LIG    1       26.216 -20.766   4.871  0.00  0.00    +0.142 HD
ENDBRANCH  15  20
ENDBRANCH  12  14
ENDBRANCH   1  12
TORSDOF 5
ENDMDL
MODEL 3
REMARK VINA RESULT:      -5.1      1.721      3.443
REMARK  Name = *****
REMARK                            x       y       z     vdW  Elec       q    Type
REMARK                         _______ _______ _______ _____ _____    ______ ____
ROOT
ATOM      1  O   LIG    1       23.983 -14.939   3.671  0.00  0.00    -0.458 OA
ENDROOT
BRANCH   1   3
ATOM      2  C   LIG    1       26.217 -14.137   4.128  0.00  0.00    +0.032 C 
ATOM      3  C   LIG    1       24.714 -13.944   4.435  0.00  0.00    +0.180 C 
ATOM      4  C   LIG    1       24.213 -12.559   4.025  0.00  0.00    +0.048 C 
ATOM      5  C   LIG    1       24.784 -12.004   2.706  0.00  0.00    -0.011 C 
ATOM      6  C   LIG    1       23.656 -11.469   1.812  0.00  0.00    +0.007 C 
ATOM      7  C   LIG    1       25.694 -12.930   1.884  0.00  0.00    +0.004 C 
ATOM      8  C   LIG    1       26.415 -14.069   2.603  0.00  0.00    +0.007 C 
BRANCH   2  10
ATOM      9  C   LIG    1       27.456 -13.670   6.336  0.00  0.00    +0.007 C 
ATOM     10  C   LIG    1       27.186 -13.193   4.904  0.00  0.00    -0.011 C 
ATOM     11  C   LIG    1       28.548 -13.062   4.196  0.00  0.00    +0.007 C 
ENDBRANCH   2  10
ENDBRANCH   1   3
BRANCH   1  12
ATOM     12  C   LIG    1       23.280 -15.885   4.351  0.00  0.00    +0.341 C 
ATOM     13  O   LIG    1       22.325 -15.706   5.080  0.00  0.00    -0.245 OA
BRANCH  12  14
ATOM     14  C   LIG    1       23.863 -17.223   4.009  0.00  0.00    +0.080 A 
ATOM     15  C   LIG    1       23.065 -18.386   4.034  0.00  0.00    +0.039 A 
ATOM     16  C   LIG    1       23.681 -19.618   3.764  0.00  0.00    +0.023 A 
ATOM     17  C   LIG    1       25.020 -19.691   3.369  0.00  0.00    +0.002 A 
ATOM     18  C   LIG    1       25.780 -18.531   3.270  0.00  0.00    +0.001 A 
ATOM     19  C   LIG    1       25.208 -17.305   3.593  0.00  0.00    +0.017 A 
BRANCH  15  20
ATOM     20  N   LIG    1       21.751 -18.399   4.541  0.00  0.00    -0.357 N 
ATOM     21  H   LIG    1       21.461 -19.330   4.852  0.00  0.00    +0.142 HD
ATOM     22  H   LIG    1       21.580 -17.693   5.252  0.00  0.00    +0.142 HD
ENDBRANCH  15  20
ENDBRANCH  12  14
ENDBRANCH   1  12
TORSDOF 5
ENDMDL
MODEL 4
REMARK VINA RESULT:      -4.0      1.179      1.606
REMARK  Name = *****
REMARK                            x       y       z     vdW  Elec       q    Type
REMARK                         _______ _______ _______ _____ _____    ______ ____
ROOT
ATOM      1  O   LIG    1       24.940 -16.352   3.930  0.00  0.00    -0.458 OA
ENDROOT
BRANCH   1   3
ATOM      2  C   LIG    1       23.991 -14.140   3.712  0.00  0.00    +0.032 C 
ATOM      3  C   LIG    1       24.908 -15.196   3.053  0.00  0.00    +0.180 C 
ATOM      4  C   LIG    1       26.339 -14.688   2.873  0.00  0.00    +0.048 C 
ATOM      5  C   LIG    1       26.894 -13.830   4.026  0.00  0.00    -0.011 C 
ATOM      6  C   LIG    1       28.290 -14.321   4.439  0.00  0.00    +0.007 C 
ATOM      7  C   LIG    1       26.015 -13.670   5.276  0.00  0.00    +0.004 C 
ATOM      8  C   LIG    1       24.507 -13.868   5.136  0.00  0.00    +0.007 C 
BRANCH   2  10
ATOM      9  C   LIG    1       23.779 -11.574   3.766  0.00  0.00    +0.007 C 
ATOM     10  C   LIG    1       23.775 -12.832   2.889  0.00  0.00    -0.011 C 
ATOM     11  C   LIG    1       24.861 -12.647   1.812  0.00  0.00    +0.007 C 
ENDBRANCH   2  10
ENDBRANCH   1   3
BRANCH   1  12
ATOM     12  C   LIG    1       25.298 -17.554   3.401  0.00  0.00    +0.341 C 
ATOM     13  O   LIG    1       26.152 -17.759   2.562  0.00  0.00    -0.245 OA
BRANCH  12  14
ATOM     14  C   LIG    1       24.477 -18.612   4.072  0.00  0.00    +0.080 A 
ATOM     15  C   LIG    1       23.097 -18.421   4.299  0.00  0.00    +0.039 A 
ATOM     16  C   LIG    1       22.395 -19.423   4.986  0.00  0.00    +0.023 A 
ATOM     17  C   LIG    1       23.006 -20.629   5.340  0.00  0.00    +0.002 A 
ATOM     18  C   LIG    1       24.347 -20.842   5.043  0.00  0.00    +0.001 A 
ATOM     19  C   LIG    1       25.080 -19.840   4.418  0.00  0.00    +0.017 A 
BRANCH  15  20
ATOM     20  N   LIG    1       22.452 -17.189   4.081  0.00  0.00    -0.357 N 
ATOM     21  H   LIG    1       21.670 -17.037   4.724  0.00  0.00    +0.142 HD
ATOM     22  H   LIG    1       23.085 -16.393   4.062  0.00  0.00    +0.142 HD
ENDBRANCH  15  20
ENDBRANCH  12  14
ENDBRANCH   1  12
TORSDOF 5
ENDMDL
MODEL 5
REMARK VINA RESULT:      -3.9      1.494      2.263
REMARK  Name = *****
REMARK                            x       y       z     vdW  Elec       q    Type
REMARK                         _______ _______ _______ _____ _____    ______ ____
ROOT
ATOM      1  O   LIG    1       25.031 -15.566   3.617  0.00  0.00    -0.458 OA
ENDROOT
BRANCH   1   3
ATOM      2  C   LIG    1       24.435 -13.429   4.577  0.00  0.00    +0.032 C 
ATOM      3  C   LIG    1       24.849 -14.166   3.282  0.00  0.00    +0.180 C 
ATOM      4  C   LIG    1       26.163 -13.634   2.708  0.00  0.00    +0.048 C 
ATOM      5  C   LIG    1       27.247 -13.274   3.742  0.00  0.00    -0.011 C 
ATOM      6  C   LIG    1       28.597 -13.889   3.346  0.00  0.00    +0.007 C 
ATOM      7  C   LIG    1       26.951 -13.589   5.217  0.00  0.00    +0.004 C 
ATOM      8  C   LIG    1       25.494 -13.713   5.657  0.00  0.00    +0.007 C 
BRANCH   2  10
ATOM      9  C   LIG    1       23.735 -11.533   2.982  0.00  0.00    +0.007 C 
ATOM     10  C   LIG    1       24.133 -11.908   4.415  0.00  0.00    -0.011 C 
ATOM     11  C   LIG    1       22.994 -11.448   5.345  0.00  0.00    +0.007 C 
ENDBRANCH   2  10
ENDBRANCH   1   3
BRANCH   1  12
ATOM     12  C   LIG    1       23.947 -16.276   4.034  0.00  0.00    +0.341 C 
ATOM     13  O   LIG    1       22.880 -15.831   4.407  0.00  0.00    -0.245 OA
BRANCH  12  14
ATOM     14  C   LIG    1       24.277 -17.732   3.912  0.00  0.00    +0.080 A 
ATOM     15  C   LIG    1       23.271 -18.714   4.035  0.00  0.00    +0.039 A 
ATOM     16  C   LIG    1       23.652 -20.063   3.972  0.00  0.00    +0.023 A 
ATOM     17  C   LIG    1       24.968 -20.436   3.685  0.00  0.00    +0.002 A 
ATOM     18  C   LIG    1       25.939 -19.462   3.487  0.00  0.00    +0.001 A 
ATOM     19  C   LIG    1       25.599 -18.119   3.605  0.00  0.00    +0.017 A 
BRANCH  15  20
ATOM     20  N   LIG    1       21.958 -18.413   4.446  0.00  0.00    -0.357 N 
ATOM     21  H   LIG    1       21.287 -18.459   3.675  0.00  0.00    +0.142 HD
ATOM     22  H   LIG    1       21.648 -18.952   5.250  0.00  0.00    +0.142 HD
ENDBRANCH  15  20
ENDBRANCH  12  14
ENDBRANCH   1  12
TORSDOF 5
ENDMDL
MODEL 6
REMARK VINA RESULT:      -3.5      2.069      3.862
REMARK  Name = *****
REMARK                            x       y       z     vdW  Elec       q    Type
REMARK                         _______ _______ _______ _____ _____    ______ ____
ROOT
ATOM      1  O   LIG    1       26.455 -16.411   3.069  0.00  0.00    -0.458 OA
ENDROOT
BRANCH   1   3
ATOM      2  C   LIG    1       27.439 -14.224   3.368  0.00  0.00    +0.032 C 
ATOM      3  C   LIG    1       26.658 -15.368   4.056  0.00  0.00    +0.180 C 
ATOM      4  C   LIG    1       25.290 -14.910   4.562  0.00  0.00    +0.048 C 
ATOM      5  C   LIG    1       24.530 -13.932   3.646  0.00  0.00    -0.011 C 
ATOM      6  C   LIG    1       23.079 -14.394   3.447  0.00  0.00    +0.007 C 
ATOM      7  C   LIG    1       25.158 -13.608   2.281  0.00  0.00    +0.004 C 
ATOM      8  C   LIG    1       26.664 -13.794   2.110  0.00  0.00    +0.007 C 
BRANCH   2  10
ATOM      9  C   LIG    1       27.773 -13.378   5.777  0.00  0.00    +0.007 C 
ATOM     10  C   LIG    1       27.813 -13.020   4.286  0.00  0.00    -0.011 C 
ATOM     11  C   LIG    1       29.223 -12.480   3.979  0.00  0.00    +0.007 C 
ENDBRANCH   2  10
ENDBRANCH   1   3
BRANCH   1  12
ATOM     12  C   LIG    1       25.963 -17.609   3.487  0.00  0.00    +0.341 C 
ATOM     13  O   LIG    1       24.886 -18.097   3.207  0.00  0.00    -0.245 OA
BRANCH  12  14
ATOM     14  C   LIG    1       27.010 -18.264   4.335  0.00  0.00    +0.080 A 
ATOM     15  C   LIG    1       26.831 -19.578   4.818  0.00  0.00    +0.039 A 
ATOM     16  C   LIG    1       27.819 -20.115   5.657  0.00  0.00    +0.023 A 
ATOM     17  C   LIG    1       29.004 -19.423   5.923  0.00  0.00    +0.002 A 
ATOM     18  C   LIG    1       29.208 -18.160   5.380  0.00  0.00    +0.001 A 
ATOM     19  C   LIG    1       28.217 -17.581   4.595  0.00  0.00    +0.017 A 
BRANCH  15  20
ATOM     20  N   LIG    1       25.615 -20.277   4.692  0.00  0.00    -0.357 N 
ATOM     21  H   LIG    1       24.800 -19.673   4.826  0.00  0.00    +0.142 HD
ATOM     22  H   LIG    1       25.544 -20.823   3.837  0.00  0.00    +0.142 HD
ENDBRANCH  15  20
ENDBRANCH  12  14
ENDBRANCH   1  12
TORSDOF 5
ENDMDL
MODEL 7
REMARK VINA RESULT:      -3.0      2.113      2.934
REMARK  Name = *****
REMARK                            x       y       z     vdW  Elec       q    Type
REMARK                         _______ _______ _______ _____ _____    ______ ____
ROOT
ATOM      1  O   LIG    1       26.930 -16.175   3.797  0.00  0.00    -0.458 OA
ENDROOT
BRANCH   1   3
ATOM      2  C   LIG    1       25.119 -14.583   3.967  0.00  0.00    +0.032 C 
ATOM      3  C   LIG    1       26.213 -15.164   3.042  0.00  0.00    +0.180 C 
ATOM      4  C   LIG    1       27.215 -14.099   2.592  0.00  0.00    +0.048 C 
ATOM      5  C   LIG    1       27.611 -13.060   3.659  0.00  0.00    -0.011 C 
ATOM      6  C   LIG    1       29.137 -12.900   3.715  0.00  0.00    +0.007 C 
ATOM      7  C   LIG    1       27.063 -13.261   5.080  0.00  0.00    +0.004 C 
ATOM      8  C   LIG    1       25.789 -14.085   5.260  0.00  0.00    +0.007 C 
BRANCH   2  10
ATOM      9  C   LIG    1       24.033 -12.259   4.189  0.00  0.00    +0.007 C 
ATOM     10  C   LIG    1       24.191 -13.511   3.318  0.00  0.00    -0.011 C 
ATOM     11  C   LIG    1       24.718 -13.054   1.944  0.00  0.00    +0.007 C 
ENDBRANCH   2  10
ENDBRANCH   1   3
BRANCH   1  12
ATOM     12  C   LIG    1       26.556 -17.475   3.650  0.00  0.00    +0.341 C 
ATOM     13  O   LIG    1       25.715 -17.914   2.893  0.00  0.00    -0.245 OA
BRANCH  12  14
ATOM     14  C   LIG    1       27.405 -18.303   4.567  0.00  0.00    +0.080 A 
ATOM     15  C   LIG    1       26.990 -19.589   4.970  0.00  0.00    +0.039 A 
ATOM     16  C   LIG    1       27.799 -20.291   5.878  0.00  0.00    +0.023 A 
ATOM     17  C   LIG    1       29.036 -19.789   6.290  0.00  0.00    +0.002 A 
ATOM     18  C   LIG    1       29.475 -18.555   5.826  0.00  0.00    +0.001 A 
ATOM     19  C   LIG    1       28.664 -17.812   4.975  0.00  0.00    +0.017 A 
BRANCH  15  20
ATOM     20  N   LIG    1       25.707 -20.098   4.694  0.00  0.00    -0.357 N 
ATOM     21  H   LIG    1       25.718 -21.103   4.499  0.00  0.00    +0.142 HD
ATOM     22  H   LIG    1       25.011 -19.858   5.395  0.00  0.00    +0.142 HD
ENDBRANCH  15  20
ENDBRANCH  12  14
ENDBRANCH   1  12
TORSDOF 5
ENDMDL
