MODEL 1
REMARK VINA RESULT:      -4.3      0.000      0.000
REMARK  Name = *****
REMARK                            x       y       z     vdW  Elec       q    Type
REMARK                         _______ _______ _______ _____ _____    ______ ____
ROOT
ATOM      1  C   LIG    1       23.594 -30.284  10.684  0.00  0.00    +0.006 A 
ATOM      2  C   LIG    1       22.324 -30.772  10.769  0.00  0.00    +0.028 A 
ATOM      3  C   LIG    1       21.373 -30.222  11.748  0.00  0.00    +0.154 A 
ATOM      4  C   LIG    1       20.157 -30.770  11.936  0.00  0.00    +0.108 C 
ATOM      5  C   LIG    1       19.731 -31.967  11.145  0.00  0.00    +0.210 C 
ATOM      6  C   LIG    1       20.651 -32.429  10.062  0.00  0.00    +0.066 C 
ATOM      7 BR   LIG    1       20.091 -33.825   8.952  0.00  0.00    -0.046 Br
ATOM      8  O   LIG    1       18.670 -32.547  11.367  0.00  0.00    -0.285 OA
ATOM      9 BR   LIG    1       18.929 -30.101  13.189  0.00  0.00    -0.043 Br
ATOM     10  O   LIG    1       21.731 -29.108  12.491  0.00  0.00    -0.452 OA
ATOM     11  C   LIG    1       23.023 -28.655  12.491  0.00  0.00    +0.154 A 
ATOM     12  C   LIG    1       23.354 -27.624  13.388  0.00  0.00    +0.103 A 
ATOM     13 BR   LIG    1       22.020 -26.891  14.535  0.00  0.00    -0.043 Br
ATOM     14  C   LIG    1       24.664 -27.145  13.443  0.00  0.00    +0.148 A 
ATOM     15  C   LIG    1       25.630 -27.690  12.599  0.00  0.00    +0.061 A 
ATOM     16 BR   LIG    1       27.424 -27.076  12.649  0.00  0.00    -0.046 Br
ATOM     17  C   LIG    1       25.294 -28.707  11.701  0.00  0.00    +0.031 A 
ATOM     18  C   LIG    1       21.852 -31.853   9.900  0.00  0.00    +0.031 C 
ATOM     19  C   LIG    1       23.982 -29.204  11.636  0.00  0.00    +0.028 A 
ENDROOT
BRANCH   1  21
ATOM     20  C   LIG    1       25.417 -31.941  10.047  0.00  0.00    +0.088 A 
ATOM     21  C   LIG    1       24.572 -30.859   9.697  0.00  0.00    +0.019 A 
ATOM     22  C   LIG    1       24.656 -30.319   8.392  0.00  0.00    +0.069 A 
ATOM     23 CL   LIG    1       23.624 -28.984   7.953  0.00  0.00    -0.081 Cl
ATOM     24  C   LIG    1       25.563 -30.849   7.456  0.00  0.00    +0.080 A 
ATOM     25 CL   LIG    1       25.659 -30.166   5.856  0.00  0.00    -0.081 Cl
ATOM     26  C   LIG    1       26.392 -31.927   7.814  0.00  0.00    +0.080 A 
ATOM     27 CL   LIG    1       27.522 -32.578   6.660  0.00  0.00    -0.081 Cl
ATOM     28  C   LIG    1       26.316 -32.477   9.108  0.00  0.00    +0.075 A 
ATOM     29 CL   LIG    1       27.327 -33.825   9.544  0.00  0.00    -0.081 Cl
BRANCH  20  31
ATOM     30  O   LIG    1       25.948 -32.116  12.350  0.00  0.00    -0.245 OA
ATOM     31  C   LIG    1       25.305 -32.531  11.404  0.00  0.00    +0.339 C 
BRANCH  31  32
ATOM     32  O   LIG    1       24.519 -33.624  11.459  0.00  0.00    -0.477 OA
ATOM     33  H   LIG    1       24.813 -34.357  12.033  0.00  0.00    +0.295 HD
ENDBRANCH  31  32
ENDBRANCH  20  31
ENDBRANCH   1  21
BRANCH  14  34
ATOM     34  O   LIG    1       24.987 -26.150  14.327  0.00  0.00    -0.504 OA
ATOM     35  H   LIG    1       25.925 -26.249  14.572  0.00  0.00    +0.292 HD
ENDBRANCH  14  34
TORSDOF 4
ENDMDL
MODEL 2
REMARK VINA RESULT:      -3.6      3.525      5.594
REMARK  Name = *****
REMARK                            x       y       z     vdW  Elec       q    Type
REMARK                         _______ _______ _______ _____ _____    ______ ____
ROOT
ATOM      1  C   LIG    1       24.201 -29.876  11.490  0.00  0.00    +0.006 A 
ATOM      2  C   LIG    1       23.326 -30.840  11.893  0.00  0.00    +0.028 A 
ATOM      3  C   LIG    1       22.728 -31.766  10.917  0.00  0.00    +0.154 A 
ATOM      4  C   LIG    1       21.769 -32.642  11.272  0.00  0.00    +0.108 C 
ATOM      5  C   LIG    1       21.276 -32.703  12.683  0.00  0.00    +0.210 C 
ATOM      6  C   LIG    1       21.985 -31.854  13.687  0.00  0.00    +0.066 C 
ATOM      7 BR   LIG    1       21.503 -32.010  15.487  0.00  0.00    -0.046 Br
ATOM      8  O   LIG    1       20.333 -33.420  13.011  0.00  0.00    -0.285 OA
ATOM      9 BR   LIG    1       20.978 -33.825  10.046  0.00  0.00    -0.043 Br
ATOM     10  O   LIG    1       23.168 -31.745   9.603  0.00  0.00    -0.452 OA
ATOM     11  C   LIG    1       23.976 -30.734   9.155  0.00  0.00    +0.154 A 
ATOM     12  C   LIG    1       24.253 -30.682   7.777  0.00  0.00    +0.103 A 
ATOM     13 BR   LIG    1       23.530 -32.001   6.607  0.00  0.00    -0.043 Br
ATOM     14  C   LIG    1       25.051 -29.657   7.267  0.00  0.00    +0.148 A 
ATOM     15  C   LIG    1       25.573 -28.698   8.133  0.00  0.00    +0.061 A 
ATOM     16 BR   LIG    1       26.653 -27.281   7.481  0.00  0.00    -0.046 Br
ATOM     17  C   LIG    1       25.304 -28.760   9.503  0.00  0.00    +0.031 A 
ATOM     18  C   LIG    1       22.942 -30.998  13.298  0.00  0.00    +0.031 C 
ATOM     19  C   LIG    1       24.499 -29.782  10.032  0.00  0.00    +0.028 A 
ENDROOT
BRANCH   1  21
ATOM     20  C   LIG    1       26.125 -29.069  12.947  0.00  0.00    +0.088 A 
ATOM     21  C   LIG    1       24.795 -28.916  12.484  0.00  0.00    +0.019 A 
ATOM     22  C   LIG    1       24.020 -27.838  12.971  0.00  0.00    +0.069 A 
ATOM     23 CL   LIG    1       22.379 -27.644  12.413  0.00  0.00    -0.081 Cl
ATOM     24  C   LIG    1       24.562 -26.929  13.899  0.00  0.00    +0.080 A 
ATOM     25 CL   LIG    1       23.591 -25.611  14.494  0.00  0.00    -0.081 Cl
ATOM     26  C   LIG    1       25.886 -27.088  14.345  0.00  0.00    +0.080 A 
ATOM     27 CL   LIG    1       26.557 -25.969  15.500  0.00  0.00    -0.081 Cl
ATOM     28  C   LIG    1       26.670 -28.155  13.865  0.00  0.00    +0.075 A 
ATOM     29 CL   LIG    1       28.316 -28.339  14.402  0.00  0.00    -0.081 Cl
BRANCH  20  31
ATOM     30  O   LIG    1       27.747 -30.020  11.505  0.00  0.00    -0.245 OA
ATOM     31  C   LIG    1       26.950 -30.179  12.410  0.00  0.00    +0.339 C 
BRANCH  31  32
ATOM     32  O   LIG    1       26.650 -31.383  12.936  0.00  0.00    -0.477 OA
ATOM     33  H   LIG    1       25.714 -31.662  12.911  0.00  0.00    +0.295 HD
ENDBRANCH  31  32
ENDBRANCH  20  31
ENDBRANCH   1  21
BRANCH  14  34
ATOM     34  O   LIG    1       25.309 -29.601   5.922  0.00  0.00    -0.504 OA
ATOM     35  H   LIG    1       25.518 -28.679   5.688  0.00  0.00    +0.292 HD
ENDBRANCH  14  34
TORSDOF 4
ENDMDL
MODEL 3
REMARK VINA RESULT:      -3.2      3.366      5.947
REMARK  Name = *****
REMARK                            x       y       z     vdW  Elec       q    Type
REMARK                         _______ _______ _______ _____ _____    ______ ____
ROOT
ATOM      1  C   LIG    1       24.082 -31.688  11.712  0.00  0.00    +0.006 A 
ATOM      2  C   LIG    1       22.783 -31.531  12.094  0.00  0.00    +0.028 A 
ATOM      3  C   LIG    1       21.685 -31.925  11.196  0.00  0.00    +0.154 A 
ATOM      4  C   LIG    1       20.399 -31.665  11.498  0.00  0.00    +0.108 C 
ATOM      5  C   LIG    1       20.042 -30.961  12.770  0.00  0.00    +0.210 C 
ATOM      6  C   LIG    1       21.153 -30.690  13.731  0.00  0.00    +0.066 C 
ATOM      7 BR   LIG    1       20.732 -29.949  15.395  0.00  0.00    -0.046 Br
ATOM      8  O   LIG    1       18.888 -30.622  13.022  0.00  0.00    -0.285 OA
ATOM      9 BR   LIG    1       18.978 -32.141  10.365  0.00  0.00    -0.043 Br
ATOM     10  O   LIG    1       21.978 -32.588  10.015  0.00  0.00    -0.452 OA
ATOM     11  C   LIG    1       23.269 -32.678   9.568  0.00  0.00    +0.154 A 
ATOM     12  C   LIG    1       23.481 -33.219   8.287  0.00  0.00    +0.103 A 
ATOM     13 BR   LIG    1       22.000 -33.816   7.246  0.00  0.00    -0.043 Br
ATOM     14  C   LIG    1       24.776 -33.310   7.776  0.00  0.00    +0.148 A 
ATOM     15  C   LIG    1       25.851 -32.869   8.548  0.00  0.00    +0.061 A 
ATOM     16 BR   LIG    1       27.627 -32.964   7.888  0.00  0.00    -0.046 Br
ATOM     17  C   LIG    1       25.637 -32.343   9.825  0.00  0.00    +0.031 A 
ATOM     18  C   LIG    1       22.423 -30.970  13.398  0.00  0.00    +0.031 C 
ATOM     19  C   LIG    1       24.339 -32.240  10.352  0.00  0.00    +0.028 A 
ENDROOT
BRANCH   1  21
ATOM     20  C   LIG    1       25.719 -29.947  12.588  0.00  0.00    +0.088 A 
ATOM     21  C   LIG    1       25.204 -31.267  12.622  0.00  0.00    +0.019 A 
ATOM     22  C   LIG    1       25.760 -32.197  13.531  0.00  0.00    +0.069 A 
ATOM     23 CL   LIG    1       25.137 -33.825  13.577  0.00  0.00    -0.081 Cl
ATOM     24  C   LIG    1       26.807 -31.817  14.391  0.00  0.00    +0.080 A 
ATOM     25 CL   LIG    1       27.486 -32.977  15.500  0.00  0.00    -0.081 Cl
ATOM     26  C   LIG    1       27.305 -30.503  14.353  0.00  0.00    +0.080 A 
ATOM     27 CL   LIG    1       28.607 -30.033  15.410  0.00  0.00    -0.081 Cl
ATOM     28  C   LIG    1       26.758 -29.565  13.455  0.00  0.00    +0.075 A 
ATOM     29 CL   LIG    1       27.361 -27.933  13.423  0.00  0.00    -0.081 Cl
BRANCH  20  31
ATOM     30  O   LIG    1       25.529 -28.791  10.529  0.00  0.00    -0.245 OA
ATOM     31  C   LIG    1       25.113 -28.963  11.659  0.00  0.00    +0.339 C 
BRANCH  31  32
ATOM     32  O   LIG    1       24.146 -28.210  12.220  0.00  0.00    -0.477 OA
ATOM     33  H   LIG    1       23.317 -28.098  11.715  0.00  0.00    +0.295 HD
ENDBRANCH  31  32
ENDBRANCH  20  31
ENDBRANCH   1  21
BRANCH  14  34
ATOM     34  O   LIG    1       24.979 -33.825   6.523  0.00  0.00    -0.504 OA
ATOM     35  H   LIG    1       24.765 -33.135   5.869  0.00  0.00    +0.292 HD
ENDBRANCH  14  34
TORSDOF 4
ENDMDL
MODEL 4
REMARK VINA RESULT:      -3.0      3.246      5.461
REMARK  Name = *****
REMARK                            x       y       z     vdW  Elec       q    Type
REMARK                         _______ _______ _______ _____ _____    ______ ____
ROOT
ATOM      1  C   LIG    1       24.100 -31.192  11.765  0.00  0.00    +0.006 A 
ATOM      2  C   LIG    1       22.809 -31.029  12.173  0.00  0.00    +0.028 A 
ATOM      3  C   LIG    1       21.695 -31.539  11.358  0.00  0.00    +0.154 A 
ATOM      4  C   LIG    1       20.412 -31.281  11.676  0.00  0.00    +0.108 C 
ATOM      5  C   LIG    1       20.076 -30.460  12.881  0.00  0.00    +0.210 C 
ATOM      6  C   LIG    1       21.209 -30.065  13.771  0.00  0.00    +0.066 C 
ATOM      7 BR   LIG    1       20.820 -29.168  15.365  0.00  0.00    -0.046 Br
ATOM      8  O   LIG    1       18.921 -30.125  13.137  0.00  0.00    -0.285 OA
ATOM      9 BR   LIG    1       18.971 -31.906  10.647  0.00  0.00    -0.043 Br
ATOM     10  O   LIG    1       21.969 -32.312  10.240  0.00  0.00    -0.452 OA
ATOM     11  C   LIG    1       23.247 -32.416   9.761  0.00  0.00    +0.154 A 
ATOM     12  C   LIG    1       23.433 -33.080   8.535  0.00  0.00    +0.103 A 
ATOM     13 BR   LIG    1       21.938 -33.815   7.611  0.00  0.00    -0.043 Br
ATOM     14  C   LIG    1       24.714 -33.190   7.991  0.00  0.00    +0.148 A 
ATOM     15  C   LIG    1       25.800 -32.646   8.677  0.00  0.00    +0.061 A 
ATOM     16 BR   LIG    1       27.556 -32.764   7.970  0.00  0.00    -0.046 Br
ATOM     17  C   LIG    1       25.611 -31.997   9.901  0.00  0.00    +0.031 A 
ATOM     18  C   LIG    1       22.475 -30.346  13.425  0.00  0.00    +0.031 C 
ATOM     19  C   LIG    1       24.328 -31.873  10.459  0.00  0.00    +0.028 A 
ENDROOT
BRANCH   1  21
ATOM     20  C   LIG    1       25.877 -31.449  13.569  0.00  0.00    +0.088 A 
ATOM     21  C   LIG    1       25.237 -30.652  12.587  0.00  0.00    +0.019 A 
ATOM     22  C   LIG    1       25.685 -29.325  12.384  0.00  0.00    +0.069 A 
ATOM     23 CL   LIG    1       24.902 -28.333  11.183  0.00  0.00    -0.081 Cl
ATOM     24  C   LIG    1       26.751 -28.807  13.143  0.00  0.00    +0.080 A 
ATOM     25 CL   LIG    1       27.285 -27.168  12.885  0.00  0.00    -0.081 Cl
ATOM     26  C   LIG    1       27.381 -29.611  14.109  0.00  0.00    +0.080 A 
ATOM     27 CL   LIG    1       28.694 -28.968  15.056  0.00  0.00    -0.081 Cl
ATOM     28  C   LIG    1       26.948 -30.934  14.319  0.00  0.00    +0.075 A 
ATOM     29 CL   LIG    1       27.742 -31.936  15.500  0.00  0.00    -0.081 Cl
BRANCH  20  31
ATOM     30  O   LIG    1       24.584 -33.161  14.575  0.00  0.00    -0.245 OA
ATOM     31  C   LIG    1       25.430 -32.851  13.757  0.00  0.00    +0.339 C 
BRANCH  31  32
ATOM     32  O   LIG    1       26.123 -33.746  13.026  0.00  0.00    -0.477 OA
ATOM     33  H   LIG    1       27.097 -33.680  13.045  0.00  0.00    +0.295 HD
ENDBRANCH  31  32
ENDBRANCH  20  31
ENDBRANCH   1  21
BRANCH  14  34
ATOM     34  O   LIG    1       24.891 -33.825   6.791  0.00  0.00    -0.504 OA
ATOM     35  H   LIG    1       25.196 -33.169   6.138  0.00  0.00    +0.292 HD
ENDBRANCH  14  34
TORSDOF 4
ENDMDL
MODEL 5
REMARK VINA RESULT:      -2.7      3.395      5.943
REMARK  Name = *****
REMARK                            x       y       z     vdW  Elec       q    Type
REMARK                         _______ _______ _______ _____ _____    ______ ____
ROOT
ATOM      1  C   LIG    1       24.116 -31.399  11.570  0.00  0.00    +0.006 A 
ATOM      2  C   LIG    1       24.384 -31.892  10.328  0.00  0.00    +0.028 A 
ATOM      3  C   LIG    1       23.291 -32.192   9.388  0.00  0.00    +0.154 A 
ATOM      4  C   LIG    1       23.521 -32.795   8.207  0.00  0.00    +0.108 C 
ATOM      5  C   LIG    1       24.910 -33.184   7.807  0.00  0.00    +0.210 C 
ATOM      6  C   LIG    1       26.022 -32.752   8.708  0.00  0.00    +0.066 C 
ATOM      7 BR   LIG    1       27.782 -33.084   8.173  0.00  0.00    -0.046 Br
ATOM      8  O   LIG    1       25.136 -33.825   6.783  0.00  0.00    -0.285 OA
ATOM      9 BR   LIG    1       22.146 -33.204   6.995  0.00  0.00    -0.043 Br
ATOM     10  O   LIG    1       21.993 -31.837   9.721  0.00  0.00    -0.452 OA
ATOM     11  C   LIG    1       21.687 -31.424  10.990  0.00  0.00    +0.154 A 
ATOM     12  C   LIG    1       20.329 -31.235  11.305  0.00  0.00    +0.103 A 
ATOM     13 BR   LIG    1       18.991 -31.532   9.982  0.00  0.00    -0.043 Br
ATOM     14  C   LIG    1       19.963 -30.839  12.593  0.00  0.00    +0.148 A 
ATOM     15  C   LIG    1       20.953 -30.626  13.552  0.00  0.00    +0.061 A 
ATOM     16 BR   LIG    1       20.499 -30.097  15.317  0.00  0.00    -0.046 Br
ATOM     17  C   LIG    1       22.301 -30.804  13.231  0.00  0.00    +0.031 A 
ATOM     18  C   LIG    1       25.754 -32.145   9.875  0.00  0.00    +0.031 C 
ATOM     19  C   LIG    1       22.686 -31.207  11.941  0.00  0.00    +0.028 A 
ENDROOT
BRANCH   1  21
ATOM     20  C   LIG    1       25.882 -29.853  12.556  0.00  0.00    +0.088 A 
ATOM     21  C   LIG    1       25.232 -31.112  12.537  0.00  0.00    +0.019 A 
ATOM     22  C   LIG    1       25.647 -32.111  13.449  0.00  0.00    +0.069 A 
ATOM     23 CL   LIG    1       24.858 -33.666  13.429  0.00  0.00    -0.081 Cl
ATOM     24  C   LIG    1       26.687 -31.858  14.362  0.00  0.00    +0.080 A 
ATOM     25 CL   LIG    1       27.191 -33.102  15.473  0.00  0.00    -0.081 Cl
ATOM     26  C   LIG    1       27.319 -30.602  14.376  0.00  0.00    +0.080 A 
ATOM     27 CL   LIG    1       28.612 -30.289  15.500  0.00  0.00    -0.081 Cl
ATOM     28  C   LIG    1       26.913 -29.597  13.476  0.00  0.00    +0.075 A 
ATOM     29 CL   LIG    1       27.681 -28.035  13.508  0.00  0.00    -0.081 Cl
BRANCH  20  31
ATOM     30  O   LIG    1       25.912 -28.641  10.521  0.00  0.00    -0.245 OA
ATOM     31  C   LIG    1       25.423 -28.794  11.624  0.00  0.00    +0.339 C 
BRANCH  31  32
ATOM     32  O   LIG    1       24.506 -27.962  12.155  0.00  0.00    -0.477 OA
ATOM     33  H   LIG    1       24.379 -27.098  11.717  0.00  0.00    +0.295 HD
ENDBRANCH  31  32
ENDBRANCH  20  31
ENDBRANCH   1  21
BRANCH  14  34
ATOM     34  O   LIG    1       18.640 -30.668  12.902  0.00  0.00    -0.504 OA
ATOM     35  H   LIG    1       18.144 -31.437  12.565  0.00  0.00    +0.292 HD
ENDBRANCH  14  34
TORSDOF 4
ENDMDL
MODEL 6
REMARK VINA RESULT:      -2.6      2.123      5.554
REMARK  Name = *****
REMARK                            x       y       z     vdW  Elec       q    Type
REMARK                         _______ _______ _______ _____ _____    ______ ____
ROOT
ATOM      1  C   LIG    1       22.272 -30.277  12.872  0.00  0.00    +0.006 A 
ATOM      2  C   LIG    1       22.576 -29.097  13.483  0.00  0.00    +0.028 A 
ATOM      3  C   LIG    1       21.525 -28.296  14.131  0.00  0.00    +0.154 A 
ATOM      4  C   LIG    1       21.778 -27.071  14.630  0.00  0.00    +0.108 C 
ATOM      5  C   LIG    1       23.150 -26.481  14.540  0.00  0.00    +0.210 C 
ATOM      6  C   LIG    1       24.234 -27.358  14.003  0.00  0.00    +0.066 C 
ATOM      7 BR   LIG    1       25.989 -26.715  14.014  0.00  0.00    -0.046 Br
ATOM      8  O   LIG    1       23.385 -25.328  14.895  0.00  0.00    -0.285 OA
ATOM      9 BR   LIG    1       20.455 -26.019  15.448  0.00  0.00    -0.043 Br
ATOM     10  O   LIG    1       20.244 -28.815  14.240  0.00  0.00    -0.452 OA
ATOM     11  C   LIG    1       19.893 -29.951  13.562  0.00  0.00    +0.154 A 
ATOM     12  C   LIG    1       18.540 -30.334  13.586  0.00  0.00    +0.103 A 
ATOM     13 BR   LIG    1       17.271 -29.296  14.556  0.00  0.00    -0.043 Br
ATOM     14  C   LIG    1       18.126 -31.471  12.889  0.00  0.00    +0.148 A 
ATOM     15  C   LIG    1       19.065 -32.221  12.182  0.00  0.00    +0.061 A 
ATOM     16 BR   LIG    1       18.545 -33.767  11.213  0.00  0.00    -0.046 Br
ATOM     17  C   LIG    1       20.411 -31.844  12.170  0.00  0.00    +0.031 A 
ATOM     18  C   LIG    1       23.945 -28.577  13.522  0.00  0.00    +0.031 C 
ATOM     19  C   LIG    1       20.842 -30.700  12.862  0.00  0.00    +0.028 A 
ENDROOT
BRANCH   1  21
ATOM     20  C   LIG    1       24.175 -31.966  12.925  0.00  0.00    +0.088 A 
ATOM     21  C   LIG    1       23.342 -31.086  12.191  0.00  0.00    +0.019 A 
ATOM     22  C   LIG    1       23.527 -30.973  10.793  0.00  0.00    +0.069 A 
ATOM     23 CL   LIG    1       22.511 -29.889   9.881  0.00  0.00    -0.081 Cl
ATOM     24  C   LIG    1       24.522 -31.726  10.141  0.00  0.00    +0.080 A 
ATOM     25 CL   LIG    1       24.741 -31.570   8.420  0.00  0.00    -0.081 Cl
ATOM     26  C   LIG    1       25.338 -32.601  10.880  0.00  0.00    +0.080 A 
ATOM     27 CL   LIG    1       26.575 -33.526  10.076  0.00  0.00    -0.081 Cl
ATOM     28  C   LIG    1       25.161 -32.725  12.272  0.00  0.00    +0.075 A 
ATOM     29 CL   LIG    1       26.157 -33.824  13.183  0.00  0.00    -0.081 Cl
BRANCH  20  31
ATOM     30  O   LIG    1       24.570 -31.449  15.204  0.00  0.00    -0.245 OA
ATOM     31  C   LIG    1       23.958 -32.110  14.386  0.00  0.00    +0.339 C 
BRANCH  31  32
ATOM     32  O   LIG    1       23.113 -33.107  14.714  0.00  0.00    -0.477 OA
ATOM     33  H   LIG    1       23.131 -33.910  14.158  0.00  0.00    +0.295 HD
ENDBRANCH  31  32
ENDBRANCH  20  31
ENDBRANCH   1  21
BRANCH  14  34
ATOM     34  O   LIG    1       16.806 -31.834  12.903  0.00  0.00    -0.504 OA
ATOM     35  H   LIG    1       16.751 -32.800  12.788  0.00  0.00    +0.292 HD
ENDBRANCH  14  34
TORSDOF 4
ENDMDL
MODEL 7
REMARK VINA RESULT:      -2.4      3.393      5.570
REMARK  Name = *****
REMARK                            x       y       z     vdW  Elec       q    Type
REMARK                         _______ _______ _______ _____ _____    ______ ____
ROOT
ATOM      1  C   LIG    1       22.672 -30.650  12.035  0.00  0.00    +0.006 A 
ATOM      2  C   LIG    1       21.392 -30.949  12.394  0.00  0.00    +0.028 A 
ATOM      3  C   LIG    1       20.555 -31.808  11.539  0.00  0.00    +0.154 A 
ATOM      4  C   LIG    1       19.252 -32.015  11.808  0.00  0.00    +0.108 C 
ATOM      5  C   LIG    1       18.607 -31.372  12.995  0.00  0.00    +0.210 C 
ATOM      6  C   LIG    1       19.499 -30.616  13.926  0.00  0.00    +0.066 C 
ATOM      7 BR   LIG    1       18.763 -29.925  15.500  0.00  0.00    -0.046 Br
ATOM      8  O   LIG    1       17.399 -31.462  13.206  0.00  0.00    -0.285 OA
ATOM      9 BR   LIG    1       18.156 -33.092  10.727  0.00  0.00    -0.043 Br
ATOM     10  O   LIG    1       21.122 -32.427  10.436  0.00  0.00    -0.452 OA
ATOM     11  C   LIG    1       22.373 -32.076  10.006  0.00  0.00    +0.154 A 
ATOM     12  C   LIG    1       22.824 -32.623   8.791  0.00  0.00    +0.103 A 
ATOM     13 BR   LIG    1       21.712 -33.824   7.814  0.00  0.00    -0.043 Br
ATOM     14  C   LIG    1       24.082 -32.276   8.297  0.00  0.00    +0.148 A 
ATOM     15  C   LIG    1       24.885 -31.395   9.021  0.00  0.00    +0.061 A 
ATOM     16 BR   LIG    1       26.597 -30.889   8.381  0.00  0.00    -0.046 Br
ATOM     17  C   LIG    1       24.438 -30.863  10.233  0.00  0.00    +0.031 A 
ATOM     18  C   LIG    1       20.795 -30.437  13.629  0.00  0.00    +0.031 C 
ATOM     19  C   LIG    1       23.172 -31.198  10.742  0.00  0.00    +0.028 A 
ENDROOT
BRANCH   1  21
ATOM     20  C   LIG    1       24.631 -30.265  13.614  0.00  0.00    +0.088 A 
ATOM     21  C   LIG    1       23.520 -29.756  12.898  0.00  0.00    +0.019 A 
ATOM     22  C   LIG    1       23.211 -28.379  13.002  0.00  0.00    +0.069 A 
ATOM     23 CL   LIG    1       21.843 -27.742  12.128  0.00  0.00    -0.081 Cl
ATOM     24  C   LIG    1       23.997 -27.528  13.801  0.00  0.00    +0.080 A 
ATOM     25 CL   LIG    1       23.598 -25.837  13.923  0.00  0.00    -0.081 Cl
ATOM     26  C   LIG    1       25.101 -28.045  14.502  0.00  0.00    +0.080 A 
ATOM     27 CL   LIG    1       26.069 -26.996  15.500  0.00  0.00    -0.081 Cl
ATOM     28  C   LIG    1       25.422 -29.413  14.405  0.00  0.00    +0.075 A 
ATOM     29 CL   LIG    1       26.801 -30.049  15.255  0.00  0.00    -0.081 Cl
BRANCH  20  31
ATOM     30  O   LIG    1       25.853 -32.094  12.731  0.00  0.00    -0.245 OA
ATOM     31  C   LIG    1       24.976 -31.702  13.478  0.00  0.00    +0.339 C 
BRANCH  31  32
ATOM     32  O   LIG    1       24.159 -32.524  14.165  0.00  0.00    -0.477 OA
ATOM     33  H   LIG    1       23.550 -33.086  13.646  0.00  0.00    +0.295 HD
ENDBRANCH  31  32
ENDBRANCH  20  31
ENDBRANCH   1  21
BRANCH  14  34
ATOM     34  O   LIG    1       24.513 -32.799   7.106  0.00  0.00    -0.504 OA
ATOM     35  H   LIG    1       24.137 -33.693   7.009  0.00  0.00    +0.292 HD
ENDBRANCH  14  34
TORSDOF 4
ENDMDL
MODEL 8
REMARK VINA RESULT:      -2.4      3.721      6.088
REMARK  Name = *****
REMARK                            x       y       z     vdW  Elec       q    Type
REMARK                         _______ _______ _______ _____ _____    ______ ____
ROOT
ATOM      1  C   LIG    1       22.277 -29.420  12.581  0.00  0.00    +0.006 A 
ATOM      2  C   LIG    1       22.420 -30.303  11.553  0.00  0.00    +0.028 A 
ATOM      3  C   LIG    1       23.698 -30.413  10.831  0.00  0.00    +0.154 A 
ATOM      4  C   LIG    1       23.825 -31.186   9.735  0.00  0.00    +0.108 C 
ATOM      5  C   LIG    1       22.660 -31.965   9.212  0.00  0.00    +0.210 C 
ATOM      6  C   LIG    1       21.410 -31.949  10.031  0.00  0.00    +0.066 C 
ATOM      7 BR   LIG    1       19.980 -33.027   9.495  0.00  0.00    -0.046 Br
ATOM      8  O   LIG    1       22.721 -32.595   8.159  0.00  0.00    -0.285 OA
ATOM      9 BR   LIG    1       25.439 -31.333   8.785  0.00  0.00    -0.043 Br
ATOM     10  O   LIG    1       24.802 -29.714  11.293  0.00  0.00    -0.452 OA
ATOM     11  C   LIG    1       24.664 -28.758  12.264  0.00  0.00    +0.154 A 
ATOM     12  C   LIG    1       25.790 -27.974  12.572  0.00  0.00    +0.103 A 
ATOM     13 BR   LIG    1       27.440 -28.273  11.666  0.00  0.00    -0.043 Br
ATOM     14  C   LIG    1       25.695 -26.969  13.536  0.00  0.00    +0.148 A 
ATOM     15  C   LIG    1       24.482 -26.759  14.191  0.00  0.00    +0.061 A 
ATOM     16 BR   LIG    1       24.305 -25.398  15.500  0.00  0.00    -0.046 Br
ATOM     17  C   LIG    1       23.369 -27.548  13.889  0.00  0.00    +0.031 A 
ATOM     18  C   LIG    1       21.322 -31.173  11.122  0.00  0.00    +0.031 C 
ATOM     19  C   LIG    1       23.446 -28.560  12.918  0.00  0.00    +0.028 A 
ENDROOT
BRANCH   1  21
ATOM     20  C   LIG    1       20.385 -30.399  13.974  0.00  0.00    +0.088 A 
ATOM     21  C   LIG    1       20.964 -29.293  13.305  0.00  0.00    +0.019 A 
ATOM     22  C   LIG    1       20.289 -28.050  13.324  0.00  0.00    +0.069 A 
ATOM     23 CL   LIG    1       20.990 -26.683  12.499  0.00  0.00    -0.081 Cl
ATOM     24  C   LIG    1       19.062 -27.914  14.000  0.00  0.00    +0.080 A 
ATOM     25 CL   LIG    1       18.240 -26.378  14.008  0.00  0.00    -0.081 Cl
ATOM     26  C   LIG    1       18.501 -29.018  14.666  0.00  0.00    +0.080 A 
ATOM     27 CL   LIG    1       16.978 -28.854  15.496  0.00  0.00    -0.081 Cl
ATOM     28  C   LIG    1       19.165 -30.260  14.658  0.00  0.00    +0.075 A 
ATOM     29 CL   LIG    1       18.480 -31.621  15.500  0.00  0.00    -0.081 Cl
BRANCH  20  31
ATOM     30  O   LIG    1       20.671 -32.690  13.441  0.00  0.00    -0.245 OA
ATOM     31  C   LIG    1       21.110 -31.694  13.983  0.00  0.00    +0.339 C 
BRANCH  31  32
ATOM     32  O   LIG    1       22.228 -31.685  14.734  0.00  0.00    -0.477 OA
ATOM     33  H   LIG    1       22.780 -30.879  14.706  0.00  0.00    +0.295 HD
ENDBRANCH  31  32
ENDBRANCH  20  31
ENDBRANCH   1  21
BRANCH  14  34
ATOM     34  O   LIG    1       26.790 -26.197  13.825  0.00  0.00    -0.504 OA
ATOM     35  H   LIG    1       26.568 -25.267  13.638  0.00  0.00    +0.292 HD
ENDBRANCH  14  34
TORSDOF 4
ENDMDL
MODEL 9
REMARK VINA RESULT:      -2.4      1.986      2.504
REMARK  Name = *****
REMARK                            x       y       z     vdW  Elec       q    Type
REMARK                         _______ _______ _______ _____ _____    ______ ____
ROOT
ATOM      1  C   LIG    1       22.494 -30.160  12.698  0.00  0.00    +0.006 A 
ATOM      2  C   LIG    1       21.189 -30.553  12.714  0.00  0.00    +0.028 A 
ATOM      3  C   LIG    1       20.172 -29.748  13.410  0.00  0.00    +0.154 A 
ATOM      4  C   LIG    1       18.903 -30.178  13.546  0.00  0.00    +0.108 C 
ATOM      5  C   LIG    1       18.483 -31.501  12.987  0.00  0.00    +0.210 C 
ATOM      6  C   LIG    1       19.489 -32.242  12.168  0.00  0.00    +0.066 C 
ATOM      7 BR   LIG    1       18.960 -33.825  11.325  0.00  0.00    -0.046 Br
ATOM      8  O   LIG    1       17.361 -31.962  13.184  0.00  0.00    -0.285 OA
ATOM      9 BR   LIG    1       17.589 -29.180  14.443  0.00  0.00    -0.043 Br
ATOM     10  O   LIG    1       20.524 -28.513  13.932  0.00  0.00    -0.452 OA
ATOM     11  C   LIG    1       21.838 -28.137  14.008  0.00  0.00    +0.154 A 
ATOM     12  C   LIG    1       22.138 -26.946  14.693  0.00  0.00    +0.103 A 
ATOM     13 BR   LIG    1       20.737 -25.906  15.460  0.00  0.00    -0.043 Br
ATOM     14  C   LIG    1       23.465 -26.532  14.820  0.00  0.00    +0.148 A 
ATOM     15  C   LIG    1       24.481 -27.303  14.256  0.00  0.00    +0.061 A 
ATOM     16 BR   LIG    1       26.299 -26.783  14.414  0.00  0.00    -0.046 Br
ATOM     17  C   LIG    1       24.177 -28.480  13.566  0.00  0.00    +0.031 A 
ATOM     18  C   LIG    1       20.742 -31.779  12.048  0.00  0.00    +0.031 C 
ATOM     19  C   LIG    1       22.847 -28.913  13.434  0.00  0.00    +0.028 A 
ENDROOT
BRANCH   1  21
ATOM     20  C   LIG    1       24.347 -31.905  12.725  0.00  0.00    +0.088 A 
ATOM     21  C   LIG    1       23.536 -30.994  12.004  0.00  0.00    +0.019 A 
ATOM     22  C   LIG    1       23.718 -30.873  10.606  0.00  0.00    +0.069 A 
ATOM     23 CL   LIG    1       22.730 -29.750   9.710  0.00  0.00    -0.081 Cl
ATOM     24  C   LIG    1       24.686 -31.648   9.942  0.00  0.00    +0.080 A 
ATOM     25 CL   LIG    1       24.901 -31.482   8.221  0.00  0.00    -0.081 Cl
ATOM     26  C   LIG    1       25.479 -32.555  10.668  0.00  0.00    +0.080 A 
ATOM     27 CL   LIG    1       26.684 -33.509   9.848  0.00  0.00    -0.081 Cl
ATOM     28  C   LIG    1       25.306 -32.687  12.059  0.00  0.00    +0.075 A 
ATOM     29 CL   LIG    1       26.274 -33.824  12.954  0.00  0.00    -0.081 Cl
BRANCH  20  31
ATOM     30  O   LIG    1       24.851 -31.522  15.008  0.00  0.00    -0.245 OA
ATOM     31  C   LIG    1       24.133 -32.057  14.185  0.00  0.00    +0.339 C 
BRANCH  31  32
ATOM     32  O   LIG    1       23.151 -32.923  14.504  0.00  0.00    -0.477 OA
ATOM     33  H   LIG    1       22.417 -33.021  13.868  0.00  0.00    +0.295 HD
ENDBRANCH  31  32
ENDBRANCH  20  31
ENDBRANCH   1  21
BRANCH  14  34
ATOM     34  O   LIG    1       23.756 -25.379  15.500  0.00  0.00    -0.504 OA
ATOM     35  H   LIG    1       24.704 -25.185  15.385  0.00  0.00    +0.292 HD
ENDBRANCH  14  34
TORSDOF 4
ENDMDL
