MODEL 1
REMARK VINA RESULT:      -8.7      0.000      0.000
REMARK  Name = *****
REMARK                            x       y       z     vdW  Elec       q    Type
REMARK                         _______ _______ _______ _____ _____    ______ ____
ROOT
ATOM      1  C   LIG    1       25.844 -21.974   6.358  0.00  0.00    +0.117 C 
ENDROOT
BRANCH   1   2
ATOM      2  C   LIG    1       24.820 -21.025   5.707  0.00  0.00    -0.026 A 
ATOM      3  C   LIG    1       24.995 -20.484   4.423  0.00  0.00    +0.007 A 
ATOM      4  C   LIG    1       24.025 -19.645   3.859  0.00  0.00    +0.020 A 
ATOM      5  C   LIG    1       22.856 -19.360   4.560  0.00  0.00    +0.041 A 
ATOM      6 CL   LIG    1       21.650 -18.355   3.856  0.00  0.00    -0.084 Cl
ATOM      7  C   LIG    1       22.653 -19.891   5.829  0.00  0.00    +0.020 A 
ATOM      8  C   LIG    1       23.635 -20.701   6.403  0.00  0.00    +0.007 A 
ENDBRANCH   1   2
BRANCH   1  12
ATOM      9  N   LIG    1       29.157 -20.415   7.203  0.00  0.00    -0.298 NA
ATOM     10  C   LIG    1       28.830 -21.852   7.264  0.00  0.00    +0.100 C 
ATOM     11  C   LIG    1       27.586 -22.195   8.111  0.00  0.00    +0.100 C 
ATOM     12  N   LIG    1       26.343 -21.493   7.689  0.00  0.00    -0.289 NA
ATOM     13  C   LIG    1       26.670 -20.045   7.717  0.00  0.00    +0.100 C 
ATOM     14  C   LIG    1       27.931 -19.641   6.906  0.00  0.00    +0.100 C 
BRANCH   9  15
ATOM     15  C   LIG    1       29.825 -19.908   8.417  0.00  0.00    +0.112 C 
BRANCH  15  16
ATOM     16  C   LIG    1       31.165 -20.600   8.721  0.00  0.00    +0.175 C 
BRANCH  16  17
ATOM     17  O   LIG    1       32.155 -19.636   9.088  0.00  0.00    -0.376 OA
BRANCH  17  18
ATOM     18  C   LIG    1       31.841 -18.367   8.507  0.00  0.00    +0.187 C 
BRANCH  18  19
ATOM     19  C   LIG    1       32.238 -17.255   9.464  0.00  0.00    +0.184 C 
BRANCH  19  20
ATOM     20  O   LIG    1       32.662 -16.112   8.732  0.00  0.00    -0.393 OA
ATOM     21  H   LIG    1       32.530 -16.318   7.787  0.00  0.00    +0.209 HD
ENDBRANCH  19  20
ENDBRANCH  18  19
ENDBRANCH  17  18
ENDBRANCH  16  17
ENDBRANCH  15  16
ENDBRANCH   9  15
ENDBRANCH   1  12
BRANCH   1  22
ATOM     22  C   LIG    1       25.321 -23.428   6.404  0.00  0.00    -0.026 A 
ATOM     23  C   LIG    1       26.195 -24.529   6.360  0.00  0.00    +0.005 A 
ATOM     24  C   LIG    1       25.705 -25.835   6.330  0.00  0.00    +0.000 A 
ATOM     25  C   LIG    1       24.333 -26.062   6.371  0.00  0.00    +0.000 A 
ATOM     26  C   LIG    1       23.453 -24.985   6.453  0.00  0.00    +0.000 A 
ATOM     27  C   LIG    1       23.938 -23.675   6.472  0.00  0.00    +0.005 A 
ENDBRANCH   1  22
TORSDOF 9
ENDMDL
MODEL 2
REMARK VINA RESULT:      -8.5      4.508      7.848
REMARK  Name = *****
REMARK                            x       y       z     vdW  Elec       q    Type
REMARK                         _______ _______ _______ _____ _____    ______ ____
ROOT
ATOM      1  C   LIG    1       25.594 -21.609   5.991  0.00  0.00    +0.117 C 
ENDROOT
BRANCH   1   2
ATOM      2  C   LIG    1       26.770 -20.820   6.598  0.00  0.00    -0.026 A 
ATOM      3  C   LIG    1       26.917 -20.621   7.981  0.00  0.00    +0.007 A 
ATOM      4  C   LIG    1       28.016 -19.919   8.492  0.00  0.00    +0.020 A 
ATOM      5  C   LIG    1       28.997 -19.435   7.630  0.00  0.00    +0.041 A 
ATOM      6 CL   LIG    1       30.364 -18.600   8.259  0.00  0.00    -0.084 Cl
ATOM      7  C   LIG    1       28.881 -19.628   6.258  0.00  0.00    +0.020 A 
ATOM      8  C   LIG    1       27.768 -20.298   5.747  0.00  0.00    +0.007 A 
ENDBRANCH   1   2
BRANCH   1  12
ATOM      9  N   LIG    1       25.110 -25.313   5.590  0.00  0.00    -0.298 NA
ATOM     10  C   LIG    1       24.141 -24.263   5.221  0.00  0.00    +0.100 C 
ATOM     11  C   LIG    1       23.794 -23.277   6.356  0.00  0.00    +0.100 C 
ATOM     12  N   LIG    1       24.970 -22.583   6.948  0.00  0.00    -0.289 NA
ATOM     13  C   LIG    1       25.892 -23.659   7.389  0.00  0.00    +0.100 C 
ATOM     14  C   LIG    1       26.257 -24.702   6.297  0.00  0.00    +0.100 C 
BRANCH   9  15
ATOM     15  C   LIG    1       24.519 -26.410   6.383  0.00  0.00    +0.112 C 
BRANCH  15  16
ATOM     16  C   LIG    1       25.547 -27.451   6.859  0.00  0.00    +0.175 C 
BRANCH  16  17
ATOM     17  O   LIG    1       25.460 -28.639   6.068  0.00  0.00    -0.376 OA
BRANCH  17  18
ATOM     18  C   LIG    1       25.109 -29.752   6.895  0.00  0.00    +0.187 C 
BRANCH  18  19
ATOM     19  C   LIG    1       23.986 -30.540   6.241  0.00  0.00    +0.184 C 
BRANCH  19  20
ATOM     20  O   LIG    1       23.169 -29.670   5.467  0.00  0.00    -0.393 OA
ATOM     21  H   LIG    1       22.257 -30.012   5.527  0.00  0.00    +0.209 HD
ENDBRANCH  19  20
ENDBRANCH  18  19
ENDBRANCH  17  18
ENDBRANCH  16  17
ENDBRANCH  15  16
ENDBRANCH   9  15
ENDBRANCH   1  12
BRANCH   1  22
ATOM     22  C   LIG    1       24.558 -20.667   5.336  0.00  0.00    -0.026 A 
ATOM     23  C   LIG    1       24.769 -20.109   4.062  0.00  0.00    +0.005 A 
ATOM     24  C   LIG    1       23.860 -19.205   3.514  0.00  0.00    +0.000 A 
ATOM     25  C   LIG    1       22.710 -18.863   4.219  0.00  0.00    +0.000 A 
ATOM     26  C   LIG    1       22.464 -19.436   5.466  0.00  0.00    +0.000 A 
ATOM     27  C   LIG    1       23.377 -20.333   6.024  0.00  0.00    +0.005 A 
ENDBRANCH   1  22
TORSDOF 9
ENDMDL
MODEL 3
REMARK VINA RESULT:      -7.8      1.129      1.790
REMARK  Name = *****
REMARK                            x       y       z     vdW  Elec       q    Type
REMARK                         _______ _______ _______ _____ _____    ______ ____
ROOT
ATOM      1  C   LIG    1       25.905 -22.195   6.237  0.00  0.00    +0.117 C 
ENDROOT
BRANCH   1   2
ATOM      2  C   LIG    1       24.857 -21.226   5.655  0.00  0.00    -0.026 A 
ATOM      3  C   LIG    1       24.938 -20.715   4.350  0.00  0.00    +0.007 A 
ATOM      4  C   LIG    1       23.949 -19.857   3.853  0.00  0.00    +0.020 A 
ATOM      5  C   LIG    1       22.851 -19.524   4.643  0.00  0.00    +0.041 A 
ATOM      6 CL   LIG    1       21.620 -18.495   4.023  0.00  0.00    -0.084 Cl
ATOM      7  C   LIG    1       22.743 -20.025   5.936  0.00  0.00    +0.020 A 
ATOM      8  C   LIG    1       23.746 -20.854   6.442  0.00  0.00    +0.007 A 
ENDBRANCH   1   2
BRANCH   1  12
ATOM      9  N   LIG    1       28.816 -19.871   6.737  0.00  0.00    -0.298 NA
ATOM     10  C   LIG    1       28.880 -21.343   6.654  0.00  0.00    +0.100 C 
ATOM     11  C   LIG    1       27.951 -22.086   7.638  0.00  0.00    +0.100 C 
ATOM     12  N   LIG    1       26.513 -21.714   7.523  0.00  0.00    -0.289 NA
ATOM     13  C   LIG    1       26.463 -20.241   7.693  0.00  0.00    +0.100 C 
ATOM     14  C   LIG    1       27.401 -19.438   6.751  0.00  0.00    +0.100 C 
BRANCH   9  15
ATOM     15  C   LIG    1       29.555 -19.310   7.884  0.00  0.00    +0.112 C 
BRANCH  15  16
ATOM     16  C   LIG    1       31.048 -19.070   7.600  0.00  0.00    +0.175 C 
BRANCH  16  17
ATOM     17  O   LIG    1       31.829 -20.176   8.060  0.00  0.00    -0.376 OA
BRANCH  17  18
ATOM     18  C   LIG    1       31.309 -20.660   9.301  0.00  0.00    +0.187 C 
BRANCH  18  19
ATOM     19  C   LIG    1       31.270 -22.179   9.281  0.00  0.00    +0.184 C 
BRANCH  19  20
ATOM     20  O   LIG    1       32.341 -22.682   8.491  0.00  0.00    -0.393 OA
ATOM     21  H   LIG    1       32.878 -23.251   9.075  0.00  0.00    +0.209 HD
ENDBRANCH  19  20
ENDBRANCH  18  19
ENDBRANCH  17  18
ENDBRANCH  16  17
ENDBRANCH  15  16
ENDBRANCH   9  15
ENDBRANCH   1  12
BRANCH   1  22
ATOM     22  C   LIG    1       25.354 -23.635   6.336  0.00  0.00    -0.026 A 
ATOM     23  C   LIG    1       26.209 -24.750   6.405  0.00  0.00    +0.005 A 
ATOM     24  C   LIG    1       25.697 -26.048   6.421  0.00  0.00    +0.000 A 
ATOM     25  C   LIG    1       24.321 -26.252   6.397  0.00  0.00    +0.000 A 
ATOM     26  C   LIG    1       23.457 -25.158   6.368  0.00  0.00    +0.000 A 
ATOM     27  C   LIG    1       23.965 -23.857   6.340  0.00  0.00    +0.005 A 
ENDBRANCH   1  22
TORSDOF 9
ENDMDL
MODEL 4
REMARK VINA RESULT:      -7.5      2.137      4.281
REMARK  Name = *****
REMARK                            x       y       z     vdW  Elec       q    Type
REMARK                         _______ _______ _______ _____ _____    ______ ____
ROOT
ATOM      1  C   LIG    1       25.887 -21.600   6.374  0.00  0.00    +0.117 C 
ENDROOT
BRANCH   1   2
ATOM      2  C   LIG    1       25.547 -23.098   6.255  0.00  0.00    -0.026 A 
ATOM      3  C   LIG    1       24.955 -23.654   5.110  0.00  0.00    +0.007 A 
ATOM      4  C   LIG    1       24.687 -25.027   5.035  0.00  0.00    +0.020 A 
ATOM      5  C   LIG    1       25.034 -25.865   6.092  0.00  0.00    +0.041 A 
ATOM      6 CL   LIG    1       24.733 -27.556   5.989  0.00  0.00    -0.084 Cl
ATOM      7  C   LIG    1       25.630 -25.341   7.234  0.00  0.00    +0.020 A 
ATOM      8  C   LIG    1       25.868 -23.968   7.321  0.00  0.00    +0.007 A 
ENDBRANCH   1   2
BRANCH   1  12
ATOM      9  N   LIG    1       28.755 -20.132   8.309  0.00  0.00    -0.298 NA
ATOM     10  C   LIG    1       27.744 -19.378   7.543  0.00  0.00    +0.100 C 
ATOM     11  C   LIG    1       27.588 -19.818   6.072  0.00  0.00    +0.100 C 
ATOM     12  N   LIG    1       27.269 -21.262   5.893  0.00  0.00    -0.289 NA
ATOM     13  C   LIG    1       28.344 -22.002   6.599  0.00  0.00    +0.100 C 
ATOM     14  C   LIG    1       28.570 -21.582   8.078  0.00  0.00    +0.100 C 
BRANCH   9  15
ATOM     15  C   LIG    1       30.143 -19.720   8.023  0.00  0.00    +0.112 C 
BRANCH  15  16
ATOM     16  C   LIG    1       31.184 -20.363   8.955  0.00  0.00    +0.175 C 
BRANCH  16  17
ATOM     17  O   LIG    1       32.124 -19.385   9.406  0.00  0.00    -0.376 OA
BRANCH  17  18
ATOM     18  C   LIG    1       31.936 -18.160   8.691  0.00  0.00    +0.187 C 
BRANCH  18  19
ATOM     19  C   LIG    1       32.270 -16.985   9.595  0.00  0.00    +0.184 C 
BRANCH  19  20
ATOM     20  O   LIG    1       32.762 -15.899   8.819  0.00  0.00    -0.393 OA
ATOM     21  H   LIG    1       33.151 -15.259   9.445  0.00  0.00    +0.209 HD
ENDBRANCH  19  20
ENDBRANCH  18  19
ENDBRANCH  17  18
ENDBRANCH  16  17
ENDBRANCH  15  16
ENDBRANCH   9  15
ENDBRANCH   1  12
BRANCH   1  22
ATOM     22  C   LIG    1       24.796 -20.718   5.727  0.00  0.00    -0.026 A 
ATOM     23  C   LIG    1       23.568 -20.472   6.368  0.00  0.00    +0.005 A 
ATOM     24  C   LIG    1       22.565 -19.734   5.741  0.00  0.00    +0.000 A 
ATOM     25  C   LIG    1       22.782 -19.205   4.472  0.00  0.00    +0.000 A 
ATOM     26  C   LIG    1       24.006 -19.406   3.837  0.00  0.00    +0.000 A 
ATOM     27  C   LIG    1       25.010 -20.153   4.456  0.00  0.00    +0.005 A 
ENDBRANCH   1  22
TORSDOF 9
ENDMDL
MODEL 5
REMARK VINA RESULT:      -6.9      2.377      4.452
REMARK  Name = *****
REMARK                            x       y       z     vdW  Elec       q    Type
REMARK                         _______ _______ _______ _____ _____    ______ ____
ROOT
ATOM      1  C   LIG    1       23.706 -22.109   6.772  0.00  0.00    +0.117 C 
ENDROOT
BRANCH   1   2
ATOM      2  C   LIG    1       24.070 -23.486   6.186  0.00  0.00    -0.026 A 
ATOM      3  C   LIG    1       24.854 -23.637   5.030  0.00  0.00    +0.007 A 
ATOM      4  C   LIG    1       25.183 -24.910   4.547  0.00  0.00    +0.020 A 
ATOM      5  C   LIG    1       24.759 -26.047   5.230  0.00  0.00    +0.041 A 
ATOM      6 CL   LIG    1       25.189 -27.610   4.654  0.00  0.00    -0.084 Cl
ATOM      7  C   LIG    1       23.990 -25.925   6.383  0.00  0.00    +0.020 A 
ATOM      8  C   LIG    1       23.635 -24.657   6.845  0.00  0.00    +0.007 A 
ENDBRANCH   1   2
BRANCH   1  12
ATOM      9  N   LIG    1       27.414 -21.513   6.883  0.00  0.00    -0.298 NA
ATOM     10  C   LIG    1       26.728 -22.792   7.154  0.00  0.00    +0.100 C 
ATOM     11  C   LIG    1       25.622 -22.715   8.227  0.00  0.00    +0.100 C 
ATOM     12  N   LIG    1       24.559 -21.713   7.942  0.00  0.00    -0.289 NA
ATOM     13  C   LIG    1       25.263 -20.420   7.757  0.00  0.00    +0.100 C 
ATOM     14  C   LIG    1       26.410 -20.440   6.710  0.00  0.00    +0.100 C 
BRANCH   9  15
ATOM     15  C   LIG    1       28.412 -21.148   7.908  0.00  0.00    +0.112 C 
BRANCH  15  16
ATOM     16  C   LIG    1       29.078 -19.783   7.664  0.00  0.00    +0.175 C 
BRANCH  16  17
ATOM     17  O   LIG    1       29.165 -19.043   8.884  0.00  0.00    -0.376 OA
BRANCH  17  18
ATOM     18  C   LIG    1       30.274 -18.142   8.831  0.00  0.00    +0.187 C 
BRANCH  18  19
ATOM     19  C   LIG    1       31.485 -18.856   8.254  0.00  0.00    +0.184 C 
BRANCH  19  20
ATOM     20  O   LIG    1       32.151 -19.587   9.276  0.00  0.00    -0.393 OA
ATOM     21  H   LIG    1       32.844 -20.116   8.838  0.00  0.00    +0.209 HD
ENDBRANCH  19  20
ENDBRANCH  18  19
ENDBRANCH  17  18
ENDBRANCH  16  17
ENDBRANCH  15  16
ENDBRANCH   9  15
ENDBRANCH   1  12
BRANCH   1  22
ATOM     22  C   LIG    1       23.653 -21.021   5.674  0.00  0.00    -0.026 A 
ATOM     23  C   LIG    1       22.742 -19.952   5.738  0.00  0.00    +0.005 A 
ATOM     24  C   LIG    1       22.656 -19.019   4.704  0.00  0.00    +0.000 A 
ATOM     25  C   LIG    1       23.500 -19.123   3.603  0.00  0.00    +0.000 A 
ATOM     26  C   LIG    1       24.435 -20.154   3.540  0.00  0.00    +0.000 A 
ATOM     27  C   LIG    1       24.518 -21.098   4.567  0.00  0.00    +0.005 A 
ENDBRANCH   1  22
TORSDOF 9
ENDMDL
MODEL 6
REMARK VINA RESULT:      -6.7      4.085      7.234
REMARK  Name = *****
REMARK                            x       y       z     vdW  Elec       q    Type
REMARK                         _______ _______ _______ _____ _____    ______ ____
ROOT
ATOM      1  C   LIG    1       25.519 -21.620   6.297  0.00  0.00    +0.117 C 
ENDROOT
BRANCH   1   2
ATOM      2  C   LIG    1       24.522 -20.660   5.620  0.00  0.00    -0.026 A 
ATOM      3  C   LIG    1       24.779 -20.049   4.382  0.00  0.00    +0.007 A 
ATOM      4  C   LIG    1       23.833 -19.202   3.790  0.00  0.00    +0.020 A 
ATOM      5  C   LIG    1       22.608 -18.979   4.414  0.00  0.00    +0.041 A 
ATOM      6 CL   LIG    1       21.433 -17.964   3.672  0.00  0.00    -0.084 Cl
ATOM      7  C   LIG    1       22.325 -19.580   5.635  0.00  0.00    +0.020 A 
ATOM      8  C   LIG    1       23.281 -20.398   6.240  0.00  0.00    +0.007 A 
ENDBRANCH   1   2
BRANCH   1  12
ATOM      9  N   LIG    1       24.158 -25.090   6.776  0.00  0.00    -0.298 NA
ATOM     10  C   LIG    1       25.408 -24.558   7.351  0.00  0.00    +0.100 C 
ATOM     11  C   LIG    1       26.383 -23.947   6.322  0.00  0.00    +0.100 C 
ATOM     12  N   LIG    1       25.796 -22.857   5.493  0.00  0.00    -0.289 NA
ATOM     13  C   LIG    1       24.588 -23.440   4.858  0.00  0.00    +0.100 C 
ATOM     14  C   LIG    1       23.582 -24.099   5.841  0.00  0.00    +0.100 C 
BRANCH   9  15
ATOM     15  C   LIG    1       24.319 -26.405   6.125  0.00  0.00    +0.112 C 
BRANCH  15  16
ATOM     16  C   LIG    1       25.319 -27.331   6.839  0.00  0.00    +0.175 C 
BRANCH  16  17
ATOM     17  O   LIG    1       24.631 -28.392   7.505  0.00  0.00    -0.376 OA
BRANCH  17  18
ATOM     18  C   LIG    1       25.129 -29.655   7.056  0.00  0.00    +0.187 C 
BRANCH  18  19
ATOM     19  C   LIG    1       24.654 -29.917   5.637  0.00  0.00    +0.184 C 
BRANCH  19  20
ATOM     20  O   LIG    1       23.235 -29.847   5.579  0.00  0.00    -0.393 OA
ATOM     21  H   LIG    1       22.924 -29.683   6.490  0.00  0.00    +0.209 HD
ENDBRANCH  19  20
ENDBRANCH  18  19
ENDBRANCH  17  18
ENDBRANCH  16  17
ENDBRANCH  15  16
ENDBRANCH   9  15
ENDBRANCH   1  12
BRANCH   1  22
ATOM     22  C   LIG    1       26.808 -20.887   6.732  0.00  0.00    -0.026 A 
ATOM     23  C   LIG    1       27.152 -20.741   8.088  0.00  0.00    +0.005 A 
ATOM     24  C   LIG    1       28.281 -20.014   8.468  0.00  0.00    +0.000 A 
ATOM     25  C   LIG    1       29.099 -19.444   7.498  0.00  0.00    +0.000 A 
ATOM     26  C   LIG    1       28.794 -19.611   6.148  0.00  0.00    +0.000 A 
ATOM     27  C   LIG    1       27.660 -20.328   5.762  0.00  0.00    +0.005 A 
ENDBRANCH   1  22
TORSDOF 9
ENDMDL
MODEL 7
REMARK VINA RESULT:      -6.6      4.183      7.426
REMARK  Name = *****
REMARK                            x       y       z     vdW  Elec       q    Type
REMARK                         _______ _______ _______ _____ _____    ______ ____
ROOT
ATOM      1  C   LIG    1       25.522 -22.042   6.344  0.00  0.00    +0.117 C 
ENDROOT
BRANCH   1   2
ATOM      2  C   LIG    1       24.501 -21.062   5.737  0.00  0.00    -0.026 A 
ATOM      3  C   LIG    1       23.356 -20.633   6.428  0.00  0.00    +0.007 A 
ATOM      4  C   LIG    1       22.467 -19.720   5.847  0.00  0.00    +0.020 A 
ATOM      5  C   LIG    1       22.727 -19.202   4.580  0.00  0.00    +0.041 A 
ATOM      6 CL   LIG    1       21.651 -18.057   3.878  0.00  0.00    -0.084 Cl
ATOM      7  C   LIG    1       23.858 -19.603   3.878  0.00  0.00    +0.020 A 
ATOM      8  C   LIG    1       24.727 -20.538   4.445  0.00  0.00    +0.007 A 
ENDBRANCH   1   2
BRANCH   1  12
ATOM      9  N   LIG    1       24.243 -25.543   6.822  0.00  0.00    -0.298 NA
ATOM     10  C   LIG    1       25.520 -25.005   7.329  0.00  0.00    +0.100 C 
ATOM     11  C   LIG    1       26.418 -24.355   6.256  0.00  0.00    +0.100 C 
ATOM     12  N   LIG    1       25.765 -23.256   5.493  0.00  0.00    -0.289 NA
ATOM     13  C   LIG    1       24.527 -23.841   4.922  0.00  0.00    +0.100 C 
ATOM     14  C   LIG    1       23.594 -24.539   5.950  0.00  0.00    +0.100 C 
BRANCH   9  15
ATOM     15  C   LIG    1       24.380 -26.839   6.129  0.00  0.00    +0.112 C 
BRANCH  15  16
ATOM     16  C   LIG    1       25.322 -27.825   6.843  0.00  0.00    +0.175 C 
BRANCH  16  17
ATOM     17  O   LIG    1       24.570 -28.840   7.513  0.00  0.00    -0.376 OA
BRANCH  17  18
ATOM     18  C   LIG    1       25.132 -30.126   7.240  0.00  0.00    +0.187 C 
BRANCH  18  19
ATOM     19  C   LIG    1       24.742 -30.566   5.838  0.00  0.00    +0.184 C 
BRANCH  19  20
ATOM     20  O   LIG    1       23.330 -30.500   5.683  0.00  0.00    -0.393 OA
ATOM     21  H   LIG    1       22.949 -31.153   6.301  0.00  0.00    +0.209 HD
ENDBRANCH  19  20
ENDBRANCH  18  19
ENDBRANCH  17  18
ENDBRANCH  16  17
ENDBRANCH  15  16
ENDBRANCH   9  15
ENDBRANCH   1  12
BRANCH   1  22
ATOM     22  C   LIG    1       26.829 -21.323   6.748  0.00  0.00    -0.026 A 
ATOM     23  C   LIG    1       27.388 -20.306   5.953  0.00  0.00    +0.005 A 
ATOM     24  C   LIG    1       28.605 -19.716   6.293  0.00  0.00    +0.000 A 
ATOM     25  C   LIG    1       29.272 -20.114   7.447  0.00  0.00    +0.000 A 
ATOM     26  C   LIG    1       28.715 -21.093   8.268  0.00  0.00    +0.000 A 
ATOM     27  C   LIG    1       27.501 -21.695   7.927  0.00  0.00    +0.005 A 
ENDBRANCH   1  22
TORSDOF 9
ENDMDL
MODEL 8
REMARK VINA RESULT:      -6.0      8.411     11.551
REMARK  Name = *****
REMARK                            x       y       z     vdW  Elec       q    Type
REMARK                         _______ _______ _______ _____ _____    ______ ____
ROOT
ATOM      1  C   LIG    1       25.124 -30.604   7.704  0.00  0.00    +0.117 C 
ENDROOT
BRANCH   1   2
ATOM      2  C   LIG    1       25.138 -29.152   7.189  0.00  0.00    -0.026 A 
ATOM      3  C   LIG    1       26.001 -28.171   7.705  0.00  0.00    +0.007 A 
ATOM      4  C   LIG    1       25.998 -26.869   7.188  0.00  0.00    +0.020 A 
ATOM      5  C   LIG    1       25.154 -26.539   6.131  0.00  0.00    +0.041 A 
ATOM      6 CL   LIG    1       25.171 -24.948   5.476  0.00  0.00    -0.084 Cl
ATOM      7  C   LIG    1       24.296 -27.494   5.596  0.00  0.00    +0.020 A 
ATOM      8  C   LIG    1       24.277 -28.783   6.133  0.00  0.00    +0.007 A 
ENDBRANCH   1   2
BRANCH   1  12
ATOM      9  N   LIG    1       24.101 -31.951  11.059  0.00  0.00    -0.298 NA
ATOM     10  C   LIG    1       24.554 -32.747   9.902  0.00  0.00    +0.100 C 
ATOM     11  C   LIG    1       23.776 -32.487   8.595  0.00  0.00    +0.100 C 
ATOM     12  N   LIG    1       23.769 -31.063   8.158  0.00  0.00    -0.289 NA
ATOM     13  C   LIG    1       23.230 -30.292   9.306  0.00  0.00    +0.100 C 
ATOM     14  C   LIG    1       23.954 -30.535  10.659  0.00  0.00    +0.100 C 
BRANCH   9  15
ATOM     15  C   LIG    1       22.862 -32.461  11.678  0.00  0.00    +0.112 C 
BRANCH  15  16
ATOM     16  C   LIG    1       22.201 -31.466  12.648  0.00  0.00    +0.175 C 
BRANCH  16  17
ATOM     17  O   LIG    1       20.776 -31.527  12.534  0.00  0.00    -0.376 OA
BRANCH  17  18
ATOM     18  C   LIG    1       20.319 -30.555  11.590  0.00  0.00    +0.187 C 
BRANCH  18  19
ATOM     19  C   LIG    1       19.671 -31.257  10.408  0.00  0.00    +0.184 C 
BRANCH  19  20
ATOM     20  O   LIG    1       18.750 -30.382   9.768  0.00  0.00    -0.393 OA
ATOM     21  H   LIG    1       19.255 -29.883   9.099  0.00  0.00    +0.209 HD
ENDBRANCH  19  20
ENDBRANCH  18  19
ENDBRANCH  17  18
ENDBRANCH  16  17
ENDBRANCH  15  16
ENDBRANCH   9  15
ENDBRANCH   1  12
BRANCH   1  22
ATOM     22  C   LIG    1       25.776 -31.571   6.691  0.00  0.00    -0.026 A 
ATOM     23  C   LIG    1       26.949 -32.284   7.000  0.00  0.00    +0.005 A 
ATOM     24  C   LIG    1       27.567 -33.098   6.051  0.00  0.00    +0.000 A 
ATOM     25  C   LIG    1       27.007 -33.235   4.785  0.00  0.00    +0.000 A 
ATOM     26  C   LIG    1       25.824 -32.567   4.472  0.00  0.00    +0.000 A 
ATOM     27  C   LIG    1       25.208 -31.742   5.415  0.00  0.00    +0.005 A 
ENDBRANCH   1  22
TORSDOF 9
ENDMDL
MODEL 9
REMARK VINA RESULT:      -5.7      8.972     11.332
REMARK  Name = *****
REMARK                            x       y       z     vdW  Elec       q    Type
REMARK                         _______ _______ _______ _____ _____    ______ ____
ROOT
ATOM      1  C   LIG    1       25.798 -28.049  13.225  0.00  0.00    +0.117 C 
ENDROOT
BRANCH   1   2
ATOM      2  C   LIG    1       24.387 -27.819  13.799  0.00  0.00    -0.026 A 
ATOM      3  C   LIG    1       23.831 -28.635  14.797  0.00  0.00    +0.007 A 
ATOM      4  C   LIG    1       22.553 -28.374  15.308  0.00  0.00    +0.020 A 
ATOM      5  C   LIG    1       21.829 -27.276  14.850  0.00  0.00    +0.041 A 
ATOM      6 CL   LIG    1       20.272 -26.936  15.500  0.00  0.00    -0.084 Cl
ATOM      7  C   LIG    1       22.361 -26.446  13.869  0.00  0.00    +0.020 A 
ATOM      8  C   LIG    1       23.621 -26.727  13.337  0.00  0.00    +0.007 A 
ENDBRANCH   1   2
BRANCH   1  12
ATOM      9  N   LIG    1       26.951 -30.756  10.888  0.00  0.00    -0.298 NA
ATOM     10  C   LIG    1       27.781 -29.666  11.436  0.00  0.00    +0.100 C 
ATOM     11  C   LIG    1       27.220 -28.248  11.201  0.00  0.00    +0.100 C 
ATOM     12  N   LIG    1       25.842 -28.038  11.724  0.00  0.00    -0.289 NA
ATOM     13  C   LIG    1       25.008 -29.092  11.096  0.00  0.00    +0.100 C 
ATOM     14  C   LIG    1       25.538 -30.542  11.271  0.00  0.00    +0.100 C 
BRANCH   9  15
ATOM     15  C   LIG    1       27.086 -30.928   9.428  0.00  0.00    +0.112 C 
BRANCH  15  16
ATOM     16  C   LIG    1       25.889 -31.639   8.775  0.00  0.00    +0.175 C 
BRANCH  16  17
ATOM     17  O   LIG    1       25.618 -31.083   7.486  0.00  0.00    -0.376 OA
BRANCH  17  18
ATOM     18  C   LIG    1       24.496 -30.200   7.560  0.00  0.00    +0.187 C 
BRANCH  18  19
ATOM     19  C   LIG    1       24.401 -29.385   6.280  0.00  0.00    +0.184 C 
BRANCH  19  20
ATOM     20  O   LIG    1       23.215 -29.727   5.574  0.00  0.00    -0.393 OA
ATOM     21  H   LIG    1       22.502 -29.797   6.238  0.00  0.00    +0.209 HD
ENDBRANCH  19  20
ENDBRANCH  18  19
ENDBRANCH  17  18
ENDBRANCH  16  17
ENDBRANCH  15  16
ENDBRANCH   9  15
ENDBRANCH   1  12
BRANCH   1  22
ATOM     22  C   LIG    1       26.832 -27.092  13.861  0.00  0.00    -0.026 A 
ATOM     23  C   LIG    1       27.758 -27.538  14.822  0.00  0.00    +0.005 A 
ATOM     24  C   LIG    1       28.637 -26.649  15.440  0.00  0.00    +0.000 A 
ATOM     25  C   LIG    1       28.624 -25.303  15.088  0.00  0.00    +0.000 A 
ATOM     26  C   LIG    1       27.740 -24.849  14.110  0.00  0.00    +0.000 A 
ATOM     27  C   LIG    1       26.850 -25.733  13.496  0.00  0.00    +0.005 A 
ENDBRANCH   1  22
TORSDOF 9
ENDMDL
