MODEL 1
REMARK VINA RESULT:       8.9      0.000      0.000
REMARK  Name = *****
REMARK                            x       y       z     vdW  Elec       q    Type
REMARK                         _______ _______ _______ _____ _____    ______ ____
ROOT
ATOM      1  CA  LIG    1       21.799 -16.963   3.560  0.00  0.00    +0.191 C 
ATOM      2  C   LIG    1       22.506 -18.234   2.989  0.00  0.00    +0.169 C 
ATOM      3  N   LIG    1       22.569 -18.735   4.347  0.00  0.00    -0.249 N 
ATOM      4  CA  LIG    1       23.312 -19.810   4.775  0.00  0.00    +0.123 C 
ATOM      5  C   LIG    1       24.286 -20.322   3.967  0.00  0.00    -0.021 C 
ATOM      6  C   LIG    1       24.672 -19.711   2.625  0.00  0.00    +0.104 C 
ATOM      7  S   LIG    1       24.185 -17.987   2.381  0.00  0.00    -0.131 S 
ATOM      8  C   LIG    1       21.974 -17.674   4.931  0.00  0.00    +0.244 C 
ATOM      9  O   LIG    1       21.784 -17.446   6.109  0.00  0.00    -0.273 OA
ENDROOT
BRANCH   1  11
ATOM     10  C   LIG    1       23.642 -15.372   4.117  0.00  0.00    +0.268 C 
ATOM     11  N   LIG    1       22.487 -15.658   3.416  0.00  0.00    -0.296 N 
ATOM     12  H   LIG    1       22.165 -14.946   2.760  0.00  0.00    +0.150 HD
ATOM     13  O   LIG    1       24.120 -16.127   4.950  0.00  0.00    -0.268 OA
BRANCH  10  15
ATOM     14  N   LIG    1       23.422 -13.090   3.394  0.00  0.00    -0.078 NA
ATOM     15  C   LIG    1       24.277 -14.006   3.778  0.00  0.00    +0.190 C 
BRANCH  15  16
ATOM     16  C   LIG    1       25.728 -13.801   3.923  0.00  0.00    +0.107 A 
ATOM     17  N   LIG    1       26.312 -13.387   5.123  0.00  0.00    -0.223 NA
ATOM     18  C   LIG    1       27.608 -13.274   5.007  0.00  0.00    +0.156 A 
ATOM     19  S   LIG    1       28.243 -13.677   3.469  0.00  0.00    -0.060 S 
ATOM     20  C   LIG    1       26.656 -14.005   2.914  0.00  0.00    +0.078 A 
BRANCH  18  21
ATOM     21  N   LIG    1       28.401 -12.889   6.016  0.00  0.00    -0.338 N 
ATOM     22  H   LIG    1       28.883 -13.634   6.506  0.00  0.00    +0.144 HD
ATOM     23  H   LIG    1       28.928 -12.033   5.916  0.00  0.00    +0.144 HD
ENDBRANCH  18  21
ENDBRANCH  15  16
BRANCH  14  25
ATOM     24  C   LIG    1       24.761 -12.049   1.828  0.00  0.00    +0.313 C 
ATOM     25  O   LIG    1       24.040 -11.884   3.038  0.00  0.00    -0.396 OA
ENDBRANCH  14  25
ENDBRANCH  10  15
ENDBRANCH   1  11
BRANCH   4  26
ATOM     26  C   LIG    1       23.020 -20.410   6.141  0.00  0.00    +0.351 C 
ATOM     27  O   LIG    1       23.838 -20.473   7.046  0.00  0.00    -0.244 OA
BRANCH  26  28
ATOM     28  OXT LIG    1       21.815 -21.000   6.289  0.00  0.00    -0.476 OA
ATOM     29  HXT LIG    1       21.288 -21.110   5.465  0.00  0.00    +0.295 HD
ENDBRANCH  26  28
ENDBRANCH   4  26
BRANCH   5  30
ATOM     30  C   LIG    1       25.146 -21.571   4.230  0.00  0.00    +0.111 C 
BRANCH  30  31
ATOM     31  S   LIG    1       26.058 -21.398   5.805  0.00  0.00    -0.082 S 
BRANCH  31  32
ATOM     32  C   LIG    1       27.070 -19.971   5.495  0.00  0.00    +0.189 A 
ATOM     33  N   LIG    1       28.306 -19.857   6.156  0.00  0.00    -0.241 N 
ATOM     34  C   LIG    1       28.835 -20.877   7.062  0.00  0.00    +0.175 C 
ATOM     35  N   LIG    1       29.189 -18.798   5.973  0.00  0.00    -0.126 NA
ATOM     36  C   LIG    1       28.765 -17.899   5.147  0.00  0.00    +0.298 A 
ATOM     37  C   LIG    1       27.411 -18.014   4.453  0.00  0.00    +0.336 A 
ATOM     38  O   LIG    1       27.148 -17.095   3.679  0.00  0.00    -0.260 OA
ATOM     39  N   LIG    1       26.579 -19.086   4.680  0.00  0.00    -0.179 NA
BRANCH  36  40
ATOM     40  O   LIG    1       29.474 -16.809   4.828  0.00  0.00    -0.488 OA
ATOM     41  H   LIG    1       28.908 -16.174   4.347  0.00  0.00    +0.294 HD
ENDBRANCH  36  40
ENDBRANCH  31  32
ENDBRANCH  30  31
ENDBRANCH   5  30
TORSDOF 11
ENDMDL
MODEL 2
REMARK VINA RESULT:       9.5      2.157      7.694
REMARK  Name = *****
REMARK                            x       y       z     vdW  Elec       q    Type
REMARK                         _______ _______ _______ _____ _____    ______ ____
ROOT
ATOM      1  CA  LIG    1       28.079 -17.243   4.146  0.00  0.00    +0.191 C 
ATOM      2  C   LIG    1       27.750 -16.131   3.099  0.00  0.00    +0.169 C 
ATOM      3  N   LIG    1       27.960 -15.160   4.153  0.00  0.00    -0.249 N 
ATOM      4  CA  LIG    1       27.624 -13.828   4.100  0.00  0.00    +0.123 C 
ATOM      5  C   LIG    1       26.787 -13.382   3.118  0.00  0.00    -0.021 C 
ATOM      6  C   LIG    1       26.117 -14.301   2.102  0.00  0.00    +0.104 C 
ATOM      7  S   LIG    1       26.029 -16.046   2.566  0.00  0.00    -0.131 S 
ATOM      8  C   LIG    1       28.250 -16.048   5.127  0.00  0.00    +0.244 C 
ATOM      9  O   LIG    1       28.462 -15.860   6.307  0.00  0.00    -0.273 OA
ENDROOT
BRANCH   1  11
ATOM     10  C   LIG    1       27.244 -19.251   5.374  0.00  0.00    +0.268 C 
ATOM     11  N   LIG    1       27.014 -18.215   4.491  0.00  0.00    -0.296 N 
ATOM     12  H   LIG    1       26.063 -18.124   4.132  0.00  0.00    +0.150 HD
ATOM     13  O   LIG    1       28.341 -19.484   5.857  0.00  0.00    -0.268 OA
BRANCH  10  15
ATOM     14  N   LIG    1       26.062 -20.753   6.833  0.00  0.00    -0.078 NA
ATOM     15  C   LIG    1       26.001 -20.111   5.692  0.00  0.00    +0.190 C 
BRANCH  15  16
ATOM     16  C   LIG    1       24.859 -20.143   4.763  0.00  0.00    +0.107 A 
ATOM     17  N   LIG    1       23.690 -19.409   4.983  0.00  0.00    -0.223 NA
ATOM     18  C   LIG    1       22.822 -19.599   4.026  0.00  0.00    +0.156 A 
ATOM     19  S   LIG    1       23.333 -20.645   2.772  0.00  0.00    -0.060 S 
ATOM     20  C   LIG    1       24.821 -20.876   3.587  0.00  0.00    +0.078 A 
BRANCH  18  21
ATOM     21  N   LIG    1       21.619 -19.010   4.004  0.00  0.00    -0.338 N 
ATOM     22  H   LIG    1       21.098 -19.106   3.140  0.00  0.00    +0.144 HD
ATOM     23  H   LIG    1       21.059 -19.026   4.845  0.00  0.00    +0.144 HD
ENDBRANCH  18  21
ENDBRANCH  15  16
BRANCH  14  25
ATOM     24  C   LIG    1       23.761 -20.791   7.013  0.00  0.00    +0.313 C 
ATOM     25  O   LIG    1       24.945 -21.569   7.057  0.00  0.00    -0.396 OA
ENDBRANCH  14  25
ENDBRANCH  10  15
ENDBRANCH   1  11
BRANCH   4  26
ATOM     26  C   LIG    1       28.202 -12.879   5.139  0.00  0.00    +0.351 C 
ATOM     27  O   LIG    1       27.841 -12.844   6.305  0.00  0.00    -0.244 OA
BRANCH  26  28
ATOM     28  OXT LIG    1       29.081 -11.961   4.683  0.00  0.00    -0.476 OA
ATOM     29  HXT LIG    1       29.032 -11.761   3.721  0.00  0.00    +0.295 HD
ENDBRANCH  26  28
ENDBRANCH   4  26
BRANCH   5  30
ATOM     30  C   LIG    1       26.378 -11.924   2.841  0.00  0.00    +0.111 C 
BRANCH  30  31
ATOM     31  S   LIG    1       24.593 -11.824   2.458  0.00  0.00    -0.082 S 
BRANCH  31  32
ATOM     32  C   LIG    1       23.902 -13.005   3.592  0.00  0.00    +0.189 A 
ATOM     33  N   LIG    1       23.903 -12.710   4.967  0.00  0.00    -0.241 N 
ATOM     34  C   LIG    1       24.408 -11.455   5.523  0.00  0.00    +0.175 C 
ATOM     35  N   LIG    1       23.370 -13.548   5.941  0.00  0.00    -0.126 NA
ATOM     36  C   LIG    1       22.881 -14.649   5.475  0.00  0.00    +0.298 A 
ATOM     37  C   LIG    1       22.906 -14.976   3.984  0.00  0.00    +0.336 A 
ATOM     38  O   LIG    1       22.388 -16.050   3.682  0.00  0.00    -0.260 OA
ATOM     39  N   LIG    1       23.454 -14.107   3.069  0.00  0.00    -0.179 NA
BRANCH  36  40
ATOM     40  O   LIG    1       22.311 -15.580   6.249  0.00  0.00    -0.488 OA
ATOM     41  H   LIG    1       22.483 -15.379   7.190  0.00  0.00    +0.294 HD
ENDBRANCH  36  40
ENDBRANCH  31  32
ENDBRANCH  30  31
ENDBRANCH   5  30
TORSDOF 11
ENDMDL
