MODEL 1
REMARK VINA RESULT:       7.0      0.000      0.000
REMARK  Name = *****
REMARK                            x       y       z     vdW  Elec       q    Type
REMARK                         _______ _______ _______ _____ _____    ______ ____
ROOT
ATOM      1  C   LIG    1       24.157 -19.365   4.483  0.00  0.00    +0.180 C 
ATOM      2  C   LIG    1       23.418 -18.036   3.697  0.00  0.00    +0.021 C 
ATOM      3  C   LIG    1       24.541 -17.365   2.839  0.00  0.00    +0.006 C 
ATOM      4  C   LIG    1       25.196 -16.043   3.341  0.00  0.00    +0.037 C 
ATOM      5  C   LIG    1       24.310 -15.057   4.114  0.00  0.00    +0.153 C 
ATOM      6  C   LIG    1       23.474 -15.817   5.169  0.00  0.00    +0.154 C 
ATOM      7  F   LIG    1       23.409 -14.531   3.213  0.00  0.00    -0.238 F 
ATOM      8  C   LIG    1       25.183 -13.839   4.682  0.00  0.00    +0.047 C 
ATOM      9  C   LIG    1       26.076 -13.204   3.573  0.00  0.00    -0.020 C 
ATOM     10  C   LIG    1       26.898 -12.187   3.932  0.00  0.00    +0.054 C 
ATOM     11  C   LIG    1       27.840 -12.614   5.037  0.00  0.00    +0.179 C 
ATOM     12  C   LIG    1       27.373 -13.701   5.948  0.00  0.00    +0.047 C 
ATOM     13  O   LIG    1       28.893 -12.022   5.236  0.00  0.00    -0.288 OA
ATOM     14  C   LIG    1       26.697 -14.168   2.573  0.00  0.00    +0.194 C 
ATOM     15  F   LIG    1       27.810 -14.747   3.116  0.00  0.00    -0.241 F 
ATOM     16  C   LIG    1       24.246 -12.759   5.288  0.00  0.00    +0.023 C 
ATOM     17  C   LIG    1       26.149 -14.244   5.809  0.00  0.00    -0.009 C 
ATOM     18  C   LIG    1       25.798 -15.302   2.128  0.00  0.00    +0.048 C 
ATOM     19  C   LIG    1       25.643 -18.427   2.782  0.00  0.00    +0.012 C 
ATOM     20  C   LIG    1       22.270 -18.440   2.717  0.00  0.00    +0.016 C 
ATOM     21  C   LIG    1       22.689 -16.987   4.590  0.00  0.00    +0.045 C 
ATOM     22  C   LIG    1       25.663 -19.041   4.184  0.00  0.00    +0.038 C 
ATOM     23  C   LIG    1       26.762 -20.101   4.211  0.00  0.00    +0.012 C 
ENDROOT
BRANCH   1  24
ATOM     24  C   LIG    1       23.673 -20.808   3.944  0.00  0.00    +0.192 C 
ATOM     25  O   LIG    1       24.362 -21.443   3.134  0.00  0.00    -0.292 OA
BRANCH  24  26
ATOM     26  C   LIG    1       22.441 -21.572   4.415  0.00  0.00    +0.187 C 
ATOM     27 CL   LIG    1       20.871 -20.797   4.256  0.00  0.00    -0.117 Cl
ENDBRANCH  24  26
ENDBRANCH   1  24
BRANCH   6  28
ATOM     28  O   LIG    1       22.487 -14.950   5.752  0.00  0.00    -0.389 OA
ATOM     29  H   LIG    1       22.427 -14.155   5.182  0.00  0.00    +0.210 HD
ENDBRANCH   6  28
BRANCH   1  30
ATOM     30  O   LIG    1       23.814 -19.224   5.900  0.00  0.00    -0.450 OA
BRANCH  30  31
ATOM     31  C   LIG    1       23.565 -20.338   6.678  0.00  0.00    +0.308 C 
ATOM     32  O   LIG    1       22.509 -20.688   7.060  0.00  0.00    -0.251 OA
BRANCH  31  34
ATOM     33  C   LIG    1       26.047 -20.220   7.060  0.00  0.00    +0.015 C 
ATOM     34  C   LIG    1       24.802 -21.077   7.061  0.00  0.00    +0.117 C 
ENDBRANCH  31  34
ENDBRANCH  30  31
ENDBRANCH   1  30
TORSDOF 6
ENDMDL
MODEL 2
REMARK VINA RESULT:       9.3      2.586      7.222
REMARK  Name = *****
REMARK                            x       y       z     vdW  Elec       q    Type
REMARK                         _______ _______ _______ _____ _____    ______ ____
ROOT
ATOM      1  C   LIG    1       25.605 -13.899   4.549  0.00  0.00    +0.180 C 
ATOM      2  C   LIG    1       25.617 -15.055   3.287  0.00  0.00    +0.021 C 
ATOM      3  C   LIG    1       24.180 -15.673   3.257  0.00  0.00    +0.006 C 
ATOM      4  C   LIG    1       23.948 -17.091   3.858  0.00  0.00    +0.037 C 
ATOM      5  C   LIG    1       25.084 -18.115   3.730  0.00  0.00    +0.153 C 
ATOM      6  C   LIG    1       26.431 -17.455   4.105  0.00  0.00    +0.154 C 
ATOM      7  F   LIG    1       25.178 -18.451   2.396  0.00  0.00    -0.238 F 
ATOM      8  C   LIG    1       24.732 -19.454   4.536  0.00  0.00    +0.047 C 
ATOM      9  C   LIG    1       23.311 -19.987   4.175  0.00  0.00    -0.020 C 
ATOM     10  C   LIG    1       22.872 -21.096   4.821  0.00  0.00    +0.054 C 
ATOM     11  C   LIG    1       22.875 -20.889   6.319  0.00  0.00    +0.179 C 
ATOM     12  C   LIG    1       23.859 -19.910   6.870  0.00  0.00    +0.047 C 
ATOM     13  O   LIG    1       22.172 -21.570   7.055  0.00  0.00    -0.288 OA
ATOM     14  C   LIG    1       22.233 -18.937   3.959  0.00  0.00    +0.194 C 
ATOM     15  F   LIG    1       21.749 -18.513   5.165  0.00  0.00    -0.241 F 
ATOM     16  C   LIG    1       25.796 -20.544   4.235  0.00  0.00    +0.023 C 
ATOM     17  C   LIG    1       24.729 -19.274   6.063  0.00  0.00    -0.009 C 
ATOM     18  C   LIG    1       22.680 -17.695   3.217  0.00  0.00    +0.048 C 
ATOM     19  C   LIG    1       23.339 -14.688   4.074  0.00  0.00    +0.012 C 
ATOM     20  C   LIG    1       25.884 -14.445   1.873  0.00  0.00    +0.016 C 
ATOM     21  C   LIG    1       26.707 -16.167   3.341  0.00  0.00    +0.045 C 
ATOM     22  C   LIG    1       24.246 -14.277   5.237  0.00  0.00    +0.038 C 
ATOM     23  C   LIG    1       23.462 -13.305   6.116  0.00  0.00    +0.012 C 
ENDROOT
BRANCH   1  24
ATOM     24  C   LIG    1       25.687 -12.366   4.046  0.00  0.00    +0.192 C 
ATOM     25  O   LIG    1       25.893 -11.448   4.852  0.00  0.00    -0.292 OA
BRANCH  24  26
ATOM     26  C   LIG    1       25.634 -11.896   2.598  0.00  0.00    +0.187 C 
ATOM     27 CL   LIG    1       24.065 -11.796   1.813  0.00  0.00    -0.117 Cl
ENDBRANCH  24  26
ENDBRANCH   1  24
BRANCH   6  28
ATOM     28  O   LIG    1       27.527 -18.328   3.787  0.00  0.00    -0.389 OA
ATOM     29  H   LIG    1       27.602 -18.978   4.516  0.00  0.00    +0.210 HD
ENDBRANCH   6  28
BRANCH   1  30
ATOM     30  O   LIG    1       26.770 -14.212   5.379  0.00  0.00    -0.450 OA
BRANCH  30  31
ATOM     31  C   LIG    1       27.880 -13.389   5.372  0.00  0.00    +0.308 C 
ATOM     32  O   LIG    1       28.263 -12.743   6.277  0.00  0.00    -0.251 OA
BRANCH  31  34
ATOM     33  C   LIG    1       29.417 -12.104   3.853  0.00  0.00    +0.015 C 
ATOM     34  C   LIG    1       28.565 -13.337   4.049  0.00  0.00    +0.117 C 
ENDBRANCH  31  34
ENDBRANCH  30  31
ENDBRANCH   1  30
TORSDOF 6
ENDMDL
