MODEL 1
REMARK VINA RESULT:      -4.7      0.000      0.000
REMARK  Name = *****
REMARK                            x       y       z     vdW  Elec       q    Type
REMARK                         _______ _______ _______ _____ _____    ______ ____
ROOT
ATOM      1  C   LIG    1       25.106 -13.821   3.445  0.00  0.00    +0.147 C 
ATOM      2  C   LIG    1       26.577 -13.936   2.976  0.00  0.00    +0.234 C 
ATOM      3  O   LIG    1       26.919 -14.146   1.813  0.00  0.00    -0.274 OA
ATOM      4  N   LIG    1       27.542 -13.860   3.944  0.00  0.00    -0.299 N 
ATOM      5  H   LIG    1       28.489 -14.046   3.641  0.00  0.00    +0.150 HD
ATOM      6  C   LIG    1       27.203 -13.847   5.323  0.00  0.00    +0.212 C 
ATOM      7  N   LIG    1       26.138 -12.928   5.524  0.00  0.00    -0.299 N 
ATOM      8  H   LIG    1       26.043 -12.421   6.394  0.00  0.00    +0.150 HD
ATOM      9  C   LIG    1       25.045 -12.918   4.701  0.00  0.00    +0.234 C 
ATOM     10  O   LIG    1       24.066 -12.246   5.026  0.00  0.00    -0.274 OA
ENDROOT
BRANCH   1  11
ATOM     11  C   LIG    1       24.514 -15.227   3.754  0.00  0.00    -0.024 A 
ATOM     12  C   LIG    1       23.211 -15.371   4.272  0.00  0.00    +0.005 A 
ATOM     13  C   LIG    1       22.668 -16.633   4.529  0.00  0.00    +0.000 A 
ATOM     14  C   LIG    1       23.405 -17.781   4.259  0.00  0.00    +0.000 A 
ATOM     15  C   LIG    1       24.682 -17.667   3.718  0.00  0.00    +0.000 A 
ATOM     16  C   LIG    1       25.227 -16.406   3.460  0.00  0.00    +0.005 A 
ENDBRANCH   1  11
BRANCH   1  18
ATOM     17  C   LIG    1       24.636 -11.772   1.925  0.00  0.00    +0.005 C 
ATOM     18  C   LIG    1       24.246 -13.198   2.311  0.00  0.00    +0.027 C 
ENDBRANCH   1  18
TORSDOF 2
ENDMDL
MODEL 2
REMARK VINA RESULT:      -4.6      0.078      1.205
REMARK  Name = *****
REMARK                            x       y       z     vdW  Elec       q    Type
REMARK                         _______ _______ _______ _____ _____    ______ ____
ROOT
ATOM      1  C   LIG    1       25.089 -13.794   3.399  0.00  0.00    +0.147 C 
ATOM      2  C   LIG    1       26.567 -13.948   2.966  0.00  0.00    +0.234 C 
ATOM      3  O   LIG    1       26.933 -14.167   1.812  0.00  0.00    -0.274 OA
ATOM      4  N   LIG    1       27.509 -13.896   3.958  0.00  0.00    -0.299 N 
ATOM      5  H   LIG    1       28.458 -14.105   3.679  0.00  0.00    +0.150 HD
ATOM      6  C   LIG    1       27.136 -13.871   5.328  0.00  0.00    +0.212 C 
ATOM      7  N   LIG    1       26.091 -12.926   5.502  0.00  0.00    -0.299 N 
ATOM      8  H   LIG    1       25.987 -12.415   6.369  0.00  0.00    +0.150 HD
ATOM      9  C   LIG    1       25.019 -12.889   4.652  0.00  0.00    +0.234 C 
ATOM     10  O   LIG    1       24.050 -12.192   4.952  0.00  0.00    -0.274 OA
ENDROOT
BRANCH   1  11
ATOM     11  C   LIG    1       24.452 -15.184   3.693  0.00  0.00    -0.024 A 
ATOM     12  C   LIG    1       25.149 -16.378   3.418  0.00  0.00    +0.005 A 
ATOM     13  C   LIG    1       24.590 -17.627   3.703  0.00  0.00    +0.000 A 
ATOM     14  C   LIG    1       23.329 -17.714   4.283  0.00  0.00    +0.000 A 
ATOM     15  C   LIG    1       22.633 -16.550   4.593  0.00  0.00    +0.000 A 
ATOM     16  C   LIG    1       23.191 -15.300   4.310  0.00  0.00    +0.005 A 
ENDBRANCH   1  11
BRANCH   1  18
ATOM     17  C   LIG    1       24.653 -11.707   1.921  0.00  0.00    +0.005 C 
ATOM     18  C   LIG    1       24.273 -13.151   2.243  0.00  0.00    +0.027 C 
ENDBRANCH   1  18
TORSDOF 2
ENDMDL
MODEL 3
REMARK VINA RESULT:      -4.0      1.415      2.167
REMARK  Name = *****
REMARK                            x       y       z     vdW  Elec       q    Type
REMARK                         _______ _______ _______ _____ _____    ______ ____
ROOT
ATOM      1  C   LIG    1       25.151 -13.978   3.966  0.00  0.00    +0.147 C 
ATOM      2  C   LIG    1       25.425 -13.337   2.584  0.00  0.00    +0.234 C 
ATOM      3  O   LIG    1       24.548 -12.951   1.812  0.00  0.00    -0.274 OA
ATOM      4  N   LIG    1       26.733 -13.263   2.187  0.00  0.00    -0.299 N 
ATOM      5  H   LIG    1       26.891 -12.943   1.241  0.00  0.00    +0.150 HD
ATOM      6  C   LIG    1       27.766 -13.893   2.930  0.00  0.00    +0.212 C 
ATOM      7  N   LIG    1       27.584 -13.599   4.308  0.00  0.00    -0.299 N 
ATOM      8  H   LIG    1       28.374 -13.530   4.936  0.00  0.00    +0.150 HD
ATOM      9  C   LIG    1       26.355 -13.704   4.900  0.00  0.00    +0.234 C 
ATOM     10  O   LIG    1       26.280 -13.632   6.126  0.00  0.00    -0.274 OA
ENDROOT
BRANCH   1  11
ATOM     11  C   LIG    1       24.905 -15.509   3.826  0.00  0.00    -0.024 A 
ATOM     12  C   LIG    1       25.936 -16.378   3.416  0.00  0.00    +0.005 A 
ATOM     13  C   LIG    1       25.725 -17.756   3.311  0.00  0.00    +0.000 A 
ATOM     14  C   LIG    1       24.486 -18.300   3.628  0.00  0.00    +0.000 A 
ATOM     15  C   LIG    1       23.460 -17.468   4.064  0.00  0.00    +0.000 A 
ATOM     16  C   LIG    1       23.669 -16.090   4.171  0.00  0.00    +0.005 A 
ENDBRANCH   1  11
BRANCH   1  18
ATOM     17  C   LIG    1       23.859 -11.834   4.649  0.00  0.00    +0.005 C 
ATOM     18  C   LIG    1       23.862 -13.361   4.579  0.00  0.00    +0.027 C 
ENDBRANCH   1  18
TORSDOF 2
ENDMDL
MODEL 4
REMARK VINA RESULT:      -3.8      1.296      3.012
REMARK  Name = *****
REMARK                            x       y       z     vdW  Elec       q    Type
REMARK                         _______ _______ _______ _____ _____    ______ ____
ROOT
ATOM      1  C   LIG    1       25.575 -13.936   3.949  0.00  0.00    +0.147 C 
ATOM      2  C   LIG    1       24.860 -12.717   4.581  0.00  0.00    +0.234 C 
ATOM      3  O   LIG    1       24.896 -12.435   5.778  0.00  0.00    -0.274 OA
ATOM      4  N   LIG    1       24.092 -11.951   3.746  0.00  0.00    -0.299 N 
ATOM      5  H   LIG    1       23.545 -11.224   4.189  0.00  0.00    +0.150 HD
ATOM      6  C   LIG    1       23.831 -12.353   2.409  0.00  0.00    +0.212 C 
ATOM      7  N   LIG    1       25.047 -12.779   1.813  0.00  0.00    -0.299 N 
ATOM      8  H   LIG    1       25.210 -12.668   0.820  0.00  0.00    +0.150 HD
ATOM      9  C   LIG    1       25.903 -13.621   2.470  0.00  0.00    +0.234 C 
ATOM     10  O   LIG    1       26.840 -14.118   1.846  0.00  0.00    -0.274 OA
ENDROOT
BRANCH   1  11
ATOM     11  C   LIG    1       24.686 -15.211   4.052  0.00  0.00    -0.024 A 
ATOM     12  C   LIG    1       23.367 -15.142   4.542  0.00  0.00    +0.005 A 
ATOM     13  C   LIG    1       22.559 -16.280   4.614  0.00  0.00    +0.000 A 
ATOM     14  C   LIG    1       23.043 -17.511   4.185  0.00  0.00    +0.000 A 
ATOM     15  C   LIG    1       24.332 -17.600   3.669  0.00  0.00    +0.000 A 
ATOM     16  C   LIG    1       25.141 -16.463   3.595  0.00  0.00    +0.005 A 
ENDBRANCH   1  11
BRANCH   1  18
ATOM     17  C   LIG    1       27.984 -13.178   4.544  0.00  0.00    +0.005 C 
ATOM     18  C   LIG    1       26.889 -14.229   4.726  0.00  0.00    +0.027 C 
ENDBRANCH   1  18
TORSDOF 2
ENDMDL
MODEL 5
REMARK VINA RESULT:      -3.7      1.267      3.271
REMARK  Name = *****
REMARK                            x       y       z     vdW  Elec       q    Type
REMARK                         _______ _______ _______ _____ _____    ______ ____
ROOT
ATOM      1  C   LIG    1       25.407 -13.842   4.101  0.00  0.00    +0.147 C 
ATOM      2  C   LIG    1       24.512 -12.629   4.456  0.00  0.00    +0.234 C 
ATOM      3  O   LIG    1       24.264 -12.263   5.604  0.00  0.00    -0.274 OA
ATOM      4  N   LIG    1       23.919 -11.973   3.412  0.00  0.00    -0.299 N 
ATOM      5  H   LIG    1       23.253 -11.254   3.661  0.00  0.00    +0.150 HD
ATOM      6  C   LIG    1       23.985 -12.483   2.088  0.00  0.00    +0.212 C 
ATOM      7  N   LIG    1       25.323 -12.872   1.813  0.00  0.00    -0.299 N 
ATOM      8  H   LIG    1       25.700 -12.821   0.876  0.00  0.00    +0.150 HD
ATOM      9  C   LIG    1       26.045 -13.610   2.711  0.00  0.00    +0.234 C 
ATOM     10  O   LIG    1       27.121 -14.089   2.353  0.00  0.00    -0.274 OA
ENDROOT
BRANCH   1  11
ATOM     11  C   LIG    1       24.577 -15.159   4.109  0.00  0.00    -0.024 A 
ATOM     12  C   LIG    1       25.150 -16.383   3.708  0.00  0.00    +0.005 A 
ATOM     13  C   LIG    1       24.415 -17.572   3.736  0.00  0.00    +0.000 A 
ATOM     14  C   LIG    1       23.097 -17.570   4.179  0.00  0.00    +0.000 A 
ATOM     15  C   LIG    1       22.518 -16.380   4.609  0.00  0.00    +0.000 A 
ATOM     16  C   LIG    1       23.251 -15.191   4.583  0.00  0.00    +0.005 A 
ENDBRANCH   1  11
BRANCH   1  18
ATOM     17  C   LIG    1       27.637 -12.954   5.084  0.00  0.00    +0.005 C 
ATOM     18  C   LIG    1       26.523 -13.996   5.172  0.00  0.00    +0.027 C 
ENDBRANCH   1  18
TORSDOF 2
ENDMDL
MODEL 6
REMARK VINA RESULT:      -3.4      1.458      1.981
REMARK  Name = *****
REMARK                            x       y       z     vdW  Elec       q    Type
REMARK                         _______ _______ _______ _____ _____    ______ ____
ROOT
ATOM      1  C   LIG    1       25.122 -13.911   3.910  0.00  0.00    +0.147 C 
ATOM      2  C   LIG    1       25.145 -13.318   2.480  0.00  0.00    +0.234 C 
ATOM      3  O   LIG    1       24.148 -12.920   1.879  0.00  0.00    -0.274 OA
ATOM      4  N   LIG    1       26.353 -13.303   1.837  0.00  0.00    -0.299 N 
ATOM      5  H   LIG    1       26.335 -13.016   0.868  0.00  0.00    +0.150 HD
ATOM      6  C   LIG    1       27.489 -13.952   2.389  0.00  0.00    +0.212 C 
ATOM      7  N   LIG    1       27.586 -13.615   3.765  0.00  0.00    -0.299 N 
ATOM      8  H   LIG    1       28.484 -13.559   4.228  0.00  0.00    +0.150 HD
ATOM      9  C   LIG    1       26.492 -13.658   4.585  0.00  0.00    +0.234 C 
ATOM     10  O   LIG    1       26.657 -13.551   5.800  0.00  0.00    -0.274 OA
ENDROOT
BRANCH   1  11
ATOM     11  C   LIG    1       24.805 -15.435   3.870  0.00  0.00    -0.024 A 
ATOM     12  C   LIG    1       23.519 -15.920   4.177  0.00  0.00    +0.005 A 
ATOM     13  C   LIG    1       23.225 -17.286   4.121  0.00  0.00    +0.000 A 
ATOM     14  C   LIG    1       24.204 -18.197   3.741  0.00  0.00    +0.000 A 
ATOM     15  C   LIG    1       25.475 -17.740   3.403  0.00  0.00    +0.000 A 
ATOM     16  C   LIG    1       25.770 -16.375   3.459  0.00  0.00    +0.005 A 
ENDBRANCH   1  11
BRANCH   1  18
ATOM     17  C   LIG    1       24.137 -11.714   4.877  0.00  0.00    +0.005 C 
ATOM     18  C   LIG    1       23.997 -13.230   4.738  0.00  0.00    +0.027 C 
ENDBRANCH   1  18
TORSDOF 2
ENDMDL
MODEL 7
REMARK VINA RESULT:      -3.3      1.578      2.677
REMARK  Name = *****
REMARK                            x       y       z     vdW  Elec       q    Type
REMARK                         _______ _______ _______ _____ _____    ______ ____
ROOT
ATOM      1  C   LIG    1       25.358 -13.858   3.765  0.00  0.00    +0.147 C 
ATOM      2  C   LIG    1       25.876 -13.322   5.122  0.00  0.00    +0.234 C 
ATOM      3  O   LIG    1       26.875 -13.749   5.700  0.00  0.00    -0.274 OA
ATOM      4  N   LIG    1       25.124 -12.355   5.731  0.00  0.00    -0.299 N 
ATOM      5  H   LIG    1       25.412 -12.092   6.664  0.00  0.00    +0.150 HD
ATOM      6  C   LIG    1       23.849 -11.985   5.226  0.00  0.00    +0.212 C 
ATOM      7  N   LIG    1       23.946 -11.812   3.820  0.00  0.00    -0.299 N 
ATOM      8  H   LIG    1       23.359 -11.147   3.333  0.00  0.00    +0.150 HD
ATOM      9  C   LIG    1       24.589 -12.730   3.035  0.00  0.00    +0.234 C 
ATOM     10  O   LIG    1       24.480 -12.643   1.812  0.00  0.00    -0.274 OA
ENDROOT
BRANCH   1  11
ATOM     11  C   LIG    1       24.440 -15.097   3.975  0.00  0.00    -0.024 A 
ATOM     12  C   LIG    1       24.883 -16.396   3.654  0.00  0.00    +0.005 A 
ATOM     13  C   LIG    1       24.069 -17.513   3.863  0.00  0.00    +0.000 A 
ATOM     14  C   LIG    1       22.800 -17.362   4.412  0.00  0.00    +0.000 A 
ATOM     15  C   LIG    1       22.351 -16.094   4.766  0.00  0.00    +0.000 A 
ATOM     16  C   LIG    1       23.163 -14.975   4.558  0.00  0.00    +0.005 A 
ENDBRANCH   1  11
BRANCH   1  18
ATOM     17  C   LIG    1       27.780 -13.401   2.954  0.00  0.00    +0.005 C 
ATOM     18  C   LIG    1       26.560 -14.320   2.895  0.00  0.00    +0.027 C 
ENDBRANCH   1  18
TORSDOF 2
ENDMDL
MODEL 8
REMARK VINA RESULT:      -3.1      1.578      2.438
REMARK  Name = *****
REMARK                            x       y       z     vdW  Elec       q    Type
REMARK                         _______ _______ _______ _____ _____    ______ ____
ROOT
ATOM      1  C   LIG    1       25.401 -13.889   3.831  0.00  0.00    +0.147 C 
ATOM      2  C   LIG    1       25.882 -13.303   5.181  0.00  0.00    +0.234 C 
ATOM      3  O   LIG    1       26.865 -13.706   5.801  0.00  0.00    -0.274 OA
ATOM      4  N   LIG    1       25.112 -12.315   5.734  0.00  0.00    -0.299 N 
ATOM      5  H   LIG    1       25.375 -12.018   6.664  0.00  0.00    +0.150 HD
ATOM      6  C   LIG    1       23.851 -11.968   5.181  0.00  0.00    +0.212 C 
ATOM      7  N   LIG    1       23.985 -11.846   3.773  0.00  0.00    -0.299 N 
ATOM      8  H   LIG    1       23.411 -11.201   3.246  0.00  0.00    +0.150 HD
ATOM      9  C   LIG    1       24.651 -12.791   3.040  0.00  0.00    +0.234 C 
ATOM     10  O   LIG    1       24.575 -12.750   1.812  0.00  0.00    -0.274 OA
ENDROOT
BRANCH   1  11
ATOM     11  C   LIG    1       24.479 -15.122   4.062  0.00  0.00    -0.024 A 
ATOM     12  C   LIG    1       23.188 -14.975   4.609  0.00  0.00    +0.005 A 
ATOM     13  C   LIG    1       22.349 -16.076   4.797  0.00  0.00    +0.000 A 
ATOM     14  C   LIG    1       22.771 -17.349   4.428  0.00  0.00    +0.000 A 
ATOM     15  C   LIG    1       24.029 -17.517   3.857  0.00  0.00    +0.000 A 
ATOM     16  C   LIG    1       24.869 -16.417   3.668  0.00  0.00    +0.005 A 
ENDBRANCH   1  11
BRANCH   1  18
ATOM     17  C   LIG    1       27.843 -13.457   3.068  0.00  0.00    +0.005 C 
ATOM     18  C   LIG    1       26.627 -14.381   3.011  0.00  0.00    +0.027 C 
ENDBRANCH   1  18
TORSDOF 2
ENDMDL
MODEL 9
REMARK VINA RESULT:      -3.0      1.699      2.442
REMARK  Name = *****
REMARK                            x       y       z     vdW  Elec       q    Type
REMARK                         _______ _______ _______ _____ _____    ______ ____
ROOT
ATOM      1  C   LIG    1       25.824 -14.113   4.037  0.00  0.00    +0.147 C 
ATOM      2  C   LIG    1       26.144 -13.360   2.723  0.00  0.00    +0.234 C 
ATOM      3  O   LIG    1       25.333 -13.173   1.817  0.00  0.00    -0.274 OA
ATOM      4  N   LIG    1       27.435 -12.939   2.551  0.00  0.00    -0.299 N 
ATOM      5  H   LIG    1       27.655 -12.546   1.645  0.00  0.00    +0.150 HD
ATOM      6  C   LIG    1       28.461 -13.322   3.454  0.00  0.00    +0.212 C 
ATOM      7  N   LIG    1       27.991 -13.148   4.783  0.00  0.00    -0.299 N 
ATOM      8  H   LIG    1       28.625 -12.911   5.535  0.00  0.00    +0.150 HD
ATOM      9  C   LIG    1       26.752 -13.588   5.160  0.00  0.00    +0.234 C 
ATOM     10  O   LIG    1       26.464 -13.595   6.357  0.00  0.00    -0.274 OA
ENDROOT
BRANCH   1  11
ATOM     11  C   LIG    1       26.006 -15.648   3.852  0.00  0.00    -0.024 A 
ATOM     12  C   LIG    1       27.255 -16.266   4.065  0.00  0.00    +0.005 A 
ATOM     13  C   LIG    1       27.416 -17.647   3.922  0.00  0.00    +0.000 A 
ATOM     14  C   LIG    1       26.332 -18.446   3.577  0.00  0.00    +0.000 A 
ATOM     15  C   LIG    1       25.082 -17.865   3.391  0.00  0.00    +0.000 A 
ATOM     16  C   LIG    1       24.918 -16.485   3.535  0.00  0.00    +0.005 A 
ENDBRANCH   1  11
BRANCH   1  18
ATOM     17  C   LIG    1       23.894 -12.411   4.362  0.00  0.00    +0.005 C 
ATOM     18  C   LIG    1       24.340 -13.871   4.428  0.00  0.00    +0.027 C 
ENDBRANCH   1  18
TORSDOF 2
ENDMDL
