MODEL 1
REMARK VINA RESULT:      -7.1      0.000      0.000
REMARK  Name = *****
REMARK                            x       y       z     vdW  Elec       q    Type
REMARK                         _______ _______ _______ _____ _____    ______ ____
ROOT
ATOM      1  N   LIG    1       22.368 -17.138   4.804  0.00  0.00    -0.313 NA
ATOM      2  H   LIG    1       22.620 -17.077   5.791  0.00  0.00    +0.122 HD
ENDROOT
BRANCH   1   4
ATOM      3  C   LIG    1       21.114 -18.784   3.738  0.00  0.00    +0.024 C 
ATOM      4  C   LIG    1       22.387 -18.566   4.431  0.00  0.00    +0.051 C 
BRANCH   4   5
ATOM      5  C   LIG    1       22.338 -19.692   5.460  0.00  0.00    +0.023 C 
BRANCH   5   6
ATOM      6  C   LIG    1       23.317 -20.849   5.050  0.00  0.00    +0.036 C 
BRANCH   6   7
ATOM      7  C   LIG    1       24.734 -20.575   5.417  0.00  0.00    -0.047 A 
ATOM      8  C   LIG    1       25.163 -20.899   6.698  0.00  0.00    +0.007 A 
ATOM      9  C   LIG    1       26.476 -20.641   7.062  0.00  0.00    +0.045 A 
ATOM     10  C   LIG    1       27.355 -20.100   6.128  0.00  0.00    +0.117 A 
ATOM     11  C   LIG    1       26.933 -19.758   4.848  0.00  0.00    +0.045 A 
ATOM     12  C   LIG    1       25.610 -19.980   4.493  0.00  0.00    +0.007 A 
BRANCH  10  13
ATOM     13  O   LIG    1       28.666 -19.902   6.442  0.00  0.00    -0.507 OA
ATOM     14  H   LIG    1       28.698 -19.311   7.212  0.00  0.00    +0.292 HD
ENDBRANCH  10  13
ENDBRANCH   6   7
ENDBRANCH   5   6
ENDBRANCH   4   5
ENDBRANCH   1   4
BRANCH   1  15
ATOM     15  C   LIG    1       23.306 -16.225   4.039  0.00  0.00    +0.086 C 
BRANCH  15  16
ATOM     16  C   LIG    1       23.671 -14.699   4.431  0.00  0.00    +0.050 C 
BRANCH  16  17
ATOM     17  C   LIG    1       25.034 -14.044   4.140  0.00  0.00    -0.043 A 
ATOM     18  C   LIG    1       25.889 -13.586   5.126  0.00  0.00    +0.052 A 
ATOM     19  C   LIG    1       27.212 -13.281   4.782  0.00  0.00    +0.159 A 
ATOM     20  C   LIG    1       27.746 -13.584   3.551  0.00  0.00    +0.158 A 
ATOM     21  C   LIG    1       26.886 -13.993   2.554  0.00  0.00    +0.049 A 
ATOM     22  C   LIG    1       25.545 -13.861   2.867  0.00  0.00    +0.007 A 
BRANCH  19  23
ATOM     23  O   LIG    1       28.045 -12.670   5.726  0.00  0.00    -0.503 OA
ATOM     24  H   LIG    1       28.801 -13.290   5.761  0.00  0.00    +0.292 HD
ENDBRANCH  19  23
BRANCH  20  25
ATOM     25  O   LIG    1       29.071 -13.401   3.280  0.00  0.00    -0.503 OA
ATOM     26  H   LIG    1       29.144 -12.691   2.619  0.00  0.00    +0.292 HD
ENDBRANCH  20  25
ENDBRANCH  16  17
ENDBRANCH  15  16
ENDBRANCH   1  15
TORSDOF 10
ENDMDL
MODEL 2
REMARK VINA RESULT:      -6.9      2.749      4.439
REMARK  Name = *****
REMARK                            x       y       z     vdW  Elec       q    Type
REMARK                         _______ _______ _______ _____ _____    ______ ____
ROOT
ATOM      1  N   LIG    1       28.336 -19.380   5.158  0.00  0.00    -0.313 NA
ATOM      2  H   LIG    1       27.616 -19.844   4.603  0.00  0.00    +0.122 HD
ENDROOT
BRANCH   1   4
ATOM      3  C   LIG    1       29.094 -20.754   6.877  0.00  0.00    +0.024 C 
ATOM      4  C   LIG    1       28.094 -19.727   6.572  0.00  0.00    +0.051 C 
BRANCH   4   5
ATOM      5  C   LIG    1       26.824 -20.428   7.048  0.00  0.00    +0.023 C 
BRANCH   5   6
ATOM      6  C   LIG    1       26.128 -21.169   5.851  0.00  0.00    +0.036 C 
BRANCH   6   7
ATOM      7  C   LIG    1       24.916 -20.463   5.351  0.00  0.00    -0.047 A 
ATOM      8  C   LIG    1       23.761 -20.499   6.121  0.00  0.00    +0.007 A 
ATOM      9  C   LIG    1       22.619 -19.857   5.667  0.00  0.00    +0.045 A 
ATOM     10  C   LIG    1       22.658 -19.152   4.467  0.00  0.00    +0.117 A 
ATOM     11  C   LIG    1       23.803 -19.120   3.681  0.00  0.00    +0.045 A 
ATOM     12  C   LIG    1       24.937 -19.793   4.115  0.00  0.00    +0.007 A 
BRANCH  10  13
ATOM     13  O   LIG    1       21.568 -18.456   4.036  0.00  0.00    -0.507 OA
ATOM     14  H   LIG    1       20.783 -18.999   4.215  0.00  0.00    +0.292 HD
ENDBRANCH  10  13
ENDBRANCH   6   7
ENDBRANCH   5   6
ENDBRANCH   4   5
ENDBRANCH   1   4
BRANCH   1  15
ATOM     15  C   LIG    1       28.300 -17.906   4.806  0.00  0.00    +0.086 C 
BRANCH  15  16
ATOM     16  C   LIG    1       27.340 -17.220   3.701  0.00  0.00    +0.050 C 
BRANCH  16  17
ATOM     17  C   LIG    1       26.821 -15.773   3.798  0.00  0.00    -0.043 A 
ATOM     18  C   LIG    1       25.524 -15.404   3.494  0.00  0.00    +0.052 A 
ATOM     19  C   LIG    1       25.073 -14.138   3.891  0.00  0.00    +0.159 A 
ATOM     20  C   LIG    1       25.802 -13.319   4.722  0.00  0.00    +0.158 A 
ATOM     21  C   LIG    1       27.112 -13.662   4.985  0.00  0.00    +0.049 A 
ATOM     22  C   LIG    1       27.595 -14.703   4.213  0.00  0.00    +0.007 A 
BRANCH  19  23
ATOM     23  O   LIG    1       23.822 -13.686   3.457  0.00  0.00    -0.503 OA
ATOM     24  H   LIG    1       23.943 -12.715   3.464  0.00  0.00    +0.292 HD
ENDBRANCH  19  23
BRANCH  20  25
ATOM     25  O   LIG    1       25.291 -12.150   5.204  0.00  0.00    -0.503 OA
ATOM     26  H   LIG    1       25.765 -11.933   6.025  0.00  0.00    +0.292 HD
ENDBRANCH  20  25
ENDBRANCH  16  17
ENDBRANCH  15  16
ENDBRANCH   1  15
TORSDOF 10
ENDMDL
MODEL 3
REMARK VINA RESULT:      -6.4      2.886      4.515
REMARK  Name = *****
REMARK                            x       y       z     vdW  Elec       q    Type
REMARK                         _______ _______ _______ _____ _____    ______ ____
ROOT
ATOM      1  N   LIG    1       28.836 -18.165   4.741  0.00  0.00    -0.313 NA
ATOM      2  H   LIG    1       28.600 -18.693   3.900  0.00  0.00    +0.122 HD
ENDROOT
BRANCH   1   4
ATOM      3  C   LIG    1       29.471 -18.964   6.833  0.00  0.00    +0.024 C 
ATOM      4  C   LIG    1       28.342 -18.937   5.898  0.00  0.00    +0.051 C 
BRANCH   4   5
ATOM      5  C   LIG    1       28.010 -20.424   5.822  0.00  0.00    +0.023 C 
BRANCH   5   6
ATOM      6  C   LIG    1       26.849 -20.776   6.819  0.00  0.00    +0.036 C 
BRANCH   6   7
ATOM      7  C   LIG    1       25.495 -20.594   6.228  0.00  0.00    -0.047 A 
ATOM      8  C   LIG    1       24.384 -20.801   7.036  0.00  0.00    +0.007 A 
ATOM      9  C   LIG    1       23.114 -20.647   6.501  0.00  0.00    +0.045 A 
ATOM     10  C   LIG    1       22.971 -20.248   5.175  0.00  0.00    +0.117 A 
ATOM     11  C   LIG    1       24.074 -20.051   4.353  0.00  0.00    +0.045 A 
ATOM     12  C   LIG    1       25.346 -20.242   4.875  0.00  0.00    +0.007 A 
BRANCH  10  13
ATOM     13  O   LIG    1       21.734 -20.023   4.648  0.00  0.00    -0.507 OA
ATOM     14  H   LIG    1       21.183 -19.636   5.347  0.00  0.00    +0.292 HD
ENDBRANCH  10  13
ENDBRANCH   6   7
ENDBRANCH   5   6
ENDBRANCH   4   5
ENDBRANCH   1   4
BRANCH   1  15
ATOM     15  C   LIG    1       28.278 -16.766   4.570  0.00  0.00    +0.086 C 
BRANCH  15  16
ATOM     16  C   LIG    1       27.029 -16.353   3.631  0.00  0.00    +0.050 C 
BRANCH  16  17
ATOM     17  C   LIG    1       26.362 -14.965   3.655  0.00  0.00    -0.043 A 
ATOM     18  C   LIG    1       25.440 -14.542   2.716  0.00  0.00    +0.052 A 
ATOM     19  C   LIG    1       24.680 -13.397   2.985  0.00  0.00    +0.159 A 
ATOM     20  C   LIG    1       24.683 -12.778   4.214  0.00  0.00    +0.158 A 
ATOM     21  C   LIG    1       25.635 -13.166   5.133  0.00  0.00    +0.049 A 
ATOM     22  C   LIG    1       26.607 -14.010   4.627  0.00  0.00    +0.007 A 
BRANCH  19  23
ATOM     23  O   LIG    1       23.859 -12.865   1.985  0.00  0.00    -0.503 OA
ATOM     24  H   LIG    1       22.965 -13.015   2.355  0.00  0.00    +0.292 HD
ENDBRANCH  19  23
BRANCH  20  25
ATOM     25  O   LIG    1       23.838 -11.745   4.498  0.00  0.00    -0.503 OA
ATOM     26  H   LIG    1       24.252 -11.203   5.192  0.00  0.00    +0.292 HD
ENDBRANCH  20  25
ENDBRANCH  16  17
ENDBRANCH  15  16
ENDBRANCH   1  15
TORSDOF 10
ENDMDL
MODEL 4
REMARK VINA RESULT:      -6.3      1.032      6.723
REMARK  Name = *****
REMARK                            x       y       z     vdW  Elec       q    Type
REMARK                         _______ _______ _______ _____ _____    ______ ____
ROOT
ATOM      1  N   LIG    1       21.976 -17.135   4.869  0.00  0.00    -0.313 NA
ATOM      2  H   LIG    1       21.078 -16.669   5.001  0.00  0.00    +0.122 HD
ENDROOT
BRANCH   1   4
ATOM      3  C   LIG    1       24.125 -16.919   4.001  0.00  0.00    +0.024 C 
ATOM      4  C   LIG    1       22.870 -16.183   4.181  0.00  0.00    +0.051 C 
BRANCH   4   5
ATOM      5  C   LIG    1       23.389 -14.909   4.842  0.00  0.00    +0.023 C 
BRANCH   5   6
ATOM      6  C   LIG    1       23.884 -13.892   3.753  0.00  0.00    +0.036 C 
BRANCH   6   7
ATOM      7  C   LIG    1       25.366 -13.755   3.711  0.00  0.00    -0.047 A 
ATOM      8  C   LIG    1       26.013 -13.908   2.491  0.00  0.00    +0.007 A 
ATOM      9  C   LIG    1       27.393 -13.795   2.433  0.00  0.00    +0.045 A 
ATOM     10  C   LIG    1       28.107 -13.489   3.589  0.00  0.00    +0.117 A 
ATOM     11  C   LIG    1       27.473 -13.348   4.817  0.00  0.00    +0.045 A 
ATOM     12  C   LIG    1       26.095 -13.498   4.885  0.00  0.00    +0.007 A 
BRANCH  10  13
ATOM     13  O   LIG    1       29.457 -13.305   3.542  0.00  0.00    -0.507 OA
ATOM     14  H   LIG    1       29.641 -12.655   2.845  0.00  0.00    +0.292 HD
ENDBRANCH  10  13
ENDBRANCH   6   7
ENDBRANCH   5   6
ENDBRANCH   4   5
ENDBRANCH   1   4
BRANCH   1  15
ATOM     15  C   LIG    1       21.706 -18.447   4.156  0.00  0.00    +0.086 C 
BRANCH  15  16
ATOM     16  C   LIG    1       21.970 -19.923   4.758  0.00  0.00    +0.050 C 
BRANCH  16  17
ATOM     17  C   LIG    1       23.362 -20.447   5.159  0.00  0.00    -0.043 A 
ATOM     18  C   LIG    1       24.531 -20.083   4.517  0.00  0.00    +0.052 A 
ATOM     19  C   LIG    1       25.756 -20.374   5.131  0.00  0.00    +0.159 A 
ATOM     20  C   LIG    1       25.845 -20.844   6.421  0.00  0.00    +0.158 A 
ATOM     21  C   LIG    1       24.684 -21.253   7.044  0.00  0.00    +0.049 A 
ATOM     22  C   LIG    1       23.583 -21.320   6.210  0.00  0.00    +0.007 A 
BRANCH  19  23
ATOM     23  O   LIG    1       26.947 -20.157   4.428  0.00  0.00    -0.503 OA
ATOM     24  H   LIG    1       26.637 -20.153   3.500  0.00  0.00    +0.292 HD
ENDBRANCH  19  23
BRANCH  20  25
ATOM     25  O   LIG    1       27.048 -20.994   7.047  0.00  0.00    -0.503 OA
ATOM     26  H   LIG    1       27.637 -20.285   6.737  0.00  0.00    +0.292 HD
ENDBRANCH  20  25
ENDBRANCH  16  17
ENDBRANCH  15  16
ENDBRANCH   1  15
TORSDOF 10
ENDMDL
MODEL 5
REMARK VINA RESULT:      -5.6      1.805      6.893
REMARK  Name = *****
REMARK                            x       y       z     vdW  Elec       q    Type
REMARK                         _______ _______ _______ _____ _____    ______ ____
ROOT
ATOM      1  N   LIG    1       22.792 -14.624   3.837  0.00  0.00    -0.313 NA
ATOM      2  H   LIG    1       22.499 -14.956   2.917  0.00  0.00    +0.122 HD
ENDROOT
BRANCH   1   4
ATOM      3  C   LIG    1       23.889 -12.601   3.488  0.00  0.00    +0.024 C 
ATOM      4  C   LIG    1       24.136 -14.032   3.685  0.00  0.00    +0.051 C 
BRANCH   4   5
ATOM      5  C   LIG    1       25.039 -14.324   2.490  0.00  0.00    +0.023 C 
BRANCH   5   6
ATOM      6  C   LIG    1       26.385 -14.976   2.969  0.00  0.00    +0.036 C 
BRANCH   6   7
ATOM      7  C   LIG    1       27.211 -14.063   3.807  0.00  0.00    -0.047 A 
ATOM      8  C   LIG    1       28.275 -13.396   3.213  0.00  0.00    +0.007 A 
ATOM      9  C   LIG    1       29.062 -12.550   3.979  0.00  0.00    +0.045 A 
ATOM     10  C   LIG    1       28.752 -12.350   5.321  0.00  0.00    +0.117 A 
ATOM     11  C   LIG    1       27.699 -13.023   5.931  0.00  0.00    +0.045 A 
ATOM     12  C   LIG    1       26.932 -13.899   5.175  0.00  0.00    +0.007 A 
BRANCH  10  13
ATOM     13  O   LIG    1       29.470 -11.471   6.075  0.00  0.00    -0.507 OA
ATOM     14  H   LIG    1       30.138 -11.066   5.499  0.00  0.00    +0.292 HD
ENDBRANCH  10  13
ENDBRANCH   6   7
ENDBRANCH   5   6
ENDBRANCH   4   5
ENDBRANCH   1   4
BRANCH   1  15
ATOM     15  C   LIG    1       22.670 -15.790   4.799  0.00  0.00    +0.086 C 
BRANCH  15  16
ATOM     16  C   LIG    1       22.061 -17.246   4.449  0.00  0.00    +0.050 C 
BRANCH  16  17
ATOM     17  C   LIG    1       22.877 -18.551   4.510  0.00  0.00    -0.043 A 
ATOM     18  C   LIG    1       24.037 -18.763   3.789  0.00  0.00    +0.052 A 
ATOM     19  C   LIG    1       24.854 -19.848   4.131  0.00  0.00    +0.159 A 
ATOM     20  C   LIG    1       24.647 -20.605   5.261  0.00  0.00    +0.158 A 
ATOM     21  C   LIG    1       23.466 -20.428   5.952  0.00  0.00    +0.049 A 
ATOM     22  C   LIG    1       22.538 -19.634   5.303  0.00  0.00    +0.007 A 
BRANCH  19  23
ATOM     23  O   LIG    1       25.945 -20.171   3.317  0.00  0.00    -0.503 OA
ATOM     24  H   LIG    1       25.677 -19.791   2.456  0.00  0.00    +0.292 HD
ENDBRANCH  19  23
BRANCH  20  25
ATOM     25  O   LIG    1       25.528 -21.571   5.648  0.00  0.00    -0.503 OA
ATOM     26  H   LIG    1       26.427 -21.219   5.531  0.00  0.00    +0.292 HD
ENDBRANCH  20  25
ENDBRANCH  16  17
ENDBRANCH  15  16
ENDBRANCH   1  15
TORSDOF 10
ENDMDL
MODEL 6
REMARK VINA RESULT:      -5.6      1.018      6.409
REMARK  Name = *****
REMARK                            x       y       z     vdW  Elec       q    Type
REMARK                         _______ _______ _______ _____ _____    ______ ____
ROOT
ATOM      1  N   LIG    1       21.629 -17.470   4.763  0.00  0.00    -0.313 NA
ATOM      2  H   LIG    1       20.998 -16.979   4.128  0.00  0.00    +0.122 HD
ENDROOT
BRANCH   1   4
ATOM      3  C   LIG    1       22.241 -15.482   5.807  0.00  0.00    +0.024 C 
ATOM      4  C   LIG    1       22.784 -16.585   5.010  0.00  0.00    +0.051 C 
BRANCH   4   5
ATOM      5  C   LIG    1       23.483 -15.806   3.899  0.00  0.00    +0.023 C 
BRANCH   5   6
ATOM      6  C   LIG    1       23.887 -14.376   4.406  0.00  0.00    +0.036 C 
BRANCH   6   7
ATOM      7  C   LIG    1       25.307 -14.033   4.118  0.00  0.00    -0.047 A 
ATOM      8  C   LIG    1       26.116 -13.616   5.168  0.00  0.00    +0.007 A 
ATOM      9  C   LIG    1       27.438 -13.282   4.918  0.00  0.00    +0.045 A 
ATOM     10  C   LIG    1       27.947 -13.407   3.628  0.00  0.00    +0.117 A 
ATOM     11  C   LIG    1       27.144 -13.809   2.567  0.00  0.00    +0.045 A 
ATOM     12  C   LIG    1       25.810 -14.108   2.808  0.00  0.00    +0.007 A 
BRANCH  10  13
ATOM     13  O   LIG    1       29.261 -13.150   3.373  0.00  0.00    -0.507 OA
ATOM     14  H   LIG    1       29.724 -13.116   4.225  0.00  0.00    +0.292 HD
ENDBRANCH  10  13
ENDBRANCH   6   7
ENDBRANCH   5   6
ENDBRANCH   4   5
ENDBRANCH   1   4
BRANCH   1  15
ATOM     15  C   LIG    1       21.930 -18.822   4.147  0.00  0.00    +0.086 C 
BRANCH  15  16
ATOM     16  C   LIG    1       23.310 -19.246   3.420  0.00  0.00    +0.050 C 
BRANCH  16  17
ATOM     17  C   LIG    1       24.461 -19.982   4.132  0.00  0.00    -0.043 A 
ATOM     18  C   LIG    1       25.758 -19.505   4.183  0.00  0.00    +0.052 A 
ATOM     19  C   LIG    1       26.653 -20.086   5.090  0.00  0.00    +0.159 A 
ATOM     20  C   LIG    1       26.255 -20.985   6.052  0.00  0.00    +0.158 A 
ATOM     21  C   LIG    1       24.977 -21.498   5.971  0.00  0.00    +0.049 A 
ATOM     22  C   LIG    1       24.309 -21.183   4.802  0.00  0.00    +0.007 A 
BRANCH  19  23
ATOM     23  O   LIG    1       28.006 -19.728   5.047  0.00  0.00    -0.503 OA
ATOM     24  H   LIG    1       28.433 -20.494   5.482  0.00  0.00    +0.292 HD
ENDBRANCH  19  23
BRANCH  20  25
ATOM     25  O   LIG    1       27.115 -21.438   7.010  0.00  0.00    -0.503 OA
ATOM     26  H   LIG    1       27.360 -20.683   7.571  0.00  0.00    +0.292 HD
ENDBRANCH  20  25
ENDBRANCH  16  17
ENDBRANCH  15  16
ENDBRANCH   1  15
TORSDOF 10
ENDMDL
MODEL 7
REMARK VINA RESULT:      -5.3      2.695      4.338
REMARK  Name = *****
REMARK                            x       y       z     vdW  Elec       q    Type
REMARK                         _______ _______ _______ _____ _____    ______ ____
ROOT
ATOM      1  N   LIG    1       26.466 -19.995   4.419  0.00  0.00    -0.313 NA
ATOM      2  H   LIG    1       25.722 -20.344   3.814  0.00  0.00    +0.122 HD
ENDROOT
BRANCH   1   4
ATOM      3  C   LIG    1       27.355 -20.610   6.480  0.00  0.00    +0.024 C 
ATOM      4  C   LIG    1       26.087 -20.310   5.810  0.00  0.00    +0.051 C 
BRANCH   4   5
ATOM      5  C   LIG    1       25.275 -21.546   6.188  0.00  0.00    +0.023 C 
BRANCH   5   6
ATOM      6  C   LIG    1       23.898 -21.124   6.814  0.00  0.00    +0.036 C 
BRANCH   6   7
ATOM      7  C   LIG    1       22.994 -20.452   5.841  0.00  0.00    -0.047 A 
ATOM      8  C   LIG    1       22.070 -21.224   5.148  0.00  0.00    +0.007 A 
ATOM      9  C   LIG    1       21.227 -20.618   4.230  0.00  0.00    +0.045 A 
ATOM     10  C   LIG    1       21.289 -19.240   4.045  0.00  0.00    +0.117 A 
ATOM     11  C   LIG    1       22.218 -18.458   4.722  0.00  0.00    +0.045 A 
ATOM     12  C   LIG    1       23.089 -19.068   5.614  0.00  0.00    +0.007 A 
BRANCH  10  13
ATOM     13  O   LIG    1       20.423 -18.614   3.199  0.00  0.00    -0.507 OA
ATOM     14  H   LIG    1       19.747 -19.261   2.939  0.00  0.00    +0.292 HD
ENDBRANCH  10  13
ENDBRANCH   6   7
ENDBRANCH   5   6
ENDBRANCH   4   5
ENDBRANCH   1   4
BRANCH   1  15
ATOM     15  C   LIG    1       26.669 -18.529   4.087  0.00  0.00    +0.086 C 
BRANCH  15  16
ATOM     16  C   LIG    1       25.623 -17.583   3.297  0.00  0.00    +0.050 C 
BRANCH  16  17
ATOM     17  C   LIG    1       25.551 -16.054   3.471  0.00  0.00    -0.043 A 
ATOM     18  C   LIG    1       26.548 -15.190   3.058  0.00  0.00    +0.052 A 
ATOM     19  C   LIG    1       26.266 -13.820   2.991  0.00  0.00    +0.159 A 
ATOM     20  C   LIG    1       24.995 -13.316   3.145  0.00  0.00    +0.158 A 
ATOM     21  C   LIG    1       24.012 -14.168   3.604  0.00  0.00    +0.049 A 
ATOM     22  C   LIG    1       24.478 -15.394   4.042  0.00  0.00    +0.007 A 
BRANCH  19  23
ATOM     23  O   LIG    1       27.302 -12.916   2.729  0.00  0.00    -0.503 OA
ATOM     24  H   LIG    1       26.918 -12.071   3.039  0.00  0.00    +0.292 HD
ENDBRANCH  19  23
BRANCH  20  25
ATOM     25  O   LIG    1       24.718 -11.995   2.944  0.00  0.00    -0.503 OA
ATOM     26  H   LIG    1       25.265 -11.479   3.561  0.00  0.00    +0.292 HD
ENDBRANCH  20  25
ENDBRANCH  16  17
ENDBRANCH  15  16
ENDBRANCH   1  15
TORSDOF 10
ENDMDL
MODEL 8
REMARK VINA RESULT:      -5.2      2.647      4.406
REMARK  Name = *****
REMARK                            x       y       z     vdW  Elec       q    Type
REMARK                         _______ _______ _______ _____ _____    ______ ____
ROOT
ATOM      1  N   LIG    1       28.998 -18.195   6.366  0.00  0.00    -0.313 NA
ATOM      2  H   LIG    1       29.958 -17.989   6.646  0.00  0.00    +0.122 HD
ENDROOT
BRANCH   1   4
ATOM      3  C   LIG    1       29.066 -20.407   5.645  0.00  0.00    +0.024 C 
ATOM      4  C   LIG    1       28.701 -19.576   6.796  0.00  0.00    +0.051 C 
BRANCH   4   5
ATOM      5  C   LIG    1       27.284 -20.075   7.060  0.00  0.00    +0.023 C 
BRANCH   5   6
ATOM      6  C   LIG    1       26.724 -20.825   5.799  0.00  0.00    +0.036 C 
BRANCH   6   7
ATOM      7  C   LIG    1       25.354 -20.387   5.418  0.00  0.00    -0.047 A 
ATOM      8  C   LIG    1       25.164 -19.810   4.169  0.00  0.00    +0.007 A 
ATOM      9  C   LIG    1       23.897 -19.386   3.799  0.00  0.00    +0.045 A 
ATOM     10  C   LIG    1       22.826 -19.580   4.668  0.00  0.00    +0.117 A 
ATOM     11  C   LIG    1       23.006 -20.143   5.926  0.00  0.00    +0.045 A 
ATOM     12  C   LIG    1       24.280 -20.534   6.313  0.00  0.00    +0.007 A 
BRANCH  10  13
ATOM     13  O   LIG    1       21.561 -19.234   4.298  0.00  0.00    -0.507 OA
ATOM     14  H   LIG    1       21.125 -20.033   3.961  0.00  0.00    +0.292 HD
ENDBRANCH  10  13
ENDBRANCH   6   7
ENDBRANCH   5   6
ENDBRANCH   4   5
ENDBRANCH   1   4
BRANCH   1  15
ATOM     15  C   LIG    1       28.887 -17.908   4.881  0.00  0.00    +0.086 C 
BRANCH  15  16
ATOM     16  C   LIG    1       27.559 -17.402   4.111  0.00  0.00    +0.050 C 
BRANCH  16  17
ATOM     17  C   LIG    1       27.200 -15.918   3.911  0.00  0.00    -0.043 A 
ATOM     18  C   LIG    1       28.121 -14.890   3.988  0.00  0.00    +0.052 A 
ATOM     19  C   LIG    1       27.762 -13.625   3.506  0.00  0.00    +0.159 A 
ATOM     20  C   LIG    1       26.602 -13.404   2.800  0.00  0.00    +0.158 A 
ATOM     21  C   LIG    1       25.661 -14.412   2.765  0.00  0.00    +0.049 A 
ATOM     22  C   LIG    1       25.924 -15.467   3.619  0.00  0.00    +0.007 A 
BRANCH  19  23
ATOM     23  O   LIG    1       28.618 -12.539   3.718  0.00  0.00    -0.503 OA
ATOM     24  H   LIG    1       28.423 -11.972   2.944  0.00  0.00    +0.292 HD
ENDBRANCH  19  23
BRANCH  20  25
ATOM     25  O   LIG    1       26.333 -12.196   2.224  0.00  0.00    -0.503 OA
ATOM     26  H   LIG    1       26.505 -11.505   2.887  0.00  0.00    +0.292 HD
ENDBRANCH  20  25
ENDBRANCH  16  17
ENDBRANCH  15  16
ENDBRANCH   1  15
TORSDOF 10
ENDMDL
MODEL 9
REMARK VINA RESULT:      -5.0      2.165      6.548
REMARK  Name = *****
REMARK                            x       y       z     vdW  Elec       q    Type
REMARK                         _______ _______ _______ _____ _____    ______ ____
ROOT
ATOM      1  N   LIG    1       22.909 -13.875   4.299  0.00  0.00    -0.313 NA
ATOM      2  H   LIG    1       22.371 -13.920   3.432  0.00  0.00    +0.122 HD
ENDROOT
BRANCH   1   4
ATOM      3  C   LIG    1       23.802 -11.844   5.001  0.00  0.00    +0.024 C 
ATOM      4  C   LIG    1       24.037 -12.950   4.069  0.00  0.00    +0.051 C 
BRANCH   4   5
ATOM      5  C   LIG    1       24.224 -12.180   2.765  0.00  0.00    +0.023 C 
BRANCH   5   6
ATOM      6  C   LIG    1       25.638 -12.481   2.151  0.00  0.00    +0.036 C 
BRANCH   6   7
ATOM      7  C   LIG    1       26.347 -13.597   2.836  0.00  0.00    -0.047 A 
ATOM      8  C   LIG    1       25.889 -14.894   2.642  0.00  0.00    +0.007 A 
ATOM      9  C   LIG    1       26.529 -15.945   3.279  0.00  0.00    +0.045 A 
ATOM     10  C   LIG    1       27.646 -15.692   4.072  0.00  0.00    +0.117 A 
ATOM     11  C   LIG    1       28.105 -14.397   4.285  0.00  0.00    +0.045 A 
ATOM     12  C   LIG    1       27.443 -13.339   3.678  0.00  0.00    +0.007 A 
BRANCH  10  13
ATOM     13  O   LIG    1       28.332 -16.716   4.652  0.00  0.00    -0.507 OA
ATOM     14  H   LIG    1       27.731 -17.476   4.711  0.00  0.00    +0.292 HD
ENDBRANCH  10  13
ENDBRANCH   6   7
ENDBRANCH   5   6
ENDBRANCH   4   5
ENDBRANCH   1   4
BRANCH   1  15
ATOM     15  C   LIG    1       23.266 -15.297   4.685  0.00  0.00    +0.086 C 
BRANCH  15  16
ATOM     16  C   LIG    1       22.368 -16.610   4.397  0.00  0.00    +0.050 C 
BRANCH  16  17
ATOM     17  C   LIG    1       22.923 -18.047   4.415  0.00  0.00    -0.043 A 
ATOM     18  C   LIG    1       24.071 -18.432   3.749  0.00  0.00    +0.052 A 
ATOM     19  C   LIG    1       24.649 -19.669   4.062  0.00  0.00    +0.159 A 
ATOM     20  C   LIG    1       24.228 -20.436   5.124  0.00  0.00    +0.158 A 
ATOM     21  C   LIG    1       23.056 -20.079   5.757  0.00  0.00    +0.049 A 
ATOM     22  C   LIG    1       22.337 -19.090   5.111  0.00  0.00    +0.007 A 
BRANCH  19  23
ATOM     23  O   LIG    1       25.715 -20.146   3.292  0.00  0.00    -0.503 OA
ATOM     24  H   LIG    1       25.982 -19.346   2.795  0.00  0.00    +0.292 HD
ENDBRANCH  19  23
BRANCH  20  25
ATOM     25  O   LIG    1       24.888 -21.572   5.494  0.00  0.00    -0.503 OA
ATOM     26  H   LIG    1       24.747 -21.701   6.448  0.00  0.00    +0.292 HD
ENDBRANCH  20  25
ENDBRANCH  16  17
ENDBRANCH  15  16
ENDBRANCH   1  15
TORSDOF 10
ENDMDL
