MODEL 1
REMARK VINA RESULT:      -6.3      0.000      0.000
REMARK  Name = *****
REMARK                            x       y       z     vdW  Elec       q    Type
REMARK                         _______ _______ _______ _____ _____    ______ ____
ROOT
ATOM      1  C   LIG    1       22.194 -18.463   4.159  0.00  0.00    +0.160 C 
ENDROOT
BRANCH   1   2
ATOM      2  C   LIG    1       22.386 -19.539   5.232  0.00  0.00    +0.033 C 
BRANCH   2   3
ATOM      3  C   LIG    1       23.312 -20.669   4.770  0.00  0.00    +0.037 C 
BRANCH   3   8
ATOM      4 CL   LIG    1       28.960 -20.127   6.833  0.00  0.00    -0.084 Cl
ATOM      5  C   LIG    1       27.344 -20.264   6.258  0.00  0.00    +0.041 A 
ATOM      6  C   LIG    1       26.366 -20.833   7.061  0.00  0.00    +0.020 A 
ATOM      7  C   LIG    1       25.054 -20.955   6.592  0.00  0.00    +0.005 A 
ATOM      8  C   LIG    1       24.721 -20.509   5.299  0.00  0.00    -0.047 A 
ATOM      9  C   LIG    1       25.717 -19.934   4.505  0.00  0.00    +0.005 A 
ATOM     10  C   LIG    1       27.026 -19.803   4.976  0.00  0.00    +0.020 A 
ENDBRANCH   3   8
ENDBRANCH   2   3
ENDBRANCH   1   2
BRANCH   1  11
ATOM     11  O   LIG    1       23.016 -17.327   4.441  0.00  0.00    -0.380 OA
BRANCH  11  12
ATOM     12  C   LIG    1       22.243 -16.170   4.807  0.00  0.00    +0.161 C 
BRANCH  12  13
ATOM     13  C   LIG    1       23.196 -14.977   4.925  0.00  0.00    +0.043 C 
BRANCH  13  14
ATOM     14  C   LIG    1       24.177 -14.797   3.750  0.00  0.00    +0.086 C 
BRANCH  14  15
ATOM     15  N   LIG    1       24.785 -13.465   3.616  0.00  0.00    -0.302 NA
ATOM     16  C   LIG    1       25.444 -12.948   4.820  0.00  0.00    +0.084 C 
ATOM     17  C   LIG    1       26.786 -13.600   5.152  0.00  0.00    +0.015 C 
ATOM     18  C   LIG    1       27.747 -13.592   3.971  0.00  0.00    +0.002 C 
ATOM     19  C   LIG    1       27.081 -13.987   2.655  0.00  0.00    +0.015 C 
ATOM     20  C   LIG    1       25.695 -13.360   2.462  0.00  0.00    +0.084 C 
ENDBRANCH  14  15
ENDBRANCH  13  14
ENDBRANCH  12  13
ENDBRANCH  11  12
ENDBRANCH   1  11
TORSDOF 8
ENDMDL
MODEL 2
REMARK VINA RESULT:      -6.0      3.475      7.233
REMARK  Name = *****
REMARK                            x       y       z     vdW  Elec       q    Type
REMARK                         _______ _______ _______ _____ _____    ______ ____
ROOT
ATOM      1  C   LIG    1       28.745 -17.958   4.808  0.00  0.00    +0.160 C 
ENDROOT
BRANCH   1   2
ATOM      2  C   LIG    1       28.068 -16.608   4.552  0.00  0.00    +0.033 C 
BRANCH   2   3
ATOM      3  C   LIG    1       26.914 -16.712   3.548  0.00  0.00    +0.037 C 
BRANCH   3   8
ATOM      4 CL   LIG    1       23.920 -11.524   2.802  0.00  0.00    -0.084 Cl
ATOM      5  C   LIG    1       24.786 -12.993   3.030  0.00  0.00    +0.041 A 
ATOM      6  C   LIG    1       26.068 -13.132   2.518  0.00  0.00    +0.020 A 
ATOM      7  C   LIG    1       26.770 -14.329   2.694  0.00  0.00    +0.005 A 
ATOM      8  C   LIG    1       26.176 -15.402   3.384  0.00  0.00    -0.047 A 
ATOM      9  C   LIG    1       24.886 -15.243   3.899  0.00  0.00    +0.005 A 
ATOM     10  C   LIG    1       24.187 -14.045   3.731  0.00  0.00    +0.020 A 
ENDBRANCH   3   8
ENDBRANCH   2   3
ENDBRANCH   1   2
BRANCH   1  11
ATOM     11  O   LIG    1       27.775 -18.938   5.186  0.00  0.00    -0.380 OA
BRANCH  11  12
ATOM     12  C   LIG    1       28.312 -19.918   6.093  0.00  0.00    +0.161 C 
BRANCH  12  13
ATOM     13  C   LIG    1       27.201 -20.915   6.431  0.00  0.00    +0.043 C 
BRANCH  13  14
ATOM     14  C   LIG    1       25.764 -20.370   6.306  0.00  0.00    +0.086 C 
BRANCH  14  15
ATOM     15  N   LIG    1       24.909 -21.029   5.307  0.00  0.00    -0.302 NA
ATOM     16  C   LIG    1       23.505 -21.198   5.692  0.00  0.00    +0.084 C 
ATOM     17  C   LIG    1       22.668 -19.920   5.660  0.00  0.00    +0.015 C 
ATOM     18  C   LIG    1       22.775 -19.185   4.330  0.00  0.00    +0.002 C 
ATOM     19  C   LIG    1       24.206 -19.102   3.805  0.00  0.00    +0.015 C 
ATOM     20  C   LIG    1       24.993 -20.406   3.975  0.00  0.00    +0.084 C 
ENDBRANCH  14  15
ENDBRANCH  13  14
ENDBRANCH  12  13
ENDBRANCH  11  12
ENDBRANCH   1  11
TORSDOF 8
ENDMDL
MODEL 3
REMARK VINA RESULT:      -6.0      2.663      4.231
REMARK  Name = *****
REMARK                            x       y       z     vdW  Elec       q    Type
REMARK                         _______ _______ _______ _____ _____    ______ ____
ROOT
ATOM      1  C   LIG    1       28.578 -20.109   6.073  0.00  0.00    +0.160 C 
ENDROOT
BRANCH   1   2
ATOM      2  C   LIG    1       27.299 -20.267   6.901  0.00  0.00    +0.033 C 
BRANCH   2   3
ATOM      3  C   LIG    1       26.332 -21.293   6.298  0.00  0.00    +0.037 C 
BRANCH   3   8
ATOM      4 CL   LIG    1       21.469 -18.598   3.946  0.00  0.00    -0.084 Cl
ATOM      5  C   LIG    1       22.846 -19.387   4.611  0.00  0.00    +0.041 A 
ATOM      6  C   LIG    1       22.767 -19.992   5.857  0.00  0.00    +0.020 A 
ATOM      7  C   LIG    1       23.888 -20.625   6.404  0.00  0.00    +0.005 A 
ATOM      8  C   LIG    1       25.105 -20.643   5.698  0.00  0.00    -0.047 A 
ATOM      9  C   LIG    1       25.166 -20.033   4.442  0.00  0.00    +0.005 A 
ATOM     10  C   LIG    1       24.045 -19.408   3.890  0.00  0.00    +0.020 A 
ENDBRANCH   3   8
ENDBRANCH   2   3
ENDBRANCH   1   2
BRANCH   1  11
ATOM     11  O   LIG    1       28.770 -18.740   5.707  0.00  0.00    -0.380 OA
BRANCH  11  12
ATOM     12  C   LIG    1       28.017 -18.377   4.536  0.00  0.00    +0.161 C 
BRANCH  12  13
ATOM     13  C   LIG    1       27.985 -16.848   4.446  0.00  0.00    +0.043 C 
BRANCH  13  14
ATOM     14  C   LIG    1       26.904 -16.265   3.514  0.00  0.00    +0.086 C 
BRANCH  14  15
ATOM     15  N   LIG    1       27.097 -14.868   3.098  0.00  0.00    -0.302 NA
ATOM     16  C   LIG    1       25.926 -14.220   2.499  0.00  0.00    +0.084 C 
ATOM     17  C   LIG    1       24.822 -13.842   3.486  0.00  0.00    +0.015 C 
ATOM     18  C   LIG    1       25.344 -13.025   4.660  0.00  0.00    +0.002 C 
ATOM     19  C   LIG    1       26.646 -13.573   5.239  0.00  0.00    +0.015 C 
ATOM     20  C   LIG    1       27.648 -14.019   4.167  0.00  0.00    +0.084 C 
ENDBRANCH  14  15
ENDBRANCH  13  14
ENDBRANCH  12  13
ENDBRANCH  11  12
ENDBRANCH   1  11
TORSDOF 8
ENDMDL
MODEL 4
REMARK VINA RESULT:      -5.8      2.707      4.360
REMARK  Name = *****
REMARK                            x       y       z     vdW  Elec       q    Type
REMARK                         _______ _______ _______ _____ _____    ______ ____
ROOT
ATOM      1  C   LIG    1       28.919 -18.957   6.242  0.00  0.00    +0.160 C 
ENDROOT
BRANCH   1   2
ATOM      2  C   LIG    1       28.008 -20.092   5.764  0.00  0.00    +0.033 C 
BRANCH   2   3
ATOM      3  C   LIG    1       26.965 -20.489   6.815  0.00  0.00    +0.037 C 
BRANCH   3   8
ATOM      4 CL   LIG    1       21.400 -20.872   4.508  0.00  0.00    -0.084 Cl
ATOM      5  C   LIG    1       22.985 -20.740   5.164  0.00  0.00    +0.041 A 
ATOM      6  C   LIG    1       24.059 -20.449   4.336  0.00  0.00    +0.020 A 
ATOM      7  C   LIG    1       25.350 -20.352   4.865  0.00  0.00    +0.005 A 
ATOM      8  C   LIG    1       25.568 -20.557   6.240  0.00  0.00    -0.047 A 
ATOM      9  C   LIG    1       24.474 -20.844   7.062  0.00  0.00    +0.005 A 
ATOM     10  C   LIG    1       23.182 -20.934   6.536  0.00  0.00    +0.020 A 
ENDBRANCH   3   8
ENDBRANCH   2   3
ENDBRANCH   1   2
BRANCH   1  11
ATOM     11  O   LIG    1       29.169 -18.036   5.177  0.00  0.00    -0.380 OA
BRANCH  11  12
ATOM     12  C   LIG    1       27.972 -17.705   4.449  0.00  0.00    +0.161 C 
BRANCH  12  13
ATOM     13  C   LIG    1       27.892 -16.180   4.333  0.00  0.00    +0.043 C 
BRANCH  13  14
ATOM     14  C   LIG    1       26.813 -15.648   3.369  0.00  0.00    +0.086 C 
BRANCH  14  15
ATOM     15  N   LIG    1       26.839 -14.200   3.108  0.00  0.00    -0.302 NA
ATOM     16  C   LIG    1       25.679 -13.669   2.386  0.00  0.00    +0.084 C 
ATOM     17  C   LIG    1       24.397 -13.564   3.211  0.00  0.00    +0.015 C 
ATOM     18  C   LIG    1       24.604 -12.812   4.519  0.00  0.00    +0.002 C 
ATOM     19  C   LIG    1       25.878 -13.224   5.251  0.00  0.00    +0.015 C 
ATOM     20  C   LIG    1       27.085 -13.401   4.321  0.00  0.00    +0.084 C 
ENDBRANCH  14  15
ENDBRANCH  13  14
ENDBRANCH  12  13
ENDBRANCH  11  12
ENDBRANCH   1  11
TORSDOF 8
ENDMDL
MODEL 5
REMARK VINA RESULT:      -5.5      0.958      1.578
REMARK  Name = *****
REMARK                            x       y       z     vdW  Elec       q    Type
REMARK                         _______ _______ _______ _____ _____    ______ ____
ROOT
ATOM      1  C   LIG    1       22.195 -17.431   4.751  0.00  0.00    +0.160 C 
ENDROOT
BRANCH   1   2
ATOM      2  C   LIG    1       22.355 -18.823   4.131  0.00  0.00    +0.033 C 
BRANCH   2   3
ATOM      3  C   LIG    1       22.512 -19.921   5.189  0.00  0.00    +0.037 C 
BRANCH   3   8
ATOM      4 CL   LIG    1       28.305 -20.920   6.566  0.00  0.00    -0.084 Cl
ATOM      5  C   LIG    1       26.654 -20.653   6.159  0.00  0.00    +0.041 A 
ATOM      6  C   LIG    1       26.323 -20.056   4.951  0.00  0.00    +0.020 A 
ATOM      7  C   LIG    1       24.983 -19.828   4.623  0.00  0.00    +0.005 A 
ATOM      8  C   LIG    1       23.963 -20.196   5.520  0.00  0.00    -0.047 A 
ATOM      9  C   LIG    1       24.313 -20.802   6.730  0.00  0.00    +0.005 A 
ATOM     10  C   LIG    1       25.652 -21.038   7.056  0.00  0.00    +0.020 A 
ENDBRANCH   3   8
ENDBRANCH   2   3
ENDBRANCH   1   2
BRANCH   1  11
ATOM     11  O   LIG    1       23.200 -16.545   4.253  0.00  0.00    -0.380 OA
BRANCH  11  12
ATOM     12  C   LIG    1       23.075 -15.218   4.794  0.00  0.00    +0.161 C 
BRANCH  12  13
ATOM     13  C   LIG    1       23.465 -14.218   3.702  0.00  0.00    +0.043 C 
BRANCH  13  14
ATOM     14  C   LIG    1       24.429 -13.100   4.144  0.00  0.00    +0.086 C 
BRANCH  14  15
ATOM     15  N   LIG    1       25.671 -12.974   3.366  0.00  0.00    -0.302 NA
ATOM     16  C   LIG    1       26.874 -12.662   4.145  0.00  0.00    +0.084 C 
ATOM     17  C   LIG    1       27.429 -13.823   4.968  0.00  0.00    +0.015 C 
ATOM     18  C   LIG    1       27.642 -15.080   4.136  0.00  0.00    +0.002 C 
ATOM     19  C   LIG    1       26.476 -15.380   3.197  0.00  0.00    +0.015 C 
ATOM     20  C   LIG    1       25.925 -14.133   2.494  0.00  0.00    +0.084 C 
ENDBRANCH  14  15
ENDBRANCH  13  14
ENDBRANCH  12  13
ENDBRANCH  11  12
ENDBRANCH   1  11
TORSDOF 8
ENDMDL
MODEL 6
REMARK VINA RESULT:      -4.9      2.710      6.807
REMARK  Name = *****
REMARK                            x       y       z     vdW  Elec       q    Type
REMARK                         _______ _______ _______ _____ _____    ______ ____
ROOT
ATOM      1  C   LIG    1       22.676 -16.533   4.821  0.00  0.00    +0.160 C 
ENDROOT
BRANCH   1   2
ATOM      2  C   LIG    1       23.112 -15.418   3.866  0.00  0.00    +0.033 C 
BRANCH   2   3
ATOM      3  C   LIG    1       23.634 -14.182   4.608  0.00  0.00    +0.037 C 
BRANCH   3   8
ATOM      4 CL   LIG    1       29.472 -13.083   3.529  0.00  0.00    -0.084 Cl
ATOM      5  C   LIG    1       27.812 -13.418   3.839  0.00  0.00    +0.041 A 
ATOM      6  C   LIG    1       27.022 -13.991   2.853  0.00  0.00    +0.020 A 
ATOM      7  C   LIG    1       25.671 -14.255   3.098  0.00  0.00    +0.005 A 
ATOM      8  C   LIG    1       25.103 -13.933   4.345  0.00  0.00    -0.047 A 
ATOM      9  C   LIG    1       25.914 -13.361   5.329  0.00  0.00    +0.005 A 
ATOM     10  C   LIG    1       27.267 -13.105   5.088  0.00  0.00    +0.020 A 
ENDBRANCH   3   8
ENDBRANCH   2   3
ENDBRANCH   1   2
BRANCH   1  11
ATOM     11  O   LIG    1       23.166 -17.798   4.367  0.00  0.00    -0.380 OA
BRANCH  11  12
ATOM     12  C   LIG    1       24.420 -17.680   3.671  0.00  0.00    +0.161 C 
BRANCH  12  13
ATOM     13  C   LIG    1       24.896 -19.088   3.304  0.00  0.00    +0.043 C 
BRANCH  13  14
ATOM     14  C   LIG    1       25.710 -19.815   4.392  0.00  0.00    +0.086 C 
BRANCH  14  15
ATOM     15  N   LIG    1       25.278 -21.183   4.716  0.00  0.00    -0.302 NA
ATOM     16  C   LIG    1       25.406 -21.568   6.125  0.00  0.00    +0.084 C 
ATOM     17  C   LIG    1       24.368 -20.949   7.059  0.00  0.00    +0.015 C 
ATOM     18  C   LIG    1       22.941 -21.164   6.573  0.00  0.00    +0.002 C 
ATOM     19  C   LIG    1       22.775 -20.914   5.076  0.00  0.00    +0.015 C 
ATOM     20  C   LIG    1       23.921 -21.488   4.233  0.00  0.00    +0.084 C 
ENDBRANCH  14  15
ENDBRANCH  13  14
ENDBRANCH  12  13
ENDBRANCH  11  12
ENDBRANCH   1  11
TORSDOF 8
ENDMDL
MODEL 7
REMARK VINA RESULT:      -4.2      2.200      5.979
REMARK  Name = *****
REMARK                            x       y       z     vdW  Elec       q    Type
REMARK                         _______ _______ _______ _____ _____    ______ ____
ROOT
ATOM      1  C   LIG    1       23.699 -14.500   4.490  0.00  0.00    +0.160 C 
ENDROOT
BRANCH   1   2
ATOM      2  C   LIG    1       23.836 -13.359   3.477  0.00  0.00    +0.033 C 
BRANCH   2   3
ATOM      3  C   LIG    1       25.151 -13.428   2.692  0.00  0.00    +0.037 C 
BRANCH   3   8
ATOM      4 CL   LIG    1       28.798 -17.702   4.901  0.00  0.00    -0.084 Cl
ATOM      5  C   LIG    1       27.774 -16.478   4.256  0.00  0.00    +0.041 A 
ATOM      6  C   LIG    1       28.033 -15.142   4.524  0.00  0.00    +0.020 A 
ATOM      7  C   LIG    1       27.196 -14.146   4.009  0.00  0.00    +0.005 A 
ATOM      8  C   LIG    1       26.082 -14.496   3.223  0.00  0.00    -0.047 A 
ATOM      9  C   LIG    1       25.839 -15.846   2.958  0.00  0.00    +0.005 A 
ATOM     10  C   LIG    1       26.679 -16.842   3.465  0.00  0.00    +0.020 A 
ENDBRANCH   3   8
ENDBRANCH   2   3
ENDBRANCH   1   2
BRANCH   1  11
ATOM     11  O   LIG    1       22.744 -15.461   4.033  0.00  0.00    -0.380 OA
BRANCH  11  12
ATOM     12  C   LIG    1       22.366 -16.388   5.066  0.00  0.00    +0.161 C 
BRANCH  12  13
ATOM     13  C   LIG    1       22.175 -17.765   4.423  0.00  0.00    +0.043 C 
BRANCH  13  14
ATOM     14  C   LIG    1       23.474 -18.511   4.061  0.00  0.00    +0.086 C 
BRANCH  14  15
ATOM     15  N   LIG    1       23.419 -19.978   4.136  0.00  0.00    -0.302 NA
ATOM     16  C   LIG    1       24.717 -20.660   4.137  0.00  0.00    +0.084 C 
ATOM     17  C   LIG    1       25.499 -20.557   5.446  0.00  0.00    +0.015 C 
ATOM     18  C   LIG    1       24.673 -20.978   6.654  0.00  0.00    +0.002 C 
ATOM     19  C   LIG    1       23.256 -20.410   6.637  0.00  0.00    +0.015 C 
ATOM     20  C   LIG    1       22.594 -20.467   5.254  0.00  0.00    +0.084 C 
ENDBRANCH  14  15
ENDBRANCH  13  14
ENDBRANCH  12  13
ENDBRANCH  11  12
ENDBRANCH   1  11
TORSDOF 8
ENDMDL
MODEL 8
REMARK VINA RESULT:      -4.2      1.246      2.398
REMARK  Name = *****
REMARK                            x       y       z     vdW  Elec       q    Type
REMARK                         _______ _______ _______ _____ _____    ______ ____
ROOT
ATOM      1  C   LIG    1       22.025 -17.263   4.664  0.00  0.00    +0.160 C 
ENDROOT
BRANCH   1   2
ATOM      2  C   LIG    1       22.229 -18.610   3.963  0.00  0.00    +0.033 C 
BRANCH   2   3
ATOM      3  C   LIG    1       22.260 -19.784   4.947  0.00  0.00    +0.037 C 
BRANCH   3   8
ATOM      4 CL   LIG    1       27.886 -21.090   6.706  0.00  0.00    -0.084 Cl
ATOM      5  C   LIG    1       26.282 -20.736   6.191  0.00  0.00    +0.041 A 
ATOM      6  C   LIG    1       26.060 -20.185   4.938  0.00  0.00    +0.020 A 
ATOM      7  C   LIG    1       24.759 -19.887   4.521  0.00  0.00    +0.005 A 
ATOM      8  C   LIG    1       23.668 -20.136   5.375  0.00  0.00    -0.047 A 
ATOM      9  C   LIG    1       23.909 -20.696   6.633  0.00  0.00    +0.005 A 
ATOM     10  C   LIG    1       25.208 -21.003   7.047  0.00  0.00    +0.020 A 
ENDBRANCH   3   8
ENDBRANCH   2   3
ENDBRANCH   1   2
BRANCH   1  11
ATOM     11  O   LIG    1       22.890 -16.272   4.102  0.00  0.00    -0.380 OA
BRANCH  11  12
ATOM     12  C   LIG    1       24.140 -16.828   3.657  0.00  0.00    +0.161 C 
BRANCH  12  13
ATOM     13  C   LIG    1       25.272 -15.955   4.207  0.00  0.00    +0.043 C 
BRANCH  13  14
ATOM     14  C   LIG    1       26.094 -15.195   3.147  0.00  0.00    +0.086 C 
BRANCH  14  15
ATOM     15  N   LIG    1       26.375 -13.782   3.439  0.00  0.00    -0.302 NA
ATOM     16  C   LIG    1       26.163 -12.852   2.325  0.00  0.00    +0.084 C 
ATOM     17  C   LIG    1       24.699 -12.561   1.998  0.00  0.00    +0.015 C 
ATOM     18  C   LIG    1       23.903 -12.123   3.220  0.00  0.00    +0.002 C 
ATOM     19  C   LIG    1       24.190 -12.970   4.456  0.00  0.00    +0.015 C 
ATOM     20  C   LIG    1       25.678 -13.292   4.641  0.00  0.00    +0.084 C 
ENDBRANCH  14  15
ENDBRANCH  13  14
ENDBRANCH  12  13
ENDBRANCH  11  12
ENDBRANCH   1  11
TORSDOF 8
ENDMDL
MODEL 9
REMARK VINA RESULT:      -4.0      1.081      1.597
REMARK  Name = *****
REMARK                            x       y       z     vdW  Elec       q    Type
REMARK                         _______ _______ _______ _____ _____    ______ ____
ROOT
ATOM      1  C   LIG    1       22.901 -18.907   5.000  0.00  0.00    +0.160 C 
ENDROOT
BRANCH   1   2
ATOM      2  C   LIG    1       22.609 -20.402   4.835  0.00  0.00    +0.033 C 
BRANCH   2   3
ATOM      3  C   LIG    1       23.326 -21.258   5.886  0.00  0.00    +0.037 C 
BRANCH   3   8
ATOM      4 CL   LIG    1       29.234 -20.053   6.191  0.00  0.00    -0.084 Cl
ATOM      5  C   LIG    1       27.546 -20.382   6.122  0.00  0.00    +0.041 A 
ATOM      6  C   LIG    1       26.961 -21.217   7.062  0.00  0.00    +0.020 A 
ATOM      7  C   LIG    1       25.592 -21.495   7.001  0.00  0.00    +0.005 A 
ATOM      8  C   LIG    1       24.801 -20.935   5.981  0.00  0.00    -0.047 A 
ATOM      9  C   LIG    1       25.405 -20.091   5.045  0.00  0.00    +0.005 A 
ATOM     10  C   LIG    1       26.772 -19.806   5.109  0.00  0.00    +0.020 A 
ENDBRANCH   3   8
ENDBRANCH   2   3
ENDBRANCH   1   2
BRANCH   1  11
ATOM     11  O   LIG    1       21.712 -18.141   4.792  0.00  0.00    -0.380 OA
BRANCH  11  12
ATOM     12  C   LIG    1       21.929 -17.022   3.915  0.00  0.00    +0.161 C 
BRANCH  12  13
ATOM     13  C   LIG    1       22.668 -15.935   4.702  0.00  0.00    +0.043 C 
BRANCH  13  14
ATOM     14  C   LIG    1       23.234 -14.778   3.856  0.00  0.00    +0.086 C 
BRANCH  14  15
ATOM     15  N   LIG    1       24.410 -14.090   4.410  0.00  0.00    -0.302 NA
ATOM     16  C   LIG    1       25.700 -14.483   3.835  0.00  0.00    +0.084 C 
ATOM     17  C   LIG    1       25.969 -13.950   2.428  0.00  0.00    +0.015 C 
ATOM     18  C   LIG    1       25.775 -12.443   2.328  0.00  0.00    +0.002 C 
ATOM     19  C   LIG    1       24.514 -11.953   3.035  0.00  0.00    +0.015 C 
ATOM     20  C   LIG    1       24.280 -12.623   4.395  0.00  0.00    +0.084 C 
ENDBRANCH  14  15
ENDBRANCH  13  14
ENDBRANCH  12  13
ENDBRANCH  11  12
ENDBRANCH   1  11
TORSDOF 8
ENDMDL
