MODEL 1
REMARK VINA RESULT:      -3.7      0.000      0.000
REMARK  Name = *****
REMARK                            x       y       z     vdW  Elec       q    Type
REMARK                         _______ _______ _______ _____ _____    ______ ____
ROOT
ATOM      1  C   LIG    1       25.674 -20.595   4.512  0.00  0.00    +0.119 C 
ATOM      2  N   LIG    1       26.911 -19.784   4.541  0.00  0.00    -0.330 N 
ATOM      3  H   LIG    1       27.669 -20.026   5.175  0.00  0.00    +0.147 HD
ATOM      4  C   LIG    1       26.854 -18.434   4.180  0.00  0.00    +0.133 C 
ATOM      5  C   LIG    1       25.791 -17.867   3.552  0.00  0.00    +0.149 C 
ATOM      6  N   LIG    1       25.752 -16.548   3.180  0.00  0.00    -0.199 NA
ATOM      7  C   LIG    1       26.776 -15.802   3.442  0.00  0.00    +0.195 C 
ATOM      8  N   LIG    1       27.894 -16.262   4.062  0.00  0.00    -0.294 N 
ATOM      9  H   LIG    1       28.637 -15.634   4.311  0.00  0.00    +0.172 HD
ATOM     10  N   LIG    1       24.684 -18.678   3.271  0.00  0.00    -0.326 N 
ATOM     11  H   LIG    1       24.148 -18.279   2.506  0.00  0.00    +0.148 HD
ATOM     12  C   LIG    1       28.001 -17.543   4.509  0.00  0.00    +0.276 C 
ATOM     13  O   LIG    1       28.965 -17.941   5.159  0.00  0.00    -0.266 OA
ATOM     14  C   LIG    1       24.826 -20.139   3.284  0.00  0.00    +0.128 C 
ENDROOT
BRANCH   7  15
ATOM     15  N   LIG    1       26.774 -14.492   3.092  0.00  0.00    -0.329 N 
ATOM     16  H   LIG    1       27.648 -14.114   2.751  0.00  0.00    +0.145 HD
ATOM     17  H   LIG    1       25.987 -14.267   2.491  0.00  0.00    +0.145 HD
ENDBRANCH   7  15
BRANCH   1  18
ATOM     18  C   LIG    1       24.916 -20.440   5.856  0.00  0.00    +0.164 C 
BRANCH  18  20
ATOM     19  C   LIG    1       22.936 -21.571   7.058  0.00  0.00    +0.040 C 
ATOM     20  C   LIG    1       23.426 -20.837   5.816  0.00  0.00    +0.142 C 
BRANCH  20  21
ATOM     21  O   LIG    1       22.643 -19.639   5.698  0.00  0.00    -0.389 OA
ATOM     22  H   LIG    1       22.050 -19.644   6.476  0.00  0.00    +0.210 HD
ENDBRANCH  20  21
ENDBRANCH  18  20
BRANCH  18  23
ATOM     23  O   LIG    1       25.554 -21.253   6.870  0.00  0.00    -0.387 OA
ATOM     24  H   LIG    1       24.834 -21.527   7.469  0.00  0.00    +0.210 HD
ENDBRANCH  18  23
ENDBRANCH   1  18
TORSDOF 5
ENDMDL
MODEL 2
REMARK VINA RESULT:      -3.5      2.293      2.858
REMARK  Name = *****
REMARK                            x       y       z     vdW  Elec       q    Type
REMARK                         _______ _______ _______ _____ _____    ______ ____
ROOT
ATOM      1  C   LIG    1       24.364 -21.309   4.729  0.00  0.00    +0.119 C 
ATOM      2  N   LIG    1       25.683 -21.521   5.364  0.00  0.00    -0.330 N 
ATOM      3  H   LIG    1       25.781 -22.176   6.136  0.00  0.00    +0.147 HD
ATOM      4  C   LIG    1       26.626 -20.490   5.343  0.00  0.00    +0.133 C 
ATOM      5  C   LIG    1       26.522 -19.389   4.553  0.00  0.00    +0.149 C 
ATOM      6  N   LIG    1       27.464 -18.394   4.522  0.00  0.00    -0.199 NA
ATOM      7  C   LIG    1       28.504 -18.503   5.283  0.00  0.00    +0.195 C 
ATOM      8  N   LIG    1       28.715 -19.559   6.109  0.00  0.00    -0.294 N 
ATOM      9  H   LIG    1       29.500 -19.572   6.736  0.00  0.00    +0.172 HD
ATOM     10  N   LIG    1       25.394 -19.275   3.731  0.00  0.00    -0.326 N 
ATOM     11  H   LIG    1       25.595 -18.655   2.952  0.00  0.00    +0.148 HD
ATOM     12  C   LIG    1       27.812 -20.569   6.242  0.00  0.00    +0.276 C 
ATOM     13  O   LIG    1       27.946 -21.477   7.060  0.00  0.00    -0.266 OA
ATOM     14  C   LIG    1       24.580 -20.461   3.436  0.00  0.00    +0.128 C 
ENDROOT
BRANCH   7  15
ATOM     15  N   LIG    1       29.457 -17.537   5.281  0.00  0.00    -0.329 N 
ATOM     16  H   LIG    1       29.222 -16.671   4.815  0.00  0.00    +0.145 HD
ATOM     17  H   LIG    1       29.844 -17.392   6.208  0.00  0.00    +0.145 HD
ENDBRANCH   7  15
BRANCH   1  18
ATOM     18  C   LIG    1       23.400 -20.633   5.738  0.00  0.00    +0.164 C 
BRANCH  18  20
ATOM     19  C   LIG    1       22.196 -18.891   4.266  0.00  0.00    +0.040 C 
ATOM     20  C   LIG    1       22.068 -20.136   5.137  0.00  0.00    +0.142 C 
BRANCH  20  21
ATOM     21  O   LIG    1       21.531 -21.178   4.308  0.00  0.00    -0.389 OA
ATOM     22  H   LIG    1       20.781 -20.765   3.834  0.00  0.00    +0.210 HD
ENDBRANCH  20  21
ENDBRANCH  18  20
BRANCH  18  23
ATOM     23  O   LIG    1       23.077 -21.562   6.799  0.00  0.00    -0.387 OA
ATOM     24  H   LIG    1       23.333 -22.439   6.459  0.00  0.00    +0.210 HD
ENDBRANCH  18  23
ENDBRANCH   1  18
TORSDOF 5
ENDMDL
MODEL 3
REMARK VINA RESULT:      -3.0      1.997      2.726
REMARK  Name = *****
REMARK                            x       y       z     vdW  Elec       q    Type
REMARK                         _______ _______ _______ _____ _____    ______ ____
ROOT
ATOM      1  C   LIG    1       24.959 -20.228   3.649  0.00  0.00    +0.119 C 
ATOM      2  N   LIG    1       25.694 -19.011   3.243  0.00  0.00    -0.330 N 
ATOM      3  H   LIG    1       26.706 -19.032   3.139  0.00  0.00    +0.147 HD
ATOM      4  C   LIG    1       25.161 -17.755   3.551  0.00  0.00    +0.133 C 
ATOM      5  C   LIG    1       23.883 -17.561   3.969  0.00  0.00    +0.149 C 
ATOM      6  N   LIG    1       23.361 -16.324   4.246  0.00  0.00    -0.199 NA
ATOM      7  C   LIG    1       24.122 -15.288   4.106  0.00  0.00    +0.195 C 
ATOM      8  N   LIG    1       25.412 -15.361   3.691  0.00  0.00    -0.294 N 
ATOM      9  H   LIG    1       25.990 -14.539   3.664  0.00  0.00    +0.172 HD
ATOM     10  N   LIG    1       23.063 -18.687   4.119  0.00  0.00    -0.326 N 
ATOM     11  H   LIG    1       22.086 -18.414   4.061  0.00  0.00    +0.148 HD
ATOM     12  C   LIG    1       26.028 -16.549   3.441  0.00  0.00    +0.276 C 
ATOM     13  O   LIG    1       27.223 -16.632   3.163  0.00  0.00    -0.266 OA
ATOM     14  C   LIG    1       23.433 -19.953   3.475  0.00  0.00    +0.128 C 
ENDROOT
BRANCH   7  15
ATOM     15  N   LIG    1       23.642 -14.047   4.372  0.00  0.00    -0.329 N 
ATOM     16  H   LIG    1       24.280 -13.275   4.232  0.00  0.00    +0.145 HD
ATOM     17  H   LIG    1       22.738 -13.894   3.934  0.00  0.00    +0.145 HD
ENDBRANCH   7  15
BRANCH   1  18
ATOM     18  C   LIG    1       25.339 -20.609   5.103  0.00  0.00    +0.164 C 
BRANCH  18  20
ATOM     19  C   LIG    1       27.012 -20.364   7.050  0.00  0.00    +0.040 C 
ATOM     20  C   LIG    1       26.602 -19.913   5.653  0.00  0.00    +0.142 C 
BRANCH  20  21
ATOM     21  O   LIG    1       27.699 -20.209   4.774  0.00  0.00    -0.389 OA
ATOM     22  H   LIG    1       28.503 -20.022   5.299  0.00  0.00    +0.210 HD
ENDBRANCH  20  21
ENDBRANCH  18  20
BRANCH  18  23
ATOM     23  O   LIG    1       24.244 -20.284   5.993  0.00  0.00    -0.387 OA
ATOM     24  H   LIG    1       23.801 -21.133   6.176  0.00  0.00    +0.210 HD
ENDBRANCH  18  23
ENDBRANCH   1  18
TORSDOF 5
ENDMDL
MODEL 4
REMARK VINA RESULT:      -2.9      2.073      2.481
REMARK  Name = *****
REMARK                            x       y       z     vdW  Elec       q    Type
REMARK                         _______ _______ _______ _____ _____    ______ ____
ROOT
ATOM      1  C   LIG    1       24.984 -19.365   3.658  0.00  0.00    +0.119 C 
ATOM      2  N   LIG    1       25.688 -18.148   3.200  0.00  0.00    -0.330 N 
ATOM      3  H   LIG    1       26.692 -18.168   3.032  0.00  0.00    +0.147 HD
ATOM      4  C   LIG    1       25.173 -16.892   3.533  0.00  0.00    +0.133 C 
ATOM      5  C   LIG    1       23.923 -16.698   4.030  0.00  0.00    +0.149 C 
ATOM      6  N   LIG    1       23.416 -15.461   4.332  0.00  0.00    -0.199 NA
ATOM      7  C   LIG    1       24.164 -14.424   4.139  0.00  0.00    +0.195 C 
ATOM      8  N   LIG    1       25.426 -14.496   3.643  0.00  0.00    -0.294 N 
ATOM      9  H   LIG    1       25.999 -13.674   3.575  0.00  0.00    +0.172 HD
ATOM     10  N   LIG    1       23.117 -17.825   4.238  0.00  0.00    -0.326 N 
ATOM     11  H   LIG    1       22.138 -17.554   4.240  0.00  0.00    +0.148 HD
ATOM     12  C   LIG    1       26.028 -15.684   3.362  0.00  0.00    +0.276 C 
ATOM     13  O   LIG    1       27.203 -15.767   3.010  0.00  0.00    -0.266 OA
ATOM     14  C   LIG    1       23.449 -19.094   3.579  0.00  0.00    +0.128 C 
ENDROOT
BRANCH   7  15
ATOM     15  N   LIG    1       23.698 -13.183   4.427  0.00  0.00    -0.329 N 
ATOM     16  H   LIG    1       22.924 -12.849   3.870  0.00  0.00    +0.145 HD
ATOM     17  H   LIG    1       23.545 -13.063   5.424  0.00  0.00    +0.145 HD
ENDBRANCH   7  15
BRANCH   1  18
ATOM     18  C   LIG    1       25.456 -19.736   5.088  0.00  0.00    +0.164 C 
BRANCH  18  20
ATOM     19  C   LIG    1       25.451 -21.567   6.903  0.00  0.00    +0.040 C 
ATOM     20  C   LIG    1       24.714 -20.925   5.733  0.00  0.00    +0.142 C 
BRANCH  20  21
ATOM     21  O   LIG    1       23.455 -20.453   6.235  0.00  0.00    -0.389 OA
ATOM     22  H   LIG    1       22.804 -21.134   5.973  0.00  0.00    +0.210 HD
ENDBRANCH  20  21
ENDBRANCH  18  20
BRANCH  18  23
ATOM     23  O   LIG    1       26.865 -20.065   5.064  0.00  0.00    -0.387 OA
ATOM     24  H   LIG    1       27.011 -20.509   4.208  0.00  0.00    +0.210 HD
ENDBRANCH  18  23
ENDBRANCH   1  18
TORSDOF 5
ENDMDL
MODEL 5
REMARK VINA RESULT:      -2.8      2.183      2.874
REMARK  Name = *****
REMARK                            x       y       z     vdW  Elec       q    Type
REMARK                         _______ _______ _______ _____ _____    ______ ____
ROOT
ATOM      1  C   LIG    1       23.504 -20.146   3.962  0.00  0.00    +0.119 C 
ATOM      2  N   LIG    1       24.446 -19.166   3.381  0.00  0.00    -0.330 N 
ATOM      3  H   LIG    1       25.390 -19.448   3.128  0.00  0.00    +0.147 HD
ATOM      4  C   LIG    1       24.300 -17.810   3.690  0.00  0.00    +0.133 C 
ATOM      5  C   LIG    1       23.195 -17.286   4.282  0.00  0.00    +0.149 C 
ATOM      6  N   LIG    1       23.050 -15.952   4.560  0.00  0.00    -0.199 NA
ATOM      7  C   LIG    1       24.014 -15.148   4.248  0.00  0.00    +0.195 C 
ATOM      8  N   LIG    1       25.162 -15.558   3.650  0.00  0.00    -0.294 N 
ATOM      9  H   LIG    1       25.915 -14.913   3.488  0.00  0.00    +0.172 HD
ATOM     10  N   LIG    1       22.154 -18.161   4.619  0.00  0.00    -0.326 N 
ATOM     11  H   LIG    1       21.281 -17.648   4.691  0.00  0.00    +0.148 HD
ATOM     12  C   LIG    1       25.413 -16.868   3.381  0.00  0.00    +0.276 C 
ATOM     13  O   LIG    1       26.489 -17.260   2.933  0.00  0.00    -0.266 OA
ATOM     14  C   LIG    1       22.088 -19.492   4.002  0.00  0.00    +0.128 C 
ENDROOT
BRANCH   7  15
ATOM     15  N   LIG    1       23.908 -13.821   4.509  0.00  0.00    -0.329 N 
ATOM     16  H   LIG    1       23.296 -13.557   5.268  0.00  0.00    +0.145 HD
ATOM     17  H   LIG    1       24.821 -13.378   4.567  0.00  0.00    +0.145 HD
ENDBRANCH   7  15
BRANCH   1  18
ATOM     18  C   LIG    1       24.004 -20.584   5.364  0.00  0.00    +0.164 C 
BRANCH  18  20
ATOM     19  C   LIG    1       25.943 -20.640   7.062  0.00  0.00    +0.040 C 
ATOM     20  C   LIG    1       25.432 -20.122   5.723  0.00  0.00    +0.142 C 
BRANCH  20  21
ATOM     21  O   LIG    1       26.329 -20.607   4.712  0.00  0.00    -0.389 OA
ATOM     22  H   LIG    1       26.654 -19.806   4.254  0.00  0.00    +0.210 HD
ENDBRANCH  20  21
ENDBRANCH  18  20
BRANCH  18  23
ATOM     23  O   LIG    1       23.113 -20.066   6.381  0.00  0.00    -0.387 OA
ATOM     24  H   LIG    1       22.278 -20.555   6.264  0.00  0.00    +0.210 HD
ENDBRANCH  18  23
ENDBRANCH   1  18
TORSDOF 5
ENDMDL
MODEL 6
REMARK VINA RESULT:      -2.5      2.714      5.587
REMARK  Name = *****
REMARK                            x       y       z     vdW  Elec       q    Type
REMARK                         _______ _______ _______ _____ _____    ______ ____
ROOT
ATOM      1  C   LIG    1       25.736 -15.072   3.106  0.00  0.00    +0.119 C 
ATOM      2  N   LIG    1       25.413 -16.511   2.996  0.00  0.00    -0.330 N 
ATOM      3  H   LIG    1       24.457 -16.811   2.821  0.00  0.00    +0.147 HD
ATOM      4  C   LIG    1       26.208 -17.444   3.668  0.00  0.00    +0.133 C 
ATOM      5  C   LIG    1       27.420 -17.150   4.210  0.00  0.00    +0.149 C 
ATOM      6  N   LIG    1       28.204 -18.077   4.846  0.00  0.00    -0.199 NA
ATOM      7  C   LIG    1       27.771 -19.292   4.941  0.00  0.00    +0.195 C 
ATOM      8  N   LIG    1       26.579 -19.700   4.435  0.00  0.00    -0.294 N 
ATOM      9  H   LIG    1       26.248 -20.636   4.592  0.00  0.00    +0.172 HD
ATOM     10  N   LIG    1       27.884 -15.833   4.105  0.00  0.00    -0.326 N 
ATOM     11  H   LIG    1       28.896 -15.815   4.189  0.00  0.00    +0.148 HD
ATOM     12  C   LIG    1       25.715 -18.840   3.831  0.00  0.00    +0.276 C 
ATOM     13  O   LIG    1       24.592 -19.178   3.460  0.00  0.00    -0.266 OA
ATOM     14  C   LIG    1       27.290 -14.924   3.118  0.00  0.00    +0.128 C 
ENDROOT
BRANCH   7  15
ATOM     15  N   LIG    1       28.518 -20.237   5.565  0.00  0.00    -0.329 N 
ATOM     16  H   LIG    1       28.638 -21.114   5.077  0.00  0.00    +0.145 HD
ATOM     17  H   LIG    1       29.395 -19.854   5.908  0.00  0.00    +0.145 HD
ENDBRANCH   7  15
BRANCH   1  18
ATOM     18  C   LIG    1       25.066 -14.480   4.373  0.00  0.00    +0.164 C 
BRANCH  18  20
ATOM     19  C   LIG    1       24.124 -12.151   4.953  0.00  0.00    +0.040 C 
ATOM     20  C   LIG    1       25.357 -12.987   4.630  0.00  0.00    +0.142 C 
BRANCH  20  21
ATOM     21  O   LIG    1       26.242 -12.887   5.757  0.00  0.00    -0.389 OA
ATOM     22  H   LIG    1       26.923 -12.238   5.489  0.00  0.00    +0.210 HD
ENDBRANCH  20  21
ENDBRANCH  18  20
BRANCH  18  23
ATOM     23  O   LIG    1       23.630 -14.632   4.280  0.00  0.00    -0.387 OA
ATOM     24  H   LIG    1       23.390 -14.277   3.404  0.00  0.00    +0.210 HD
ENDBRANCH  18  23
ENDBRANCH   1  18
TORSDOF 5
ENDMDL
MODEL 7
REMARK VINA RESULT:      -1.9      3.422      5.964
REMARK  Name = *****
REMARK                            x       y       z     vdW  Elec       q    Type
REMARK                         _______ _______ _______ _____ _____    ______ ____
ROOT
ATOM      1  C   LIG    1       25.918 -13.835   2.826  0.00  0.00    +0.119 C 
ATOM      2  N   LIG    1       25.689 -15.286   2.657  0.00  0.00    -0.330 N 
ATOM      3  H   LIG    1       24.766 -15.636   2.409  0.00  0.00    +0.147 HD
ATOM      4  C   LIG    1       26.492 -16.192   3.356  0.00  0.00    +0.133 C 
ATOM      5  C   LIG    1       27.646 -15.846   3.986  0.00  0.00    +0.149 C 
ATOM      6  N   LIG    1       28.440 -16.745   4.649  0.00  0.00    -0.199 NA
ATOM      7  C   LIG    1       28.075 -17.985   4.682  0.00  0.00    +0.195 C 
ATOM      8  N   LIG    1       26.945 -18.446   4.086  0.00  0.00    -0.294 N 
ATOM      9  H   LIG    1       26.660 -19.403   4.196  0.00  0.00    +0.172 HD
ATOM     10  N   LIG    1       28.037 -14.502   3.947  0.00  0.00    -0.326 N 
ATOM     11  H   LIG    1       29.039 -14.428   4.101  0.00  0.00    +0.148 HD
ATOM     12  C   LIG    1       26.073 -17.619   3.448  0.00  0.00    +0.276 C 
ATOM     13  O   LIG    1       24.999 -18.009   2.993  0.00  0.00    -0.266 OA
ATOM     14  C   LIG    1       27.456 -13.598   2.946  0.00  0.00    +0.128 C 
ENDROOT
BRANCH   7  15
ATOM     15  N   LIG    1       28.834 -18.904   5.330  0.00  0.00    -0.329 N 
ATOM     16  H   LIG    1       29.585 -19.325   4.801  0.00  0.00    +0.145 HD
ATOM     17  H   LIG    1       29.136 -18.565   6.239  0.00  0.00    +0.145 HD
ENDBRANCH   7  15
BRANCH   1  18
ATOM     18  C   LIG    1       25.132 -13.322   4.060  0.00  0.00    +0.164 C 
BRANCH  18  20
ATOM     19  C   LIG    1       23.520 -11.447   4.792  0.00  0.00    +0.040 C 
ATOM     20  C   LIG    1       23.876 -12.487   3.735  0.00  0.00    +0.142 C 
BRANCH  20  21
ATOM     21  O   LIG    1       24.110 -11.779   2.508  0.00  0.00    -0.389 OA
ATOM     22  H   LIG    1       23.606 -12.271   1.830  0.00  0.00    +0.210 HD
ENDBRANCH  20  21
ENDBRANCH  18  20
BRANCH  18  23
ATOM     23  O   LIG    1       24.708 -14.446   4.868  0.00  0.00    -0.387 OA
ATOM     24  H   LIG    1       25.403 -15.121   4.754  0.00  0.00    +0.210 HD
ENDBRANCH  18  23
ENDBRANCH   1  18
TORSDOF 5
ENDMDL
MODEL 8
REMARK VINA RESULT:      -1.5      2.992      6.220
REMARK  Name = *****
REMARK                            x       y       z     vdW  Elec       q    Type
REMARK                         _______ _______ _______ _____ _____    ______ ____
ROOT
ATOM      1  C   LIG    1       24.980 -13.649   3.713  0.00  0.00    +0.119 C 
ATOM      2  N   LIG    1       23.985 -14.741   3.793  0.00  0.00    -0.330 N 
ATOM      3  H   LIG    1       23.108 -14.602   4.289  0.00  0.00    +0.147 HD
ATOM      4  C   LIG    1       24.419 -16.068   3.726  0.00  0.00    +0.133 C 
ATOM      5  C   LIG    1       25.667 -16.434   3.330  0.00  0.00    +0.149 C 
ATOM      6  N   LIG    1       26.076 -17.740   3.245  0.00  0.00    -0.199 NA
ATOM      7  C   LIG    1       25.237 -18.672   3.558  0.00  0.00    +0.195 C 
ATOM      8  N   LIG    1       23.964 -18.425   3.962  0.00  0.00    -0.294 N 
ATOM      9  H   LIG    1       23.367 -19.174   4.265  0.00  0.00    +0.172 HD
ATOM     10  N   LIG    1       26.572 -15.421   2.993  0.00  0.00    -0.326 N 
ATOM     11  H   LIG    1       27.293 -15.791   2.380  0.00  0.00    +0.148 HD
ATOM     12  C   LIG    1       23.487 -17.161   4.123  0.00  0.00    +0.276 C 
ATOM     13  O   LIG    1       22.371 -16.925   4.584  0.00  0.00    -0.266 OA
ATOM     14  C   LIG    1       26.081 -14.071   2.690  0.00  0.00    +0.128 C 
ENDROOT
BRANCH   7  15
ATOM     15  N   LIG    1       25.606 -19.976   3.488  0.00  0.00    -0.329 N 
ATOM     16  H   LIG    1       24.881 -20.639   3.249  0.00  0.00    +0.145 HD
ATOM     17  H   LIG    1       26.448 -20.096   2.932  0.00  0.00    +0.145 HD
ENDBRANCH   7  15
BRANCH   1  18
ATOM     18  C   LIG    1       25.552 -13.359   5.125  0.00  0.00    +0.164 C 
BRANCH  18  20
ATOM     19  C   LIG    1       27.939 -12.502   4.663  0.00  0.00    +0.040 C 
ATOM     20  C   LIG    1       27.069 -13.593   5.277  0.00  0.00    +0.142 C 
BRANCH  20  21
ATOM     21  O   LIG    1       27.380 -13.641   6.678  0.00  0.00    -0.389 OA
ATOM     22  H   LIG    1       27.226 -12.732   7.005  0.00  0.00    +0.210 HD
ENDBRANCH  20  21
ENDBRANCH  18  20
BRANCH  18  23
ATOM     23  O   LIG    1       25.288 -11.981   5.482  0.00  0.00    -0.387 OA
ATOM     24  H   LIG    1       24.818 -12.022   6.336  0.00  0.00    +0.210 HD
ENDBRANCH  18  23
ENDBRANCH   1  18
TORSDOF 5
ENDMDL
MODEL 9
REMARK VINA RESULT:      -0.7      2.341      5.274
REMARK  Name = *****
REMARK                            x       y       z     vdW  Elec       q    Type
REMARK                         _______ _______ _______ _____ _____    ______ ____
ROOT
ATOM      1  C   LIG    1       25.717 -16.967   3.067  0.00  0.00    +0.119 C 
ATOM      2  N   LIG    1       25.258 -18.357   3.274  0.00  0.00    -0.330 N 
ATOM      3  H   LIG    1       24.291 -18.612   3.083  0.00  0.00    +0.147 HD
ATOM      4  C   LIG    1       25.900 -19.156   4.224  0.00  0.00    +0.133 C 
ATOM      5  C   LIG    1       27.091 -18.837   4.795  0.00  0.00    +0.149 C 
ATOM      6  N   LIG    1       27.727 -19.639   5.709  0.00  0.00    -0.199 NA
ATOM      7  C   LIG    1       27.165 -20.753   6.049  0.00  0.00    +0.195 C 
ATOM      8  N   LIG    1       25.979 -21.175   5.541  0.00  0.00    -0.294 N 
ATOM      9  H   LIG    1       25.542 -22.013   5.884  0.00  0.00    +0.172 HD
ATOM     10  N   LIG    1       27.695 -17.629   4.424  0.00  0.00    -0.326 N 
ATOM     11  H   LIG    1       28.695 -17.673   4.601  0.00  0.00    +0.148 HD
ATOM     12  C   LIG    1       25.255 -20.424   4.667  0.00  0.00    +0.276 C 
ATOM     13  O   LIG    1       24.135 -20.751   4.279  0.00  0.00    -0.266 OA
ATOM     14  C   LIG    1       27.273 -16.947   3.195  0.00  0.00    +0.128 C 
ENDROOT
BRANCH   7  15
ATOM     15  N   LIG    1       27.762 -21.571   6.951  0.00  0.00    -0.329 N 
ATOM     16  H   LIG    1       27.927 -21.186   7.872  0.00  0.00    +0.145 HD
ATOM     17  H   LIG    1       27.317 -22.483   6.981  0.00  0.00    +0.145 HD
ENDBRANCH   7  15
BRANCH   1  18
ATOM     18  C   LIG    1       25.019 -16.028   4.084  0.00  0.00    +0.164 C 
BRANCH  18  20
ATOM     19  C   LIG    1       23.875 -13.741   3.752  0.00  0.00    +0.040 C 
ATOM     20  C   LIG    1       25.185 -14.520   3.803  0.00  0.00    +0.142 C 
BRANCH  20  21
ATOM     21  O   LIG    1       25.975 -13.948   4.857  0.00  0.00    -0.389 OA
ATOM     22  H   LIG    1       26.896 -13.978   4.529  0.00  0.00    +0.210 HD
ENDBRANCH  20  21
ENDBRANCH  18  20
BRANCH  18  23
ATOM     23  O   LIG    1       23.599 -16.310   4.111  0.00  0.00    -0.387 OA
ATOM     24  H   LIG    1       23.520 -17.252   3.871  0.00  0.00    +0.210 HD
ENDBRANCH  18  23
ENDBRANCH   1  18
TORSDOF 5
ENDMDL
