MODEL 1
REMARK VINA RESULT:      -9.0      0.000      0.000
REMARK  Name = *****
REMARK                            x       y       z     vdW  Elec       q    Type
REMARK                         _______ _______ _______ _____ _____    ______ ____
ROOT
ATOM      1  C   LIG    1       24.617 -21.047   5.601  0.00  0.00    +0.130 A 
ATOM      2  C   LIG    1       24.780 -21.802   6.820  0.00  0.00    +0.040 A 
ATOM      3  C   LIG    1       25.990 -21.662   7.530  0.00  0.00    +0.138 A 
ATOM      4  C   LIG    1       26.991 -20.899   7.006  0.00  0.00    +0.107 A 
ATOM      5  C   LIG    1       28.343 -20.751   7.542  0.00  0.00    +0.344 C 
ATOM      6  O   LIG    1       29.008 -19.936   6.674  0.00  0.00    -0.456 OA
ATOM      7  C   LIG    1       28.159 -19.528   5.573  0.00  0.00    +0.269 C 
ATOM      8  O   LIG    1       28.755 -21.264   8.543  0.00  0.00    -0.245 OA
ATOM      9  C   LIG    1       26.859 -20.188   5.850  0.00  0.00    +0.014 A 
ATOM     10  C   LIG    1       25.665 -20.207   5.123  0.00  0.00    -0.001 A 
ATOM     11  C   LIG    1       25.636 -19.395   3.863  0.00  0.00    +0.048 C 
ENDROOT
BRANCH   1  13
ATOM     12  C   LIG    1       22.302 -20.579   4.932  0.00  0.00    +0.277 C 
ATOM     13  O   LIG    1       23.481 -21.366   4.902  0.00  0.00    -0.494 OA
ENDBRANCH   1  13
BRANCH   3  14
ATOM     14  O   LIG    1       26.205 -22.280   8.719  0.00  0.00    -0.505 OA
ATOM     15  H   LIG    1       26.183 -21.637   9.460  0.00  0.00    +0.292 HD
ENDBRANCH   3  14
BRANCH   2  16
ATOM     16  C   LIG    1       23.690 -22.742   7.341  0.00  0.00    +0.069 C 
BRANCH  16  17
ATOM     17  C   LIG    1       23.538 -24.029   6.563  0.00  0.00    -0.023 C 
ATOM     18  C   LIG    1       24.380 -25.063   6.352  0.00  0.00    -0.076 C 
ATOM     19  C   LIG    1       25.751 -25.146   6.978  0.00  0.00    +0.038 C 
BRANCH  18  20
ATOM     20  C   LIG    1       24.049 -26.258   5.461  0.00  0.00    +0.041 C 
BRANCH  20  21
ATOM     21  C   LIG    1       24.864 -27.553   5.590  0.00  0.00    +0.125 C 
BRANCH  21  22
ATOM     22  C   LIG    1       24.161 -28.743   6.205  0.00  0.00    +0.305 C 
ATOM     23  O   LIG    1       24.332 -29.127   7.353  0.00  0.00    -0.251 OA
BRANCH  22  24
ATOM     24  O   LIG    1       23.266 -29.347   5.396  0.00  0.00    -0.481 OA
ATOM     25  H   LIG    1       23.133 -28.910   4.537  0.00  0.00    +0.295 HD
ENDBRANCH  22  24
ENDBRANCH  21  22
ENDBRANCH  20  21
ENDBRANCH  18  20
ENDBRANCH  16  17
ENDBRANCH   2  16
TORSDOF 8
ENDMDL
MODEL 2
REMARK VINA RESULT:      -8.7      1.079      1.165
REMARK  Name = *****
REMARK                            x       y       z     vdW  Elec       q    Type
REMARK                         _______ _______ _______ _____ _____    ______ ____
ROOT
ATOM      1  C   LIG    1       24.763 -20.745   5.634  0.00  0.00    +0.130 A 
ATOM      2  C   LIG    1       24.928 -21.387   6.915  0.00  0.00    +0.040 A 
ATOM      3  C   LIG    1       26.154 -21.215   7.589  0.00  0.00    +0.138 A 
ATOM      4  C   LIG    1       27.165 -20.534   6.980  0.00  0.00    +0.107 A 
ATOM      5  C   LIG    1       28.530 -20.375   7.478  0.00  0.00    +0.344 C 
ATOM      6  O   LIG    1       29.201 -19.664   6.527  0.00  0.00    -0.456 OA
ATOM      7  C   LIG    1       28.343 -19.336   5.406  0.00  0.00    +0.269 C 
ATOM      8  O   LIG    1       28.947 -20.804   8.516  0.00  0.00    -0.245 OA
ATOM      9  C   LIG    1       27.031 -19.931   5.764  0.00  0.00    +0.014 A 
ATOM     10  C   LIG    1       25.824 -19.984   5.062  0.00  0.00    -0.001 A 
ATOM     11  C   LIG    1       25.793 -19.292   3.731  0.00  0.00    +0.048 C 
ENDROOT
BRANCH   1  13
ATOM     12  C   LIG    1       22.446 -20.279   4.966  0.00  0.00    +0.277 C 
ATOM     13  O   LIG    1       23.605 -21.095   4.985  0.00  0.00    -0.494 OA
ENDBRANCH   1  13
BRANCH   3  14
ATOM     14  O   LIG    1       26.374 -21.726   8.827  0.00  0.00    -0.505 OA
ATOM     15  H   LIG    1       26.088 -22.663   8.878  0.00  0.00    +0.292 HD
ENDBRANCH   3  14
BRANCH   2  16
ATOM     16  C   LIG    1       23.823 -22.243   7.540  0.00  0.00    +0.069 C 
BRANCH  16  17
ATOM     17  C   LIG    1       23.601 -23.578   6.869  0.00  0.00    -0.023 C 
ATOM     18  C   LIG    1       24.448 -24.576   6.536  0.00  0.00    -0.076 C 
ATOM     19  C   LIG    1       25.920 -24.549   6.871  0.00  0.00    +0.038 C 
BRANCH  18  20
ATOM     20  C   LIG    1       24.021 -25.837   5.789  0.00  0.00    +0.041 C 
BRANCH  20  21
ATOM     21  C   LIG    1       24.606 -27.197   6.195  0.00  0.00    +0.125 C 
BRANCH  21  22
ATOM     22  C   LIG    1       25.686 -27.768   5.304  0.00  0.00    +0.305 C 
ATOM     23  O   LIG    1       26.408 -27.098   4.579  0.00  0.00    -0.251 OA
BRANCH  22  24
ATOM     24  O   LIG    1       25.843 -29.105   5.396  0.00  0.00    -0.481 OA
ATOM     25  H   LIG    1       26.626 -29.456   4.938  0.00  0.00    +0.295 HD
ENDBRANCH  22  24
ENDBRANCH  21  22
ENDBRANCH  20  21
ENDBRANCH  18  20
ENDBRANCH  16  17
ENDBRANCH   2  16
TORSDOF 8
ENDMDL
MODEL 3
REMARK VINA RESULT:      -8.7      2.868      7.816
REMARK  Name = *****
REMARK                            x       y       z     vdW  Elec       q    Type
REMARK                         _______ _______ _______ _____ _____    ______ ____
ROOT
ATOM      1  C   LIG    1       25.532 -21.810   6.856  0.00  0.00    +0.130 A 
ATOM      2  C   LIG    1       26.672 -21.084   6.353  0.00  0.00    +0.040 A 
ATOM      3  C   LIG    1       26.447 -20.090   5.379  0.00  0.00    +0.138 A 
ATOM      4  C   LIG    1       25.191 -19.910   4.881  0.00  0.00    +0.107 A 
ATOM      5  C   LIG    1       24.809 -19.020   3.785  0.00  0.00    +0.344 C 
ATOM      6  O   LIG    1       23.470 -19.198   3.601  0.00  0.00    -0.456 OA
ATOM      7  C   LIG    1       22.931 -20.172   4.530  0.00  0.00    +0.269 C 
ATOM      8  O   LIG    1       25.552 -18.299   3.183  0.00  0.00    -0.245 OA
ATOM      9  C   LIG    1       24.104 -20.595   5.336  0.00  0.00    +0.014 A 
ATOM     10  C   LIG    1       24.223 -21.543   6.356  0.00  0.00    -0.001 A 
ATOM     11  C   LIG    1       22.963 -22.242   6.771  0.00  0.00    +0.048 C 
ENDROOT
BRANCH   1  13
ATOM     12  C   LIG    1       25.864 -24.210   7.254  0.00  0.00    +0.277 C 
ATOM     13  O   LIG    1       25.862 -22.857   7.678  0.00  0.00    -0.494 OA
ENDBRANCH   1  13
BRANCH   3  14
ATOM     14  O   LIG    1       27.450 -19.311   4.898  0.00  0.00    -0.505 OA
ATOM     15  H   LIG    1       27.492 -19.356   3.919  0.00  0.00    +0.292 HD
ENDBRANCH   3  14
BRANCH   2  16
ATOM     16  C   LIG    1       28.094 -21.372   6.840  0.00  0.00    +0.069 C 
BRANCH  16  17
ATOM     17  C   LIG    1       28.610 -20.416   7.890  0.00  0.00    -0.023 C 
ATOM     18  C   LIG    1       29.614 -19.513   7.877  0.00  0.00    -0.076 C 
ATOM     19  C   LIG    1       30.449 -19.233   6.652  0.00  0.00    +0.038 C 
BRANCH  18  20
ATOM     20  C   LIG    1       30.021 -18.679   9.090  0.00  0.00    +0.041 C 
BRANCH  20  21
ATOM     21  C   LIG    1       30.641 -17.290   8.885  0.00  0.00    +0.125 C 
BRANCH  21  22
ATOM     22  C   LIG    1       32.035 -17.079   9.431  0.00  0.00    +0.305 C 
ATOM     23  O   LIG    1       32.513 -17.709  10.365  0.00  0.00    -0.251 OA
BRANCH  22  24
ATOM     24  O   LIG    1       32.763 -16.153   8.773  0.00  0.00    -0.481 OA
ATOM     25  H   LIG    1       33.711 -16.148   8.993  0.00  0.00    +0.295 HD
ENDBRANCH  22  24
ENDBRANCH  21  22
ENDBRANCH  20  21
ENDBRANCH  18  20
ENDBRANCH  16  17
ENDBRANCH   2  16
TORSDOF 8
ENDMDL
MODEL 4
REMARK VINA RESULT:      -8.1      3.758      8.102
REMARK  Name = *****
REMARK                            x       y       z     vdW  Elec       q    Type
REMARK                         _______ _______ _______ _____ _____    ______ ____
ROOT
ATOM      1  C   LIG    1       27.133 -20.028   5.475  0.00  0.00    +0.130 A 
ATOM      2  C   LIG    1       27.139 -20.640   6.781  0.00  0.00    +0.040 A 
ATOM      3  C   LIG    1       25.911 -21.088   7.309  0.00  0.00    +0.138 A 
ATOM      4  C   LIG    1       24.759 -20.852   6.621  0.00  0.00    +0.107 A 
ATOM      5  C   LIG    1       23.399 -21.131   7.079  0.00  0.00    +0.344 C 
ATOM      6  O   LIG    1       22.567 -20.693   6.090  0.00  0.00    -0.456 OA
ATOM      7  C   LIG    1       23.312 -20.129   4.982  0.00  0.00    +0.269 C 
ATOM      8  O   LIG    1       23.107 -21.637   8.125  0.00  0.00    -0.245 OA
ATOM      9  C   LIG    1       24.733 -20.264   5.390  0.00  0.00    +0.014 A 
ATOM     10  C   LIG    1       25.912 -19.861   4.758  0.00  0.00    -0.001 A 
ATOM     11  C   LIG    1       25.763 -19.218   3.411  0.00  0.00    +0.048 C 
ENDROOT
BRANCH   1  13
ATOM     12  C   LIG    1       28.579 -18.089   5.055  0.00  0.00    +0.277 C 
ATOM     13  O   LIG    1       28.340 -19.485   5.114  0.00  0.00    -0.494 OA
ENDBRANCH   1  13
BRANCH   3  14
ATOM     14  O   LIG    1       25.830 -21.735   8.499  0.00  0.00    -0.505 OA
ATOM     15  H   LIG    1       25.284 -22.546   8.424  0.00  0.00    +0.292 HD
ENDBRANCH   3  14
BRANCH   2  16
ATOM     16  C   LIG    1       28.427 -20.800   7.594  0.00  0.00    +0.069 C 
BRANCH  16  17
ATOM     17  C   LIG    1       28.867 -19.559   8.334  0.00  0.00    -0.023 C 
ATOM     18  C   LIG    1       30.023 -18.861   8.322  0.00  0.00    -0.076 C 
ATOM     19  C   LIG    1       31.183 -19.209   7.421  0.00  0.00    +0.038 C 
BRANCH  18  20
ATOM     20  C   LIG    1       30.291 -17.650   9.212  0.00  0.00    +0.041 C 
BRANCH  20  21
ATOM     21  C   LIG    1       31.553 -17.612  10.087  0.00  0.00    +0.125 C 
BRANCH  21  22
ATOM     22  C   LIG    1       32.388 -16.353  10.025  0.00  0.00    +0.305 C 
ATOM     23  O   LIG    1       32.746 -15.714  11.004  0.00  0.00    -0.251 OA
BRANCH  22  24
ATOM     24  O   LIG    1       32.767 -15.990   8.782  0.00  0.00    -0.481 OA
ATOM     25  H   LIG    1       33.179 -16.698   8.258  0.00  0.00    +0.295 HD
ENDBRANCH  22  24
ENDBRANCH  21  22
ENDBRANCH  20  21
ENDBRANCH  18  20
ENDBRANCH  16  17
ENDBRANCH   2  16
TORSDOF 8
ENDMDL
MODEL 5
REMARK VINA RESULT:      -7.9      1.311      3.498
REMARK  Name = *****
REMARK                            x       y       z     vdW  Elec       q    Type
REMARK                         _______ _______ _______ _____ _____    ______ ____
ROOT
ATOM      1  C   LIG    1       25.766 -21.503   6.258  0.00  0.00    +0.130 A 
ATOM      2  C   LIG    1       24.361 -21.830   6.264  0.00  0.00    +0.040 A 
ATOM      3  C   LIG    1       23.505 -21.089   5.424  0.00  0.00    +0.138 A 
ATOM      4  C   LIG    1       24.007 -20.042   4.710  0.00  0.00    +0.107 A 
ATOM      5  C   LIG    1       23.242 -19.098   3.897  0.00  0.00    +0.344 C 
ATOM      6  O   LIG    1       24.144 -18.199   3.408  0.00  0.00    -0.456 OA
ATOM      7  C   LIG    1       25.489 -18.499   3.859  0.00  0.00    +0.269 C 
ATOM      8  O   LIG    1       22.057 -19.129   3.723  0.00  0.00    -0.245 OA
ATOM      9  C   LIG    1       25.330 -19.711   4.701  0.00  0.00    +0.014 A 
ATOM     10  C   LIG    1       26.261 -20.442   5.444  0.00  0.00    -0.001 A 
ATOM     11  C   LIG    1       27.687 -19.984   5.366  0.00  0.00    +0.048 C 
ENDROOT
BRANCH   1  13
ATOM     12  C   LIG    1       26.896 -21.568   8.437  0.00  0.00    +0.277 C 
ATOM     13  O   LIG    1       26.491 -22.165   7.216  0.00  0.00    -0.494 OA
ENDBRANCH   1  13
BRANCH   3  14
ATOM     14  O   LIG    1       22.182 -21.370   5.314  0.00  0.00    -0.505 OA
ATOM     15  H   LIG    1       21.704 -21.145   6.141  0.00  0.00    +0.292 HD
ENDBRANCH   3  14
BRANCH   2  16
ATOM     16  C   LIG    1       23.791 -22.936   7.155  0.00  0.00    +0.069 C 
BRANCH  16  17
ATOM     17  C   LIG    1       23.617 -24.272   6.472  0.00  0.00    -0.023 C 
ATOM     18  C   LIG    1       24.473 -25.294   6.251  0.00  0.00    -0.076 C 
ATOM     19  C   LIG    1       25.893 -25.299   6.761  0.00  0.00    +0.038 C 
BRANCH  18  20
ATOM     20  C   LIG    1       24.107 -26.552   5.467  0.00  0.00    +0.041 C 
BRANCH  20  21
ATOM     21  C   LIG    1       24.888 -27.852   5.706  0.00  0.00    +0.125 C 
BRANCH  21  22
ATOM     22  C   LIG    1       24.118 -29.010   6.300  0.00  0.00    +0.305 C 
ATOM     23  O   LIG    1       24.214 -29.377   7.463  0.00  0.00    -0.251 OA
BRANCH  22  24
ATOM     24  O   LIG    1       23.253 -29.604   5.453  0.00  0.00    -0.481 OA
ATOM     25  H   LIG    1       22.324 -29.587   5.740  0.00  0.00    +0.295 HD
ENDBRANCH  22  24
ENDBRANCH  21  22
ENDBRANCH  20  21
ENDBRANCH  18  20
ENDBRANCH  16  17
ENDBRANCH   2  16
TORSDOF 8
ENDMDL
MODEL 6
REMARK VINA RESULT:      -7.3      1.877      3.547
REMARK  Name = *****
REMARK                            x       y       z     vdW  Elec       q    Type
REMARK                         _______ _______ _______ _____ _____    ______ ____
ROOT
ATOM      1  C   LIG    1       27.396 -21.594   7.254  0.00  0.00    +0.130 A 
ATOM      2  C   LIG    1       26.581 -21.002   6.222  0.00  0.00    +0.040 A 
ATOM      3  C   LIG    1       27.126 -19.935   5.477  0.00  0.00    +0.138 A 
ATOM      4  C   LIG    1       28.352 -19.442   5.810  0.00  0.00    +0.107 A 
ATOM      5  C   LIG    1       29.004 -18.268   5.231  0.00  0.00    +0.344 C 
ATOM      6  O   LIG    1       30.187 -18.125   5.895  0.00  0.00    -0.456 OA
ATOM      7  C   LIG    1       30.361 -19.156   6.899  0.00  0.00    +0.269 C 
ATOM      8  O   LIG    1       28.556 -17.584   4.356  0.00  0.00    -0.245 OA
ATOM      9  C   LIG    1       29.131 -19.982   6.791  0.00  0.00    +0.014 A 
ATOM     10  C   LIG    1       28.702 -21.090   7.525  0.00  0.00    -0.001 A 
ATOM     11  C   LIG    1       29.638 -21.594   8.584  0.00  0.00    +0.048 C 
ENDROOT
BRANCH   1  13
ATOM     12  C   LIG    1       25.826 -22.154   9.056  0.00  0.00    +0.277 C 
ATOM     13  O   LIG    1       26.730 -22.512   8.025  0.00  0.00    -0.494 OA
ENDBRANCH   1  13
BRANCH   3  14
ATOM     14  O   LIG    1       26.459 -19.362   4.444  0.00  0.00    -0.505 OA
ATOM     15  H   LIG    1       27.020 -18.701   3.985  0.00  0.00    +0.292 HD
ENDBRANCH   3  14
BRANCH   2  16
ATOM     16  C   LIG    1       25.160 -21.492   5.931  0.00  0.00    +0.069 C 
BRANCH  16  17
ATOM     17  C   LIG    1       25.043 -22.977   5.677  0.00  0.00    -0.023 C 
ATOM     18  C   LIG    1       24.130 -23.892   6.069  0.00  0.00    -0.076 C 
ATOM     19  C   LIG    1       22.901 -23.535   6.868  0.00  0.00    +0.038 C 
BRANCH  18  20
ATOM     20  C   LIG    1       24.235 -25.382   5.754  0.00  0.00    +0.041 C 
BRANCH  20  21
ATOM     21  C   LIG    1       25.311 -25.881   4.779  0.00  0.00    +0.125 C 
BRANCH  21  22
ATOM     22  C   LIG    1       25.977 -27.197   5.113  0.00  0.00    +0.305 C 
ATOM     23  O   LIG    1       25.381 -28.191   5.503  0.00  0.00    -0.251 OA
BRANCH  22  24
ATOM     24  O   LIG    1       27.309 -27.222   4.903  0.00  0.00    -0.481 OA
ATOM     25  H   LIG    1       27.766 -27.996   5.277  0.00  0.00    +0.295 HD
ENDBRANCH  22  24
ENDBRANCH  21  22
ENDBRANCH  20  21
ENDBRANCH  18  20
ENDBRANCH  16  17
ENDBRANCH   2  16
TORSDOF 8
ENDMDL
MODEL 7
REMARK VINA RESULT:      -7.2      2.472      6.359
REMARK  Name = *****
REMARK                            x       y       z     vdW  Elec       q    Type
REMARK                         _______ _______ _______ _____ _____    ______ ____
ROOT
ATOM      1  C   LIG    1       24.296 -20.374   5.137  0.00  0.00    +0.130 A 
ATOM      2  C   LIG    1       25.605 -20.817   5.551  0.00  0.00    +0.040 A 
ATOM      3  C   LIG    1       25.727 -22.119   6.079  0.00  0.00    +0.138 A 
ATOM      4  C   LIG    1       24.609 -22.876   6.264  0.00  0.00    +0.107 A 
ATOM      5  C   LIG    1       24.541 -24.185   6.912  0.00  0.00    +0.344 C 
ATOM      6  O   LIG    1       23.225 -24.541   6.913  0.00  0.00    -0.456 OA
ATOM      7  C   LIG    1       22.400 -23.524   6.291  0.00  0.00    +0.269 C 
ATOM      8  O   LIG    1       25.475 -24.792   7.352  0.00  0.00    -0.245 OA
ATOM      9  C   LIG    1       23.362 -22.468   5.889  0.00  0.00    +0.014 A 
ATOM     10  C   LIG    1       23.161 -21.224   5.286  0.00  0.00    -0.001 A 
ATOM     11  C   LIG    1       21.748 -20.876   4.923  0.00  0.00    +0.048 C 
ENDROOT
BRANCH   1  13
ATOM     12  C   LIG    1       24.055 -18.602   3.455  0.00  0.00    +0.277 C 
ATOM     13  O   LIG    1       24.247 -19.048   4.786  0.00  0.00    -0.494 OA
ENDBRANCH   1  13
BRANCH   3  14
ATOM     14  O   LIG    1       26.928 -22.645   6.431  0.00  0.00    -0.505 OA
ATOM     15  H   LIG    1       26.875 -23.089   7.305  0.00  0.00    +0.292 HD
ENDBRANCH   3  14
BRANCH   2  16
ATOM     16  C   LIG    1       26.838 -19.916   5.441  0.00  0.00    +0.069 C 
BRANCH  16  17
ATOM     17  C   LIG    1       27.824 -20.053   6.577  0.00  0.00    -0.023 C 
ATOM     18  C   LIG    1       29.037 -19.498   6.794  0.00  0.00    -0.076 C 
ATOM     19  C   LIG    1       29.655 -18.487   5.860  0.00  0.00    +0.038 C 
BRANCH  18  20
ATOM     20  C   LIG    1       29.917 -19.827   7.998  0.00  0.00    +0.041 C 
BRANCH  20  21
ATOM     21  C   LIG    1       30.078 -21.287   8.447  0.00  0.00    +0.125 C 
BRANCH  21  22
ATOM     22  C   LIG    1       31.449 -21.703   8.929  0.00  0.00    +0.305 C 
ATOM     23  O   LIG    1       32.284 -20.933   9.381  0.00  0.00    -0.251 OA
BRANCH  22  24
ATOM     24  O   LIG    1       31.686 -23.030   8.872  0.00  0.00    -0.481 OA
ATOM     25  H   LIG    1       31.014 -23.583   9.307  0.00  0.00    +0.295 HD
ENDBRANCH  22  24
ENDBRANCH  21  22
ENDBRANCH  20  21
ENDBRANCH  18  20
ENDBRANCH  16  17
ENDBRANCH   2  16
TORSDOF 8
ENDMDL
MODEL 8
REMARK VINA RESULT:      -7.0      3.106      4.906
REMARK  Name = *****
REMARK                            x       y       z     vdW  Elec       q    Type
REMARK                         _______ _______ _______ _____ _____    ______ ____
ROOT
ATOM      1  C   LIG    1       28.207 -20.268   6.233  0.00  0.00    +0.130 A 
ATOM      2  C   LIG    1       28.307 -21.305   7.230  0.00  0.00    +0.040 A 
ATOM      3  C   LIG    1       29.369 -21.235   8.155  0.00  0.00    +0.138 A 
ATOM      4  C   LIG    1       30.308 -20.256   8.025  0.00  0.00    +0.107 A 
ATOM      5  C   LIG    1       31.532 -20.115   8.812  0.00  0.00    +0.344 C 
ATOM      6  O   LIG    1       32.184 -19.028   8.310  0.00  0.00    -0.456 OA
ATOM      7  C   LIG    1       31.448 -18.428   7.214  0.00  0.00    +0.269 C 
ATOM      8  O   LIG    1       31.871 -20.836   9.708  0.00  0.00    -0.245 OA
ATOM      9  C   LIG    1       30.236 -19.274   7.082  0.00  0.00    +0.014 A 
ATOM     10  C   LIG    1       29.174 -19.222   6.175  0.00  0.00    -0.001 A 
ATOM     11  C   LIG    1       29.202 -18.104   5.175  0.00  0.00    +0.048 C 
ENDROOT
BRANCH   1  13
ATOM     12  C   LIG    1       26.233 -19.565   4.954  0.00  0.00    +0.277 C 
ATOM     13  O   LIG    1       27.243 -20.503   5.286  0.00  0.00    -0.494 OA
ENDBRANCH   1  13
BRANCH   3  14
ATOM     14  O   LIG    1       29.503 -22.128   9.168  0.00  0.00    -0.505 OA
ATOM     15  H   LIG    1       28.817 -21.988   9.855  0.00  0.00    +0.292 HD
ENDBRANCH   3  14
BRANCH   2  16
ATOM     16  C   LIG    1       27.308 -22.463   7.297  0.00  0.00    +0.069 C 
BRANCH  16  17
ATOM     17  C   LIG    1       25.868 -22.047   7.487  0.00  0.00    -0.023 C 
ATOM     18  C   LIG    1       24.703 -22.636   7.142  0.00  0.00    -0.076 C 
ATOM     19  C   LIG    1       24.632 -23.993   6.485  0.00  0.00    +0.038 C 
BRANCH  18  20
ATOM     20  C   LIG    1       23.332 -22.003   7.372  0.00  0.00    +0.041 C 
BRANCH  20  21
ATOM     21  C   LIG    1       23.088 -20.545   6.960  0.00  0.00    +0.125 C 
BRANCH  21  22
ATOM     22  C   LIG    1       22.771 -20.292   5.504  0.00  0.00    +0.305 C 
ATOM     23  O   LIG    1       22.824 -21.145   4.629  0.00  0.00    -0.251 OA
BRANCH  22  24
ATOM     24  O   LIG    1       22.366 -19.035   5.226  0.00  0.00    -0.481 OA
ATOM     25  H   LIG    1       22.101 -18.888   4.302  0.00  0.00    +0.295 HD
ENDBRANCH  22  24
ENDBRANCH  21  22
ENDBRANCH  20  21
ENDBRANCH  18  20
ENDBRANCH  16  17
ENDBRANCH   2  16
TORSDOF 8
ENDMDL
MODEL 9
REMARK VINA RESULT:      -6.9      3.754      8.730
REMARK  Name = *****
REMARK                            x       y       z     vdW  Elec       q    Type
REMARK                         _______ _______ _______ _____ _____    ______ ____
ROOT
ATOM      1  C   LIG    1       24.248 -30.838   8.696  0.00  0.00    +0.130 A 
ATOM      2  C   LIG    1       25.139 -29.809   8.217  0.00  0.00    +0.040 A 
ATOM      3  C   LIG    1       25.989 -29.182   9.149  0.00  0.00    +0.138 A 
ATOM      4  C   LIG    1       25.883 -29.495  10.471  0.00  0.00    +0.107 A 
ATOM      5  C   LIG    1       26.592 -28.852  11.577  0.00  0.00    +0.344 C 
ATOM      6  O   LIG    1       26.145 -29.455  12.716  0.00  0.00    -0.456 OA
ATOM      7  C   LIG    1       25.162 -30.480  12.423  0.00  0.00    +0.269 C 
ATOM      8  O   LIG    1       27.393 -27.968  11.471  0.00  0.00    -0.245 OA
ATOM      9  C   LIG    1       25.039 -30.456  10.944  0.00  0.00    +0.014 A 
ATOM     10  C   LIG    1       24.217 -31.183  10.079  0.00  0.00    -0.001 A 
ATOM     11  C   LIG    1       23.322 -32.209  10.710  0.00  0.00    +0.048 C 
ENDROOT
BRANCH   1  13
ATOM     12  C   LIG    1       23.500 -32.501   7.053  0.00  0.00    +0.277 C 
ATOM     13  O   LIG    1       23.354 -31.278   7.754  0.00  0.00    -0.494 OA
ENDBRANCH   1  13
BRANCH   3  14
ATOM     14  O   LIG    1       26.906 -28.252   8.778  0.00  0.00    -0.505 OA
ATOM     15  H   LIG    1       27.634 -28.661   8.263  0.00  0.00    +0.292 HD
ENDBRANCH   3  14
BRANCH   2  16
ATOM     16  C   LIG    1       25.171 -29.388   6.745  0.00  0.00    +0.069 C 
BRANCH  16  17
ATOM     17  C   LIG    1       24.490 -28.071   6.450  0.00  0.00    -0.023 C 
ATOM     18  C   LIG    1       24.963 -26.891   5.994  0.00  0.00    -0.076 C 
ATOM     19  C   LIG    1       26.405 -26.681   5.601  0.00  0.00    +0.038 C 
BRANCH  18  20
ATOM     20  C   LIG    1       24.102 -25.641   5.825  0.00  0.00    +0.041 C 
BRANCH  20  21
ATOM     21  C   LIG    1       24.486 -24.348   6.557  0.00  0.00    +0.125 C 
BRANCH  21  22
ATOM     22  C   LIG    1       23.360 -23.397   6.898  0.00  0.00    +0.305 C 
ATOM     23  O   LIG    1       23.521 -22.274   7.355  0.00  0.00    -0.251 OA
BRANCH  22  24
ATOM     24  O   LIG    1       22.126 -23.862   6.613  0.00  0.00    -0.481 OA
ATOM     25  H   LIG    1       22.030 -24.244   5.724  0.00  0.00    +0.295 HD
ENDBRANCH  22  24
ENDBRANCH  21  22
ENDBRANCH  20  21
ENDBRANCH  18  20
ENDBRANCH  16  17
ENDBRANCH   2  16
TORSDOF 8
ENDMDL
