MODEL 1
REMARK VINA RESULT:       2.9      0.000      0.000
REMARK  Name = *****
REMARK                            x       y       z     vdW  Elec       q    Type
REMARK                         _______ _______ _______ _____ _____    ______ ____
ROOT
ATOM      1  C   LIG    1       28.729 -12.429   4.645  0.00  0.00    +0.117 A 
ATOM      2  C   LIG    1       27.626 -12.052   3.890  0.00  0.00    +0.049 A 
ATOM      3  C   LIG    1       26.824 -13.026   3.271  0.00  0.00    -0.040 A 
ATOM      4  C   LIG    1       25.608 -12.551   2.508  0.00  0.00    +0.036 C 
ATOM      5  C   LIG    1       24.772 -13.652   1.859  0.00  0.00    +0.013 C 
ATOM      6  C   LIG    1       24.725 -14.941   2.697  0.00  0.00    +0.031 C 
ATOM      7  C   LIG    1       26.195 -15.456   2.857  0.00  0.00    +0.057 C 
ATOM      8  C   LIG    1       27.127 -14.396   3.445  0.00  0.00    -0.036 A 
ATOM      9  C   LIG    1       28.303 -14.740   4.138  0.00  0.00    +0.008 A 
ATOM     10  C   LIG    1       29.087 -13.763   4.755  0.00  0.00    +0.045 A 
ENDROOT
BRANCH   6  11
ATOM     11  C   LIG    1       23.850 -14.762   3.941  0.00  0.00    -0.043 A 
ATOM     12  C   LIG    1       23.846 -13.604   4.734  0.00  0.00    +0.004 A 
ATOM     13  C   LIG    1       23.013 -13.484   5.847  0.00  0.00    +0.000 A 
ATOM     14  C   LIG    1       22.157 -14.523   6.195  0.00  0.00    +0.000 A 
ATOM     15  C   LIG    1       22.131 -15.678   5.420  0.00  0.00    +0.000 A 
ATOM     16  C   LIG    1       22.966 -15.794   4.301  0.00  0.00    +0.004 A 
ENDBRANCH   6  11
BRANCH   7  17
ATOM     17  C   LIG    1       26.233 -16.874   3.431  0.00  0.00    -0.039 A 
ATOM     18  C   LIG    1       27.227 -17.312   4.317  0.00  0.00    +0.008 A 
ATOM     19  C   LIG    1       27.210 -18.611   4.831  0.00  0.00    +0.046 A 
ATOM     20  C   LIG    1       26.168 -19.475   4.507  0.00  0.00    +0.121 A 
ATOM     21  C   LIG    1       25.181 -19.072   3.614  0.00  0.00    +0.046 A 
ATOM     22  C   LIG    1       25.207 -17.777   3.087  0.00  0.00    +0.008 A 
BRANCH  20  23
ATOM     23  O   LIG    1       26.101 -20.749   4.996  0.00  0.00    -0.491 OA
BRANCH  23  24
ATOM     24  C   LIG    1       26.144 -20.795   6.433  0.00  0.00    +0.244 C 
BRANCH  24  25
ATOM     25  C   LIG    1       24.926 -21.572   6.963  0.00  0.00    +0.125 C 
BRANCH  25  26
ATOM     26  N   LIG    1       23.642 -21.022   6.510  0.00  0.00    -0.299 NA
ATOM     27  C   LIG    1       23.636 -19.561   6.411  0.00  0.00    +0.084 C 
ATOM     28  C   LIG    1       22.407 -19.305   5.563  0.00  0.00    +0.017 C 
ATOM     29  C   LIG    1       22.496 -20.392   4.509  0.00  0.00    +0.017 C 
ATOM     30  C   LIG    1       23.237 -21.538   5.194  0.00  0.00    +0.084 C 
ENDBRANCH  25  26
ENDBRANCH  24  25
ENDBRANCH  23  24
ENDBRANCH  20  23
ENDBRANCH   7  17
BRANCH   1  31
ATOM     31  O   LIG    1       29.435 -11.447   5.271  0.00  0.00    -0.507 OA
ATOM     32  H   LIG    1       28.903 -10.633   5.263  0.00  0.00    +0.292 HD
ENDBRANCH   1  31
TORSDOF 7
ENDMDL
MODEL 2
REMARK VINA RESULT:       4.5      2.406      7.581
REMARK  Name = *****
REMARK                            x       y       z     vdW  Elec       q    Type
REMARK                         _______ _______ _______ _____ _____    ______ ____
ROOT
ATOM      1  C   LIG    1       22.492 -20.732   6.112  0.00  0.00    +0.117 A 
ATOM      2  C   LIG    1       23.431 -21.248   5.227  0.00  0.00    +0.049 A 
ATOM      3  C   LIG    1       24.042 -20.415   4.276  0.00  0.00    -0.040 A 
ATOM      4  C   LIG    1       25.093 -21.029   3.378  0.00  0.00    +0.036 C 
ATOM      5  C   LIG    1       25.726 -20.076   2.366  0.00  0.00    +0.013 C 
ATOM      6  C   LIG    1       25.888 -18.646   2.910  0.00  0.00    +0.031 C 
ATOM      7  C   LIG    1       24.463 -18.114   3.276  0.00  0.00    +0.057 C 
ATOM      8  C   LIG    1       23.721 -19.038   4.242  0.00  0.00    -0.036 A 
ATOM      9  C   LIG    1       22.701 -18.566   5.089  0.00  0.00    +0.008 A 
ATOM     10  C   LIG    1       22.107 -19.403   6.036  0.00  0.00    +0.045 A 
ENDROOT
BRANCH   6  11
ATOM     11  C   LIG    1       27.010 -18.572   3.951  0.00  0.00    -0.043 A 
ATOM     12  C   LIG    1       27.897 -17.491   4.069  0.00  0.00    +0.004 A 
ATOM     13  C   LIG    1       28.890 -17.466   5.050  0.00  0.00    +0.000 A 
ATOM     14  C   LIG    1       29.017 -18.524   5.943  0.00  0.00    +0.000 A 
ATOM     15  C   LIG    1       28.143 -19.603   5.856  0.00  0.00    +0.000 A 
ATOM     16  C   LIG    1       27.146 -19.625   4.872  0.00  0.00    +0.004 A 
ENDBRANCH   6  11
BRANCH   7  17
ATOM     17  C   LIG    1       24.481 -16.610   3.560  0.00  0.00    -0.039 A 
ATOM     18  C   LIG    1       25.401 -15.733   2.968  0.00  0.00    +0.008 A 
ATOM     19  C   LIG    1       25.367 -14.364   3.241  0.00  0.00    +0.046 A 
ATOM     20  C   LIG    1       24.379 -13.843   4.071  0.00  0.00    +0.121 A 
ATOM     21  C   LIG    1       23.466 -14.693   4.686  0.00  0.00    +0.046 A 
ATOM     22  C   LIG    1       23.511 -16.066   4.425  0.00  0.00    +0.008 A 
BRANCH  20  23
ATOM     23  O   LIG    1       24.296 -12.509   4.356  0.00  0.00    -0.491 OA
BRANCH  23  24
ATOM     24  C   LIG    1       25.469 -12.011   5.024  0.00  0.00    +0.244 C 
BRANCH  24  25
ATOM     25  C   LIG    1       26.222 -13.177   5.687  0.00  0.00    +0.125 C 
BRANCH  25  26
ATOM     26  N   LIG    1       27.618 -13.294   5.247  0.00  0.00    -0.299 NA
ATOM     27  C   LIG    1       27.756 -13.572   3.816  0.00  0.00    +0.084 C 
ATOM     28  C   LIG    1       29.212 -13.237   3.566  0.00  0.00    +0.017 C 
ATOM     29  C   LIG    1       29.406 -11.969   4.376  0.00  0.00    +0.017 C 
ATOM     30  C   LIG    1       28.403 -12.082   5.522  0.00  0.00    +0.084 C 
ENDBRANCH  25  26
ENDBRANCH  24  25
ENDBRANCH  23  24
ENDBRANCH  20  23
ENDBRANCH   7  17
BRANCH   1  31
ATOM     31  O   LIG    1       21.976 -21.571   7.052  0.00  0.00    -0.507 OA
ATOM     32  H   LIG    1       21.009 -21.583   6.956  0.00  0.00    +0.292 HD
ENDBRANCH   1  31
TORSDOF 7
ENDMDL
MODEL 3
REMARK VINA RESULT:       5.0      2.444      7.076
REMARK  Name = *****
REMARK                            x       y       z     vdW  Elec       q    Type
REMARK                         _______ _______ _______ _____ _____    ______ ____
ROOT
ATOM      1  C   LIG    1       21.634 -18.245   4.516  0.00  0.00    +0.117 A 
ATOM      2  C   LIG    1       22.293 -19.368   4.031  0.00  0.00    +0.049 A 
ATOM      3  C   LIG    1       23.579 -19.250   3.477  0.00  0.00    -0.040 A 
ATOM      4  C   LIG    1       24.262 -20.518   3.015  0.00  0.00    +0.036 C 
ATOM      5  C   LIG    1       25.658 -20.331   2.426  0.00  0.00    +0.013 C 
ATOM      6  C   LIG    1       26.456 -19.211   3.117  0.00  0.00    +0.031 C 
ATOM      7  C   LIG    1       25.653 -17.879   2.938  0.00  0.00    +0.057 C 
ATOM      8  C   LIG    1       24.215 -17.987   3.445  0.00  0.00    -0.036 A 
ATOM      9  C   LIG    1       23.485 -16.858   3.860  0.00  0.00    +0.008 A 
ATOM     10  C   LIG    1       22.210 -16.989   4.416  0.00  0.00    +0.045 A 
ENDROOT
BRANCH   6  11
ATOM     11  C   LIG    1       26.907 -19.636   4.517  0.00  0.00    -0.043 A 
ATOM     12  C   LIG    1       26.067 -20.255   5.456  0.00  0.00    +0.004 A 
ATOM     13  C   LIG    1       26.536 -20.640   6.712  0.00  0.00    +0.000 A 
ATOM     14  C   LIG    1       27.863 -20.419   7.062  0.00  0.00    +0.000 A 
ATOM     15  C   LIG    1       28.722 -19.819   6.146  0.00  0.00    +0.000 A 
ATOM     16  C   LIG    1       28.249 -19.435   4.884  0.00  0.00    +0.004 A 
ENDBRANCH   6  11
BRANCH   7  17
ATOM     17  C   LIG    1       26.489 -16.663   3.341  0.00  0.00    -0.039 A 
ATOM     18  C   LIG    1       27.354 -16.662   4.444  0.00  0.00    +0.008 A 
ATOM     19  C   LIG    1       28.114 -15.534   4.762  0.00  0.00    +0.046 A 
ATOM     20  C   LIG    1       28.058 -14.406   3.950  0.00  0.00    +0.121 A 
ATOM     21  C   LIG    1       27.195 -14.372   2.861  0.00  0.00    +0.046 A 
ATOM     22  C   LIG    1       26.422 -15.497   2.552  0.00  0.00    +0.008 A 
BRANCH  20  23
ATOM     23  O   LIG    1       28.794 -13.283   4.212  0.00  0.00    -0.491 OA
BRANCH  23  24
ATOM     24  C   LIG    1       27.976 -12.154   4.563  0.00  0.00    +0.244 C 
BRANCH  24  25
ATOM     25  C   LIG    1       26.777 -12.623   5.405  0.00  0.00    +0.125 C 
BRANCH  25  26
ATOM     26  N   LIG    1       25.478 -12.292   4.806  0.00  0.00    -0.299 NA
ATOM     27  C   LIG    1       25.570 -11.888   3.401  0.00  0.00    +0.084 C 
ATOM     28  C   LIG    1       24.133 -12.011   2.939  0.00  0.00    +0.017 C 
ATOM     29  C   LIG    1       23.681 -13.301   3.595  0.00  0.00    +0.017 C 
ATOM     30  C   LIG    1       24.525 -13.409   4.864  0.00  0.00    +0.084 C 
ENDBRANCH  25  26
ENDBRANCH  24  25
ENDBRANCH  23  24
ENDBRANCH  20  23
ENDBRANCH   7  17
BRANCH   1  31
ATOM     31  O   LIG    1       20.415 -18.426   5.096  0.00  0.00    -0.507 OA
ATOM     32  H   LIG    1       20.394 -19.311   5.498  0.00  0.00    +0.292 HD
ENDBRANCH   1  31
TORSDOF 7
ENDMDL
