MODEL 1
REMARK VINA RESULT:      -3.3      0.000      0.000
REMARK  Name = *****
REMARK                            x       y       z     vdW  Elec       q    Type
REMARK                         _______ _______ _______ _____ _____    ______ ____
ROOT
ATOM      1  C   LIG    1       23.576 -19.780   4.159  0.00  0.00    +0.119 C 
ATOM      2  N   LIG    1       24.487 -18.825   3.480  0.00  0.00    -0.330 N 
ATOM      3  H   LIG    1       25.477 -19.071   3.457  0.00  0.00    +0.147 HD
ATOM      4  C   LIG    1       24.300 -17.452   3.694  0.00  0.00    +0.133 C 
ATOM      5  C   LIG    1       23.171 -16.915   4.228  0.00  0.00    +0.149 C 
ATOM      6  N   LIG    1       23.021 -15.578   4.487  0.00  0.00    -0.199 NA
ATOM      7  C   LIG    1       24.019 -14.789   4.248  0.00  0.00    +0.195 C 
ATOM      8  N   LIG    1       25.186 -15.210   3.698  0.00  0.00    -0.294 N 
ATOM      9  H   LIG    1       25.957 -14.577   3.572  0.00  0.00    +0.172 HD
ATOM     10  N   LIG    1       22.143 -17.793   4.613  0.00  0.00    -0.326 N 
ATOM     11  H   LIG    1       21.252 -17.303   4.567  0.00  0.00    +0.148 HD
ATOM     12  C   LIG    1       25.425 -16.518   3.402  0.00  0.00    +0.276 C 
ATOM     13  O   LIG    1       26.499 -16.907   2.958  0.00  0.00    -0.266 OA
ATOM     14  C   LIG    1       22.138 -19.179   4.105  0.00  0.00    +0.128 C 
ENDROOT
BRANCH   7  15
ATOM     15  N   LIG    1       23.933 -13.470   4.546  0.00  0.00    -0.329 N 
ATOM     16  H   LIG    1       24.341 -13.165   5.418  0.00  0.00    +0.145 HD
ATOM     17  H   LIG    1       24.176 -12.882   3.756  0.00  0.00    +0.145 HD
ENDBRANCH   7  15
BRANCH   1  18
ATOM     18  C   LIG    1       24.089 -20.079   5.608  0.00  0.00    +0.164 C 
BRANCH  18  20
ATOM     19  C   LIG    1       25.878 -21.148   7.062  0.00  0.00    +0.040 C 
ATOM     20  C   LIG    1       25.331 -20.993   5.640  0.00  0.00    +0.142 C 
BRANCH  20  21
ATOM     21  O   LIG    1       26.343 -20.464   4.782  0.00  0.00    -0.389 OA
ATOM     22  H   LIG    1       27.117 -20.229   5.323  0.00  0.00    +0.210 HD
ENDBRANCH  20  21
ENDBRANCH  18  20
BRANCH  18  23
ATOM     23  O   LIG    1       23.092 -20.636   6.476  0.00  0.00    -0.387 OA
ATOM     24  H   LIG    1       23.360 -20.439   7.398  0.00  0.00    +0.210 HD
ENDBRANCH  18  23
ENDBRANCH   1  18
TORSDOF 5
ENDMDL
MODEL 2
REMARK VINA RESULT:      -3.1      3.171      4.381
REMARK  Name = *****
REMARK                            x       y       z     vdW  Elec       q    Type
REMARK                         _______ _______ _______ _____ _____    ______ ____
ROOT
ATOM      1  C   LIG    1       24.090 -20.532   3.927  0.00  0.00    +0.119 C 
ATOM      2  N   LIG    1       25.251 -21.071   4.678  0.00  0.00    -0.330 N 
ATOM      3  H   LIG    1       25.044 -21.633   5.503  0.00  0.00    +0.147 HD
ATOM      4  C   LIG    1       26.362 -20.241   4.882  0.00  0.00    +0.133 C 
ATOM      5  C   LIG    1       26.586 -19.091   4.194  0.00  0.00    +0.149 C 
ATOM      6  N   LIG    1       27.644 -18.257   4.442  0.00  0.00    -0.199 NA
ATOM      7  C   LIG    1       28.451 -18.557   5.407  0.00  0.00    +0.195 C 
ATOM      8  N   LIG    1       28.337 -19.688   6.149  0.00  0.00    -0.294 N 
ATOM      9  H   LIG    1       28.954 -19.864   6.923  0.00  0.00    +0.172 HD
ATOM     10  N   LIG    1       25.631 -18.699   3.239  0.00  0.00    -0.326 N 
ATOM     11  H   LIG    1       26.086 -18.133   2.526  0.00  0.00    +0.148 HD
ATOM     12  C   LIG    1       27.323 -20.579   5.972  0.00  0.00    +0.276 C 
ATOM     13  O   LIG    1       27.187 -21.571   6.678  0.00  0.00    -0.266 OA
ATOM     14  C   LIG    1       24.647 -19.682   2.744  0.00  0.00    +0.128 C 
ENDROOT
BRANCH   7  15
ATOM     15  N   LIG    1       29.475 -17.728   5.724  0.00  0.00    -0.329 N 
ATOM     16  H   LIG    1       29.933 -17.247   4.963  0.00  0.00    +0.145 HD
ATOM     17  H   LIG    1       29.252 -17.126   6.509  0.00  0.00    +0.145 HD
ENDBRANCH   7  15
BRANCH   1  18
ATOM     18  C   LIG    1       23.144 -19.741   4.892  0.00  0.00    +0.164 C 
BRANCH  18  20
ATOM     19  C   LIG    1       23.088 -21.433   6.786  0.00  0.00    +0.040 C 
ATOM     20  C   LIG    1       22.257 -20.654   5.763  0.00  0.00    +0.142 C 
BRANCH  20  21
ATOM     21  O   LIG    1       21.532 -21.560   4.930  0.00  0.00    -0.389 OA
ATOM     22  H   LIG    1       22.106 -21.831   4.192  0.00  0.00    +0.210 HD
ENDBRANCH  20  21
ENDBRANCH  18  20
BRANCH  18  23
ATOM     23  O   LIG    1       22.302 -18.787   4.229  0.00  0.00    -0.387 OA
ATOM     24  H   LIG    1       22.635 -18.684   3.313  0.00  0.00    +0.210 HD
ENDBRANCH  18  23
ENDBRANCH   1  18
TORSDOF 5
ENDMDL
MODEL 3
REMARK VINA RESULT:      -3.1      3.011      6.199
REMARK  Name = *****
REMARK                            x       y       z     vdW  Elec       q    Type
REMARK                         _______ _______ _______ _____ _____    ______ ____
ROOT
ATOM      1  C   LIG    1       25.931 -14.507   3.183  0.00  0.00    +0.119 C 
ATOM      2  N   LIG    1       25.541 -15.912   2.907  0.00  0.00    -0.330 N 
ATOM      3  H   LIG    1       24.542 -16.119   2.904  0.00  0.00    +0.147 HD
ATOM      4  C   LIG    1       26.282 -16.943   3.502  0.00  0.00    +0.133 C 
ATOM      5  C   LIG    1       27.507 -16.768   4.064  0.00  0.00    +0.149 C 
ATOM      6  N   LIG    1       28.197 -17.771   4.694  0.00  0.00    -0.199 NA
ATOM      7  C   LIG    1       27.639 -18.933   4.795  0.00  0.00    +0.195 C 
ATOM      8  N   LIG    1       26.428 -19.227   4.256  0.00  0.00    -0.294 N 
ATOM      9  H   LIG    1       26.004 -20.128   4.396  0.00  0.00    +0.172 HD
ATOM     10  N   LIG    1       28.048 -15.471   4.073  0.00  0.00    -0.326 N 
ATOM     11  H   LIG    1       29.064 -15.534   4.093  0.00  0.00    +0.148 HD
ATOM     12  C   LIG    1       25.673 -18.299   3.607  0.00  0.00    +0.276 C 
ATOM     13  O   LIG    1       24.555 -18.550   3.169  0.00  0.00    -0.266 OA
ATOM     14  C   LIG    1       27.489 -14.440   3.177  0.00  0.00    +0.128 C 
ENDROOT
BRANCH   7  15
ATOM     15  N   LIG    1       28.262 -19.934   5.463  0.00  0.00    -0.329 N 
ATOM     16  H   LIG    1       28.467 -20.777   4.946  0.00  0.00    +0.145 HD
ATOM     17  H   LIG    1       29.043 -19.598   6.016  0.00  0.00    +0.145 HD
ENDBRANCH   7  15
BRANCH   1  18
ATOM     18  C   LIG    1       25.276 -14.016   4.518  0.00  0.00    +0.164 C 
BRANCH  18  20
ATOM     19  C   LIG    1       24.125 -12.452   2.878  0.00  0.00    +0.040 C 
ATOM     20  C   LIG    1       24.117 -13.021   4.300  0.00  0.00    +0.142 C 
BRANCH  20  21
ATOM     21  O   LIG    1       24.208 -11.959   5.251  0.00  0.00    -0.389 OA
ATOM     22  H   LIG    1       25.119 -11.617   5.249  0.00  0.00    +0.210 HD
ENDBRANCH  20  21
ENDBRANCH  18  20
BRANCH  18  23
ATOM     23  O   LIG    1       26.205 -13.437   5.445  0.00  0.00    -0.387 OA
ATOM     24  H   LIG    1       25.869 -13.613   6.349  0.00  0.00    +0.210 HD
ENDBRANCH  18  23
ENDBRANCH   1  18
TORSDOF 5
ENDMDL
MODEL 4
REMARK VINA RESULT:      -2.1      2.643      3.384
REMARK  Name = *****
REMARK                            x       y       z     vdW  Elec       q    Type
REMARK                         _______ _______ _______ _____ _____    ______ ____
ROOT
ATOM      1  C   LIG    1       24.695 -21.468   4.838  0.00  0.00    +0.119 C 
ATOM      2  N   LIG    1       26.110 -21.022   4.877  0.00  0.00    -0.330 N 
ATOM      3  H   LIG    1       26.652 -21.285   5.700  0.00  0.00    +0.147 HD
ATOM      4  C   LIG    1       26.415 -19.722   4.449  0.00  0.00    +0.133 C 
ATOM      5  C   LIG    1       25.570 -18.946   3.722  0.00  0.00    +0.149 C 
ATOM      6  N   LIG    1       25.856 -17.655   3.358  0.00  0.00    -0.199 NA
ATOM      7  C   LIG    1       26.969 -17.135   3.762  0.00  0.00    +0.195 C 
ATOM      8  N   LIG    1       27.896 -17.821   4.477  0.00  0.00    -0.294 N 
ATOM      9  H   LIG    1       28.729 -17.368   4.814  0.00  0.00    +0.172 HD
ATOM     10  N   LIG    1       24.305 -19.469   3.404  0.00  0.00    -0.326 N 
ATOM     11  H   LIG    1       23.971 -19.034   2.546  0.00  0.00    +0.148 HD
ATOM     12  C   LIG    1       27.704 -19.108   4.878  0.00  0.00    +0.276 C 
ATOM     13  O   LIG    1       28.517 -19.710   5.571  0.00  0.00    -0.266 OA
ATOM     14  C   LIG    1       24.064 -20.920   3.521  0.00  0.00    +0.128 C 
ENDROOT
BRANCH   7  15
ATOM     15  N   LIG    1       27.262 -15.843   3.476  0.00  0.00    -0.329 N 
ATOM     16  H   LIG    1       28.215 -15.541   3.620  0.00  0.00    +0.145 HD
ATOM     17  H   LIG    1       26.875 -15.551   2.585  0.00  0.00    +0.145 HD
ENDBRANCH   7  15
BRANCH   1  18
ATOM     18  C   LIG    1       23.949 -21.017   6.139  0.00  0.00    +0.164 C 
BRANCH  18  20
ATOM     19  C   LIG    1       21.794 -21.454   4.866  0.00  0.00    +0.040 C 
ATOM     20  C   LIG    1       22.500 -20.553   5.883  0.00  0.00    +0.142 C 
BRANCH  20  21
ATOM     21  O   LIG    1       22.501 -19.201   5.421  0.00  0.00    -0.389 OA
ATOM     22  H   LIG    1       23.406 -18.965   5.153  0.00  0.00    +0.210 HD
ENDBRANCH  20  21
ENDBRANCH  18  20
BRANCH  18  23
ATOM     23  O   LIG    1       24.631 -19.993   6.876  0.00  0.00    -0.387 OA
ATOM     24  H   LIG    1       25.526 -19.894   6.487  0.00  0.00    +0.210 HD
ENDBRANCH  18  23
ENDBRANCH   1  18
TORSDOF 5
ENDMDL
MODEL 5
REMARK VINA RESULT:      -2.0      2.897      5.949
REMARK  Name = *****
REMARK                            x       y       z     vdW  Elec       q    Type
REMARK                         _______ _______ _______ _____ _____    ______ ____
ROOT
ATOM      1  C   LIG    1       26.220 -15.098   3.274  0.00  0.00    +0.119 C 
ATOM      2  N   LIG    1       25.804 -16.493   2.988  0.00  0.00    -0.330 N 
ATOM      3  H   LIG    1       24.803 -16.662   2.885  0.00  0.00    +0.147 HD
ATOM      4  C   LIG    1       26.436 -17.537   3.678  0.00  0.00    +0.133 C 
ATOM      5  C   LIG    1       27.602 -17.396   4.363  0.00  0.00    +0.149 C 
ATOM      6  N   LIG    1       28.182 -18.407   5.083  0.00  0.00    -0.199 NA
ATOM      7  C   LIG    1       27.568 -19.545   5.148  0.00  0.00    +0.195 C 
ATOM      8  N   LIG    1       26.410 -19.806   4.491  0.00  0.00    -0.294 N 
ATOM      9  H   LIG    1       25.937 -20.686   4.605  0.00  0.00    +0.172 HD
ATOM     10  N   LIG    1       28.192 -16.120   4.402  0.00  0.00    -0.326 N 
ATOM     11  H   LIG    1       29.196 -16.222   4.529  0.00  0.00    +0.148 HD
ATOM     12  C   LIG    1       25.764 -18.866   3.747  0.00  0.00    +0.276 C 
ATOM     13  O   LIG    1       24.689 -19.084   3.200  0.00  0.00    -0.266 OA
ATOM     14  C   LIG    1       27.771 -15.091   3.431  0.00  0.00    +0.128 C 
ENDROOT
BRANCH   7  15
ATOM     15  N   LIG    1       28.078 -20.552   5.898  0.00  0.00    -0.329 N 
ATOM     16  H   LIG    1       28.934 -20.980   5.578  0.00  0.00    +0.145 HD
ATOM     17  H   LIG    1       28.081 -20.329   6.888  0.00  0.00    +0.145 HD
ENDBRANCH   7  15
BRANCH   1  18
ATOM     18  C   LIG    1       25.450 -14.549   4.523  0.00  0.00    +0.164 C 
BRANCH  18  20
ATOM     19  C   LIG    1       23.920 -12.529   4.713  0.00  0.00    +0.040 C 
ATOM     20  C   LIG    1       24.068 -13.956   4.177  0.00  0.00    +0.142 C 
BRANCH  20  21
ATOM     21  O   LIG    1       23.038 -14.788   4.710  0.00  0.00    -0.389 OA
ATOM     22  H   LIG    1       22.185 -14.507   4.334  0.00  0.00    +0.210 HD
ENDBRANCH  20  21
ENDBRANCH  18  20
BRANCH  18  23
ATOM     23  O   LIG    1       26.185 -13.578   5.281  0.00  0.00    -0.387 OA
ATOM     24  H   LIG    1       27.124 -13.860   5.290  0.00  0.00    +0.210 HD
ENDBRANCH  18  23
ENDBRANCH   1  18
TORSDOF 5
ENDMDL
MODEL 6
REMARK VINA RESULT:      -0.9      3.154      6.109
REMARK  Name = *****
REMARK                            x       y       z     vdW  Elec       q    Type
REMARK                         _______ _______ _______ _____ _____    ______ ____
ROOT
ATOM      1  C   LIG    1       26.064 -13.045   3.598  0.00  0.00    +0.119 C 
ATOM      2  N   LIG    1       24.765 -13.718   3.848  0.00  0.00    -0.330 N 
ATOM      3  H   LIG    1       24.213 -13.373   4.633  0.00  0.00    +0.147 HD
ATOM      4  C   LIG    1       24.702 -15.114   3.743  0.00  0.00    +0.133 C 
ATOM      5  C   LIG    1       25.654 -15.873   3.140  0.00  0.00    +0.149 C 
ATOM      6  N   LIG    1       25.611 -17.242   3.094  0.00  0.00    -0.199 NA
ATOM      7  C   LIG    1       24.635 -17.847   3.690  0.00  0.00    +0.195 C 
ATOM      8  N   LIG    1       23.619 -17.192   4.308  0.00  0.00    -0.294 N 
ATOM      9  H   LIG    1       22.903 -17.697   4.802  0.00  0.00    +0.172 HD
ATOM     10  N   LIG    1       26.782 -15.218   2.615  0.00  0.00    -0.326 N 
ATOM     11  H   LIG    1       27.162 -15.772   1.850  0.00  0.00    +0.148 HD
ATOM     12  C   LIG    1       23.573 -15.835   4.398  0.00  0.00    +0.276 C 
ATOM     13  O   LIG    1       22.685 -15.245   5.004  0.00  0.00    -0.266 OA
ATOM     14  C   LIG    1       26.741 -13.760   2.389  0.00  0.00    +0.128 C 
ENDROOT
BRANCH   7  15
ATOM     15  N   LIG    1       24.588 -19.201   3.720  0.00  0.00    -0.329 N 
ATOM     16  H   LIG    1       23.677 -19.631   3.791  0.00  0.00    +0.145 HD
ATOM     17  H   LIG    1       25.180 -19.621   3.011  0.00  0.00    +0.145 HD
ENDBRANCH   7  15
BRANCH   1  18
ATOM     18  C   LIG    1       26.930 -13.041   4.903  0.00  0.00    +0.164 C 
BRANCH  18  20
ATOM     19  C   LIG    1       29.219 -12.969   3.802  0.00  0.00    +0.040 C 
ATOM     20  C   LIG    1       28.253 -12.261   4.756  0.00  0.00    +0.142 C 
BRANCH  20  21
ATOM     21  O   LIG    1       28.863 -12.098   6.037  0.00  0.00    -0.389 OA
ATOM     22  H   LIG    1       28.161 -12.025   6.708  0.00  0.00    +0.210 HD
ENDBRANCH  20  21
ENDBRANCH  18  20
BRANCH  18  23
ATOM     23  O   LIG    1       27.227 -14.349   5.410  0.00  0.00    -0.387 OA
ATOM     24  H   LIG    1       27.469 -14.914   4.646  0.00  0.00    +0.210 HD
ENDBRANCH  18  23
ENDBRANCH   1  18
TORSDOF 5
ENDMDL
MODEL 7
REMARK VINA RESULT:      -0.8      2.599      5.397
REMARK  Name = *****
REMARK                            x       y       z     vdW  Elec       q    Type
REMARK                         _______ _______ _______ _____ _____    ______ ____
ROOT
ATOM      1  C   LIG    1       23.957 -18.610   3.491  0.00  0.00    +0.119 C 
ATOM      2  N   LIG    1       23.996 -19.790   4.390  0.00  0.00    -0.330 N 
ATOM      3  H   LIG    1       23.203 -19.914   5.020  0.00  0.00    +0.147 HD
ATOM      4  C   LIG    1       25.208 -20.120   5.013  0.00  0.00    +0.133 C 
ATOM      5  C   LIG    1       26.415 -19.630   4.627  0.00  0.00    +0.149 C 
ATOM      6  N   LIG    1       27.587 -19.913   5.279  0.00  0.00    -0.199 NA
ATOM      7  C   LIG    1       27.538 -20.651   6.341  0.00  0.00    +0.195 C 
ATOM      8  N   LIG    1       26.392 -21.209   6.807  0.00  0.00    -0.294 N 
ATOM      9  H   LIG    1       26.385 -21.738   7.663  0.00  0.00    +0.172 HD
ATOM     10  N   LIG    1       26.445 -18.719   3.558  0.00  0.00    -0.326 N 
ATOM     11  H   LIG    1       27.351 -18.776   3.097  0.00  0.00    +0.148 HD
ATOM     12  C   LIG    1       25.182 -20.991   6.223  0.00  0.00    +0.276 C 
ATOM     13  O   LIG    1       24.139 -21.449   6.677  0.00  0.00    -0.266 OA
ATOM     14  C   LIG    1       25.278 -18.606   2.661  0.00  0.00    +0.128 C 
ENDROOT
BRANCH   7  15
ATOM     15  N   LIG    1       28.665 -20.905   7.049  0.00  0.00    -0.329 N 
ATOM     16  H   LIG    1       28.600 -21.583   7.794  0.00  0.00    +0.145 HD
ATOM     17  H   LIG    1       29.472 -21.037   6.449  0.00  0.00    +0.145 HD
ENDBRANCH   7  15
BRANCH   1  18
ATOM     18  C   LIG    1       23.722 -17.304   4.322  0.00  0.00    +0.164 C 
BRANCH  18  20
ATOM     19  C   LIG    1       21.982 -15.963   5.599  0.00  0.00    +0.040 C 
ATOM     20  C   LIG    1       22.237 -16.896   4.412  0.00  0.00    +0.142 C 
BRANCH  20  21
ATOM     21  O   LIG    1       21.421 -18.063   4.523  0.00  0.00    -0.389 OA
ATOM     22  H   LIG    1       21.917 -18.744   5.011  0.00  0.00    +0.210 HD
ENDBRANCH  20  21
ENDBRANCH  18  20
BRANCH  18  23
ATOM     23  O   LIG    1       24.477 -16.176   3.861  0.00  0.00    -0.387 OA
ATOM     24  H   LIG    1       25.385 -16.261   4.219  0.00  0.00    +0.210 HD
ENDBRANCH  18  23
ENDBRANCH   1  18
TORSDOF 5
ENDMDL
MODEL 8
REMARK VINA RESULT:      -0.6      2.037      3.248
REMARK  Name = *****
REMARK                            x       y       z     vdW  Elec       q    Type
REMARK                         _______ _______ _______ _____ _____    ______ ____
ROOT
ATOM      1  C   LIG    1       26.618 -20.504   4.647  0.00  0.00    +0.119 C 
ATOM      2  N   LIG    1       26.208 -19.267   3.938  0.00  0.00    -0.330 N 
ATOM      3  H   LIG    1       26.833 -18.464   4.017  0.00  0.00    +0.147 HD
ATOM      4  C   LIG    1       24.861 -18.881   3.986  0.00  0.00    +0.133 C 
ATOM      5  C   LIG    1       23.851 -19.704   4.371  0.00  0.00    +0.149 C 
ATOM      6  N   LIG    1       22.545 -19.300   4.470  0.00  0.00    -0.199 NA
ATOM      7  C   LIG    1       22.264 -18.061   4.222  0.00  0.00    +0.195 C 
ATOM      8  N   LIG    1       23.187 -17.156   3.811  0.00  0.00    -0.294 N 
ATOM      9  H   LIG    1       22.940 -16.190   3.675  0.00  0.00    +0.172 HD
ATOM     10  N   LIG    1       24.182 -21.010   4.772  0.00  0.00    -0.326 N 
ATOM     11  H   LIG    1       23.385 -21.621   4.606  0.00  0.00    +0.148 HD
ATOM     12  C   LIG    1       24.506 -17.466   3.679  0.00  0.00    +0.276 C 
ATOM     13  O   LIG    1       25.350 -16.634   3.362  0.00  0.00    -0.266 OA
ATOM     14  C   LIG    1       25.502 -21.569   4.420  0.00  0.00    +0.128 C 
ENDROOT
BRANCH   7  15
ATOM     15  N   LIG    1       20.995 -17.608   4.366  0.00  0.00    -0.329 N 
ATOM     16  H   LIG    1       20.247 -18.271   4.221  0.00  0.00    +0.145 HD
ATOM     17  H   LIG    1       20.881 -17.045   5.202  0.00  0.00    +0.145 HD
ENDBRANCH   7  15
BRANCH   1  18
ATOM     18  C   LIG    1       26.906 -20.194   6.155  0.00  0.00    +0.164 C 
BRANCH  18  20
ATOM     19  C   LIG    1       29.040 -18.981   5.497  0.00  0.00    +0.040 C 
ATOM     20  C   LIG    1       28.404 -19.987   6.461  0.00  0.00    +0.142 C 
BRANCH  20  21
ATOM     21  O   LIG    1       29.090 -21.238   6.384  0.00  0.00    -0.389 OA
ATOM     22  H   LIG    1       29.176 -21.601   7.283  0.00  0.00    +0.210 HD
ENDBRANCH  20  21
ENDBRANCH  18  20
BRANCH  18  23
ATOM     23  O   LIG    1       26.388 -21.176   7.062  0.00  0.00    -0.387 OA
ATOM     24  H   LIG    1       27.152 -21.641   7.463  0.00  0.00    +0.210 HD
ENDBRANCH  18  23
ENDBRANCH   1  18
TORSDOF 5
ENDMDL
MODEL 9
REMARK VINA RESULT:      -0.4      2.964      5.496
REMARK  Name = *****
REMARK                            x       y       z     vdW  Elec       q    Type
REMARK                         _______ _______ _______ _____ _____    ______ ____
ROOT
ATOM      1  C   LIG    1       25.571 -15.696   3.187  0.00  0.00    +0.119 C 
ATOM      2  N   LIG    1       25.643 -17.178   3.126  0.00  0.00    -0.330 N 
ATOM      3  H   LIG    1       24.757 -17.682   3.161  0.00  0.00    +0.147 HD
ATOM      4  C   LIG    1       26.641 -17.832   3.862  0.00  0.00    +0.133 C 
ATOM      5  C   LIG    1       27.730 -17.208   4.383  0.00  0.00    +0.149 C 
ATOM      6  N   LIG    1       28.670 -17.845   5.150  0.00  0.00    -0.199 NA
ATOM      7  C   LIG    1       28.492 -19.097   5.426  0.00  0.00    +0.195 C 
ATOM      8  N   LIG    1       27.453 -19.825   4.946  0.00  0.00    -0.294 N 
ATOM      9  H   LIG    1       27.322 -20.784   5.221  0.00  0.00    +0.172 HD
ATOM     10  N   LIG    1       27.846 -15.819   4.195  0.00  0.00    -0.326 N 
ATOM     11  H   LIG    1       28.830 -15.561   4.216  0.00  0.00    +0.148 HD
ATOM     12  C   LIG    1       26.475 -19.280   4.172  0.00  0.00    +0.276 C 
ATOM     13  O   LIG    1       25.506 -19.925   3.784  0.00  0.00    -0.266 OA
ATOM     14  C   LIG    1       27.032 -15.152   3.160  0.00  0.00    +0.128 C 
ENDROOT
BRANCH   7  15
ATOM     15  N   LIG    1       29.367 -19.748   6.230  0.00  0.00    -0.329 N 
ATOM     16  H   LIG    1       30.278 -19.332   6.357  0.00  0.00    +0.145 HD
ATOM     17  H   LIG    1       28.937 -20.054   7.097  0.00  0.00    +0.145 HD
ENDBRANCH   7  15
BRANCH   1  18
ATOM     18  C   LIG    1       24.745 -15.247   4.439  0.00  0.00    +0.164 C 
BRANCH  18  20
ATOM     19  C   LIG    1       22.471 -15.095   5.564  0.00  0.00    +0.040 C 
ATOM     20  C   LIG    1       23.243 -15.582   4.334  0.00  0.00    +0.142 C 
BRANCH  20  21
ATOM     21  O   LIG    1       23.073 -16.991   4.177  0.00  0.00    -0.389 OA
ATOM     22  H   LIG    1       22.224 -17.248   4.578  0.00  0.00    +0.210 HD
ENDBRANCH  20  21
ENDBRANCH  18  20
BRANCH  18  23
ATOM     23  O   LIG    1       24.879 -13.854   4.757  0.00  0.00    -0.387 OA
ATOM     24  H   LIG    1       25.330 -13.791   5.625  0.00  0.00    +0.210 HD
ENDBRANCH  18  23
ENDBRANCH   1  18
TORSDOF 5
ENDMDL
