MODEL 1
REMARK VINA RESULT:       1.1      0.000      0.000
REMARK  Name = *****
REMARK                            x       y       z     vdW  Elec       q    Type
REMARK                         _______ _______ _______ _____ _____    ______ ____
ROOT
ATOM      1  C   LIG    1       22.589 -18.035   5.654  0.00  0.00    +0.085 C 
ENDROOT
BRANCH   1   2
ATOM      2  N   LIG    1       21.750 -16.958   5.103  0.00  0.00    -0.299 NA
ATOM      3  C   LIG    1       21.983 -15.632   5.726  0.00  0.00    +0.103 C 
ATOM      4  C   LIG    1       23.354 -14.993   5.395  0.00  0.00    +0.120 C 
ATOM      5  N   LIG    1       23.466 -14.848   3.926  0.00  0.00    -0.326 N 
ATOM      6  C   LIG    1       23.308 -16.143   3.228  0.00  0.00    +0.120 C 
ATOM      7  C   LIG    1       21.970 -16.815   3.638  0.00  0.00    +0.103 C 
BRANCH   5   8
ATOM      8  C   LIG    1       24.347 -13.879   3.426  0.00  0.00    +0.050 A 
ATOM      9  C   LIG    1       25.763 -14.047   3.411  0.00  0.00    +0.080 A 
ATOM     10 CL   LIG    1       26.493 -15.482   4.084  0.00  0.00    -0.080 Cl
ATOM     11  C   LIG    1       26.607 -13.021   2.935  0.00  0.00    +0.061 A 
ATOM     12 CL   LIG    1       28.334 -13.170   2.876  0.00  0.00    -0.082 Cl
ATOM     13  C   LIG    1       26.073 -11.810   2.494  0.00  0.00    +0.021 A 
ATOM     14  C   LIG    1       24.699 -11.619   2.516  0.00  0.00    +0.003 A 
ATOM     15  C   LIG    1       23.856 -12.639   2.970  0.00  0.00    +0.025 A 
ENDBRANCH   5   8
ENDBRANCH   1   2
BRANCH   1  16
ATOM     16  C   LIG    1       22.906 -19.134   4.627  0.00  0.00    +0.019 C 
BRANCH  16  20
ATOM     17  C   LIG    1       25.371 -21.468   6.149  0.00  0.00    +0.074 C 
ATOM     18  C   LIG    1       25.051 -21.405   4.651  0.00  0.00    +0.022 C 
ATOM     19  C   LIG    1       23.557 -21.571   4.378  0.00  0.00    +0.005 C 
ATOM     20  C   LIG    1       22.699 -20.566   5.166  0.00  0.00    -0.010 C 
ATOM     21  C   LIG    1       23.005 -20.710   6.663  0.00  0.00    +0.005 C 
ATOM     22  C   LIG    1       24.489 -20.516   6.973  0.00  0.00    +0.022 C 
BRANCH  17  26
ATOM     23  C   LIG    1       29.383 -18.714   5.567  0.00  0.00    +0.133 C 
ATOM     24  N   LIG    1       28.719 -19.904   6.077  0.00  0.00    -0.292 N 
ATOM     25  C   LIG    1       27.374 -20.076   5.773  0.00  0.00    +0.302 C 
ATOM     26  N   LIG    1       26.785 -21.177   6.350  0.00  0.00    -0.296 N 
ATOM     27  H   LIG    1       27.379 -21.970   6.491  0.00  0.00    +0.150 HD
ATOM     28  O   LIG    1       26.741 -19.298   5.077  0.00  0.00    -0.253 OA
ATOM     29  C   LIG    1       29.467 -20.668   7.061  0.00  0.00    +0.133 C 
ENDBRANCH  17  26
ENDBRANCH  16  20
ENDBRANCH   1  16
TORSDOF 5
ENDMDL
MODEL 2
REMARK VINA RESULT:       4.1      2.558      6.462
REMARK  Name = *****
REMARK                            x       y       z     vdW  Elec       q    Type
REMARK                         _______ _______ _______ _____ _____    ______ ____
ROOT
ATOM      1  C   LIG    1       26.094 -12.703   3.764  0.00  0.00    +0.085 C 
ENDROOT
BRANCH   1   2
ATOM      2  N   LIG    1       27.151 -13.338   2.959  0.00  0.00    -0.299 NA
ATOM      3  C   LIG    1       28.340 -13.753   3.743  0.00  0.00    +0.103 C 
ATOM      4  C   LIG    1       28.096 -14.941   4.706  0.00  0.00    +0.120 C 
ATOM      5  N   LIG    1       27.624 -16.101   3.917  0.00  0.00    -0.326 N 
ATOM      6  C   LIG    1       26.398 -15.788   3.150  0.00  0.00    +0.120 C 
ATOM      7  C   LIG    1       26.629 -14.540   2.255  0.00  0.00    +0.103 C 
BRANCH   5   8
ATOM      8  C   LIG    1       27.813 -17.382   4.455  0.00  0.00    +0.050 A 
ATOM      9  C   LIG    1       26.854 -18.430   4.329  0.00  0.00    +0.080 A 
ATOM     10 CL   LIG    1       25.331 -18.145   3.527  0.00  0.00    -0.080 Cl
ATOM     11  C   LIG    1       27.077 -19.689   4.926  0.00  0.00    +0.061 A 
ATOM     12 CL   LIG    1       25.957 -21.007   4.797  0.00  0.00    -0.082 Cl
ATOM     13  C   LIG    1       28.230 -19.925   5.674  0.00  0.00    +0.021 A 
ATOM     14  C   LIG    1       29.168 -18.914   5.824  0.00  0.00    +0.003 A 
ATOM     15  C   LIG    1       28.962 -17.670   5.220  0.00  0.00    +0.025 A 
ENDBRANCH   5   8
ENDBRANCH   1   2
BRANCH   1  16
ATOM     16  C   LIG    1       25.200 -13.721   4.490  0.00  0.00    +0.019 C 
BRANCH  16  20
ATOM     17  C   LIG    1       22.365 -16.097   4.874  0.00  0.00    +0.074 C 
ATOM     18  C   LIG    1       23.140 -15.882   3.570  0.00  0.00    +0.022 C 
ATOM     19  C   LIG    1       23.160 -14.413   3.152  0.00  0.00    +0.005 C 
ATOM     20  C   LIG    1       23.690 -13.492   4.266  0.00  0.00    -0.010 C 
ATOM     21  C   LIG    1       22.843 -13.694   5.530  0.00  0.00    +0.005 C 
ATOM     22  C   LIG    1       22.830 -15.151   5.993  0.00  0.00    +0.022 C 
BRANCH  17  26
ATOM     23  C   LIG    1       21.526 -20.895   4.329  0.00  0.00    +0.133 C 
ATOM     24  N   LIG    1       22.094 -19.778   5.068  0.00  0.00    -0.292 N 
ATOM     25  C   LIG    1       21.861 -18.496   4.587  0.00  0.00    +0.302 C 
ATOM     26  N   LIG    1       22.490 -17.491   5.283  0.00  0.00    -0.296 N 
ATOM     27  H   LIG    1       22.619 -17.649   6.264  0.00  0.00    +0.150 HD
ATOM     28  O   LIG    1       21.181 -18.267   3.600  0.00  0.00    -0.253 OA
ATOM     29  C   LIG    1       23.057 -20.131   6.098  0.00  0.00    +0.133 C 
ENDBRANCH  17  26
ENDBRANCH  16  20
ENDBRANCH   1  16
TORSDOF 5
ENDMDL
