MODEL 1
REMARK VINA RESULT:      -9.1      0.000      0.000
REMARK  Name = *****
REMARK                            x       y       z     vdW  Elec       q    Type
REMARK                         _______ _______ _______ _____ _____    ______ ____
ROOT
ATOM      1  C   LIG    1       28.094 -20.012   6.584  0.00  0.00    +0.180 C 
ENDROOT
BRANCH   1   2
ATOM      2  C   LIG    1       27.380 -19.509   5.018  0.00  0.00    +0.090 C 
BRANCH   2   3
ATOM      3  C   LIG    1       25.588 -19.679   4.620  0.00  0.00    +0.194 C 
ATOM      4  C   LIG    1       24.128 -19.156   3.933  0.00  0.00    +0.138 C 
ATOM      5  C   LIG    1       24.084 -20.900   3.522  0.00  0.00    +0.314 C 
ATOM      6  O   LIG    1       23.634 -22.099   2.918  0.00  0.00    -0.250 OA
ATOM      7  O   LIG    1       25.301 -20.993   4.065  0.00  0.00    -0.460 OA
BRANCH   4   8
ATOM      8  C   LIG    1       22.725 -18.595   4.684  0.00  0.00    +0.018 C 
BRANCH   8   9
ATOM      9  C   LIG    1       22.234 -17.034   4.353  0.00  0.00    +0.001 C 
BRANCH   9  10
ATOM     10  C   LIG    1       22.910 -15.570   4.877  0.00  0.00    +0.000 C 
BRANCH  10  11
ATOM     11  C   LIG    1       23.674 -14.524   3.980  0.00  0.00    -0.000 C 
BRANCH  11  12
ATOM     12  C   LIG    1       25.209 -14.309   4.188  0.00  0.00    -0.003 C 
ATOM     13  C   LIG    1       26.115 -15.268   3.441  0.00  0.00    +0.004 C 
ENDBRANCH  11  12
ENDBRANCH  10  11
ENDBRANCH   9  10
ENDBRANCH   8   9
ENDBRANCH   4   8
ENDBRANCH   2   3
ENDBRANCH   1   2
BRANCH   1  14
ATOM     14  O   LIG    1       28.956 -18.950   7.056  0.00  0.00    -0.460 OA
BRANCH  14  15
ATOM     15  C   LIG    1       30.282 -19.254   7.102  0.00  0.00    +0.328 C 
ATOM     16  O   LIG    1       31.053 -19.217   6.137  0.00  0.00    -0.249 OA
BRANCH  15  17
ATOM     17  C   LIG    1       30.705 -19.622   8.541  0.00  0.00    +0.182 C 
BRANCH  17  18
ATOM     18  N   LIG    1       31.330 -20.937   8.273  0.00  0.00    -0.305 N 
ATOM     19  H   LIG    1       32.019 -20.987   7.520  0.00  0.00    +0.149 HD
ATOM     20  C   LIG    1       31.339 -22.028   9.072  0.00  0.00    +0.326 C 
ATOM     21  O   LIG    1       30.825 -22.186  10.171  0.00  0.00    -0.280 OA
ENDBRANCH  17  18
BRANCH  17  22
ATOM     22  C   LIG    1       31.588 -18.631   9.427  0.00  0.00    +0.036 C 
BRANCH  22  23
ATOM     23  C   LIG    1       31.416 -17.026   9.633  0.00  0.00    -0.015 C 
ATOM     24  C   LIG    1       32.528 -15.943   9.578  0.00  0.00    +0.007 C 
ATOM     25  C   LIG    1       30.675 -16.746  10.925  0.00  0.00    +0.007 C 
ENDBRANCH  22  23
ENDBRANCH  17  22
ENDBRANCH  15  17
ENDBRANCH  14  15
ENDBRANCH   1  14
BRANCH   1  26
ATOM     26  C   LIG    1       27.121 -20.523   7.746  0.00  0.00    +0.045 C 
BRANCH  26  27
ATOM     27  C   LIG    1       25.903 -21.333   8.136  0.00  0.00    +0.003 C 
BRANCH  27  28
ATOM     28  C   LIG    1       24.638 -20.703   7.664  0.00  0.00    +0.000 C 
BRANCH  28  29
ATOM     29  C   LIG    1       23.334 -21.506   7.772  0.00  0.00    -0.000 C 
BRANCH  29  30
ATOM     30  C   LIG    1       23.205 -22.476   6.567  0.00  0.00    -0.000 C 
BRANCH  30  31
ATOM     31  C   LIG    1       23.636 -23.940   6.660  0.00  0.00    -0.000 C 
BRANCH  31  32
ATOM     32  C   LIG    1       24.995 -24.268   5.937  0.00  0.00    -0.000 C 
BRANCH  32  33
ATOM     33  C   LIG    1       25.936 -25.248   6.658  0.00  0.00    -0.000 C 
BRANCH  33  34
ATOM     34  C   LIG    1       26.333 -26.485   5.816  0.00  0.00    -0.000 C 
BRANCH  34  36
ATOM     35  C   LIG    1       24.380 -28.282   6.322  0.00  0.00    +0.004 C 
ATOM     36  C   LIG    1       25.283 -27.553   5.291  0.00  0.00    -0.003 C 
ENDBRANCH  34  36
ENDBRANCH  33  34
ENDBRANCH  32  33
ENDBRANCH  31  32
ENDBRANCH  30  31
ENDBRANCH  29  30
ENDBRANCH  28  29
ENDBRANCH  27  28
ENDBRANCH  26  27
ENDBRANCH   1  26
TORSDOF 23
ENDMDL
MODEL 2
REMARK VINA RESULT:      -8.8      3.262      7.828
REMARK  Name = *****
REMARK                            x       y       z     vdW  Elec       q    Type
REMARK                         _______ _______ _______ _____ _____    ______ ____
ROOT
ATOM      1  C   LIG    1       23.954 -24.045   6.860  0.00  0.00    +0.180 C 
ENDROOT
BRANCH   1   2
ATOM      2  C   LIG    1       22.842 -22.706   6.433  0.00  0.00    +0.090 C 
BRANCH   2   3
ATOM      3  C   LIG    1       23.386 -21.180   5.552  0.00  0.00    +0.194 C 
ATOM      4  C   LIG    1       24.151 -20.348   4.287  0.00  0.00    +0.138 C 
ATOM      5  C   LIG    1       22.684 -19.343   4.509  0.00  0.00    +0.314 C 
ATOM      6  O   LIG    1       21.724 -18.336   4.240  0.00  0.00    -0.250 OA
ATOM      7  O   LIG    1       22.286 -20.236   5.418  0.00  0.00    -0.460 OA
BRANCH   4   8
ATOM      8  C   LIG    1       25.590 -19.466   4.295  0.00  0.00    +0.018 C 
BRANCH   8   9
ATOM      9  C   LIG    1       25.678 -18.108   3.327  0.00  0.00    +0.001 C 
BRANCH   9  10
ATOM     10  C   LIG    1       26.653 -16.733   3.505  0.00  0.00    +0.000 C 
BRANCH  10  11
ATOM     11  C   LIG    1       26.254 -15.254   3.134  0.00  0.00    -0.000 C 
BRANCH  11  12
ATOM     12  C   LIG    1       25.565 -14.350   4.208  0.00  0.00    -0.003 C 
ATOM     13  C   LIG    1       24.051 -14.299   4.152  0.00  0.00    +0.004 C 
ENDBRANCH  11  12
ENDBRANCH  10  11
ENDBRANCH   9  10
ENDBRANCH   8   9
ENDBRANCH   4   8
ENDBRANCH   2   3
ENDBRANCH   1   2
BRANCH   1  14
ATOM     14  O   LIG    1       23.646 -25.182   6.019  0.00  0.00    -0.460 OA
BRANCH  14  15
ATOM     15  C   LIG    1       24.719 -25.927   5.633  0.00  0.00    +0.328 C 
ATOM     16  O   LIG    1       25.536 -25.601   4.767  0.00  0.00    -0.249 OA
BRANCH  15  17
ATOM     17  C   LIG    1       24.797 -27.231   6.458  0.00  0.00    +0.182 C 
BRANCH  17  18
ATOM     18  N   LIG    1       24.861 -28.207   5.346  0.00  0.00    -0.305 N 
ATOM     19  H   LIG    1       25.653 -28.142   4.706  0.00  0.00    +0.149 HD
ATOM     20  C   LIG    1       24.172 -29.365   5.221  0.00  0.00    +0.326 C 
ATOM     21  O   LIG    1       23.339 -29.854   5.971  0.00  0.00    -0.280 OA
ENDBRANCH  17  18
BRANCH  17  22
ATOM     22  C   LIG    1       25.905 -27.435   7.589  0.00  0.00    +0.036 C 
BRANCH  22  23
ATOM     23  C   LIG    1       26.130 -28.713   8.570  0.00  0.00    -0.015 C 
ATOM     24  C   LIG    1       25.090 -29.797   8.963  0.00  0.00    +0.007 C 
ATOM     25  C   LIG    1       26.720 -28.256   9.890  0.00  0.00    +0.007 C 
ENDBRANCH  22  23
ENDBRANCH  17  22
ENDBRANCH  15  17
ENDBRANCH  14  15
ENDBRANCH   1  14
BRANCH   1  26
ATOM     26  C   LIG    1       25.528 -23.762   6.891  0.00  0.00    +0.045 C 
BRANCH  26  27
ATOM     27  C   LIG    1       26.653 -22.809   7.234  0.00  0.00    +0.003 C 
BRANCH  27  28
ATOM     28  C   LIG    1       26.224 -21.763   8.204  0.00  0.00    +0.000 C 
BRANCH  28  29
ATOM     29  C   LIG    1       26.767 -20.337   8.033  0.00  0.00    -0.000 C 
BRANCH  29  30
ATOM     30  C   LIG    1       28.210 -20.382   7.462  0.00  0.00    -0.000 C 
BRANCH  30  31
ATOM     31  C   LIG    1       28.620 -19.557   6.241  0.00  0.00    -0.000 C 
BRANCH  31  32
ATOM     32  C   LIG    1       30.094 -19.006   6.291  0.00  0.00    -0.000 C 
BRANCH  32  33
ATOM     33  C   LIG    1       31.001 -19.573   7.396  0.00  0.00    -0.000 C 
BRANCH  33  34
ATOM     34  C   LIG    1       31.478 -18.523   8.429  0.00  0.00    -0.000 C 
BRANCH  34  36
ATOM     35  C   LIG    1       30.306 -17.534  10.653  0.00  0.00    +0.004 C 
ATOM     36  C   LIG    1       30.505 -17.473   9.115  0.00  0.00    -0.003 C 
ENDBRANCH  34  36
ENDBRANCH  33  34
ENDBRANCH  32  33
ENDBRANCH  31  32
ENDBRANCH  30  31
ENDBRANCH  29  30
ENDBRANCH  28  29
ENDBRANCH  27  28
ENDBRANCH  26  27
ENDBRANCH   1  26
TORSDOF 23
ENDMDL
MODEL 3
REMARK VINA RESULT:      -8.2      1.635      2.699
REMARK  Name = *****
REMARK                            x       y       z     vdW  Elec       q    Type
REMARK                         _______ _______ _______ _____ _____    ______ ____
ROOT
ATOM      1  C   LIG    1       26.682 -21.652   7.142  0.00  0.00    +0.180 C 
ENDROOT
BRANCH   1   2
ATOM      2  C   LIG    1       25.198 -20.679   7.400  0.00  0.00    +0.090 C 
BRANCH   2   3
ATOM      3  C   LIG    1       24.032 -20.232   6.044  0.00  0.00    +0.194 C 
ATOM      4  C   LIG    1       23.638 -19.896   4.429  0.00  0.00    +0.138 C 
ATOM      5  C   LIG    1       22.229 -20.891   4.915  0.00  0.00    +0.314 C 
ATOM      6  O   LIG    1       21.033 -21.637   4.776  0.00  0.00    -0.250 OA
ATOM      7  O   LIG    1       22.836 -21.060   6.092  0.00  0.00    -0.460 OA
BRANCH   4   8
ATOM      8  C   LIG    1       23.221 -18.429   3.705  0.00  0.00    +0.018 C 
BRANCH   8   9
ATOM      9  C   LIG    1       22.358 -17.327   4.617  0.00  0.00    +0.001 C 
BRANCH   9  10
ATOM     10  C   LIG    1       22.700 -15.695   4.922  0.00  0.00    +0.000 C 
BRANCH  10  11
ATOM     11  C   LIG    1       23.491 -14.717   3.972  0.00  0.00    -0.000 C 
BRANCH  11  12
ATOM     12  C   LIG    1       24.941 -14.276   4.357  0.00  0.00    -0.003 C 
ATOM     13  C   LIG    1       25.848 -13.918   3.197  0.00  0.00    +0.004 C 
ENDBRANCH  11  12
ENDBRANCH  10  11
ENDBRANCH   9  10
ENDBRANCH   8   9
ENDBRANCH   4   8
ENDBRANCH   2   3
ENDBRANCH   1   2
BRANCH   1  14
ATOM     14  O   LIG    1       27.745 -21.088   7.945  0.00  0.00    -0.460 OA
BRANCH  14  15
ATOM     15  C   LIG    1       28.734 -20.465   7.245  0.00  0.00    +0.328 C 
ATOM     16  O   LIG    1       28.761 -20.334   6.018  0.00  0.00    -0.249 OA
BRANCH  15  17
ATOM     17  C   LIG    1       29.808 -19.908   8.205  0.00  0.00    +0.182 C 
BRANCH  17  18
ATOM     18  N   LIG    1       30.810 -20.993   8.090  0.00  0.00    -0.305 N 
ATOM     19  H   LIG    1       31.445 -20.967   7.291  0.00  0.00    +0.149 HD
ATOM     20  C   LIG    1       31.201 -21.863   9.049  0.00  0.00    +0.326 C 
ATOM     21  O   LIG    1       30.813 -21.967  10.204  0.00  0.00    -0.280 OA
ENDBRANCH  17  18
BRANCH  17  22
ATOM     22  C   LIG    1       30.398 -18.436   8.029  0.00  0.00    +0.036 C 
BRANCH  22  23
ATOM     23  C   LIG    1       30.713 -17.324   9.175  0.00  0.00    -0.015 C 
ATOM     24  C   LIG    1       32.046 -16.563   9.412  0.00  0.00    +0.007 C 
ATOM     25  C   LIG    1       30.338 -17.867  10.540  0.00  0.00    +0.007 C 
ENDBRANCH  22  23
ENDBRANCH  17  22
ENDBRANCH  15  17
ENDBRANCH  14  15
ENDBRANCH   1  14
BRANCH   1  26
ATOM     26  C   LIG    1       26.605 -23.239   7.323  0.00  0.00    +0.045 C 
BRANCH  26  27
ATOM     27  C   LIG    1       25.755 -24.492   7.312  0.00  0.00    +0.003 C 
BRANCH  27  28
ATOM     28  C   LIG    1       24.516 -24.321   6.501  0.00  0.00    +0.000 C 
BRANCH  28  29
ATOM     29  C   LIG    1       24.116 -25.440   5.529  0.00  0.00    -0.000 C 
BRANCH  29  30
ATOM     30  C   LIG    1       25.385 -26.098   4.924  0.00  0.00    -0.000 C 
BRANCH  30  31
ATOM     31  C   LIG    1       25.726 -27.569   5.171  0.00  0.00    -0.000 C 
BRANCH  31  32
ATOM     32  C   LIG    1       24.486 -28.539   5.153  0.00  0.00    -0.000 C 
BRANCH  32  33
ATOM     33  C   LIG    1       24.326 -29.467   6.369  0.00  0.00    -0.000 C 
BRANCH  33  34
ATOM     34  C   LIG    1       24.856 -28.874   7.696  0.00  0.00    -0.000 C 
BRANCH  34  36
ATOM     35  C   LIG    1       26.235 -31.107   8.338  0.00  0.00    +0.004 C 
ATOM     36  C   LIG    1       25.686 -29.717   8.756  0.00  0.00    -0.003 C 
ENDBRANCH  34  36
ENDBRANCH  33  34
ENDBRANCH  32  33
ENDBRANCH  31  32
ENDBRANCH  30  31
ENDBRANCH  29  30
ENDBRANCH  28  29
ENDBRANCH  27  28
ENDBRANCH  26  27
ENDBRANCH   1  26
TORSDOF 23
ENDMDL
MODEL 4
REMARK VINA RESULT:      -8.0      2.585      9.177
REMARK  Name = *****
REMARK                            x       y       z     vdW  Elec       q    Type
REMARK                         _______ _______ _______ _____ _____    ______ ____
ROOT
ATOM      1  C   LIG    1       24.417 -22.783   7.256  0.00  0.00    +0.180 C 
ENDROOT
BRANCH   1   2
ATOM      2  C   LIG    1       23.728 -24.200   6.399  0.00  0.00    +0.090 C 
BRANCH   2   3
ATOM      3  C   LIG    1       24.559 -25.845   6.333  0.00  0.00    +0.194 C 
ATOM      4  C   LIG    1       24.592 -27.520   6.067  0.00  0.00    +0.138 C 
ATOM      5  C   LIG    1       26.146 -27.033   5.321  0.00  0.00    +0.314 C 
ATOM      6  O   LIG    1       27.348 -27.158   4.581  0.00  0.00    -0.250 OA
ATOM      7  O   LIG    1       25.804 -25.770   5.584  0.00  0.00    -0.460 OA
BRANCH   4   8
ATOM      8  C   LIG    1       24.733 -28.783   7.178  0.00  0.00    +0.018 C 
BRANCH   8   9
ATOM      9  C   LIG    1       24.022 -30.244   6.792  0.00  0.00    +0.001 C 
BRANCH   9  10
ATOM     10  C   LIG    1       24.713 -31.603   6.051  0.00  0.00    +0.000 C 
BRANCH  10  11
ATOM     11  C   LIG    1       26.247 -31.828   5.764  0.00  0.00    -0.000 C 
BRANCH  11  12
ATOM     12  C   LIG    1       27.137 -32.529   6.842  0.00  0.00    -0.003 C 
ATOM     13  C   LIG    1       26.909 -32.084   8.273  0.00  0.00    +0.004 C 
ENDBRANCH  11  12
ENDBRANCH  10  11
ENDBRANCH   9  10
ENDBRANCH   8   9
ENDBRANCH   4   8
ENDBRANCH   2   3
ENDBRANCH   1   2
BRANCH   1  14
ATOM     14  O   LIG    1       25.806 -22.648   6.874  0.00  0.00    -0.460 OA
BRANCH  14  15
ATOM     15  C   LIG    1       26.606 -22.045   7.796  0.00  0.00    +0.328 C 
ATOM     16  O   LIG    1       26.415 -22.053   9.016  0.00  0.00    -0.249 OA
BRANCH  15  17
ATOM     17  C   LIG    1       27.814 -21.372   7.107  0.00  0.00    +0.182 C 
BRANCH  17  18
ATOM     18  N   LIG    1       27.092 -20.604   6.067  0.00  0.00    -0.305 N 
ATOM     19  H   LIG    1       26.074 -20.676   6.048  0.00  0.00    +0.149 HD
ATOM     20  C   LIG    1       27.565 -19.585   5.313  0.00  0.00    +0.326 C 
ATOM     21  O   LIG    1       28.681 -19.085   5.301  0.00  0.00    -0.280 OA
ENDBRANCH  17  18
BRANCH  17  22
ATOM     22  C   LIG    1       28.881 -20.527   7.940  0.00  0.00    +0.036 C 
BRANCH  22  23
ATOM     23  C   LIG    1       30.501 -20.684   7.970  0.00  0.00    -0.015 C 
ATOM     24  C   LIG    1       31.364 -21.353   9.074  0.00  0.00    +0.007 C 
ATOM     25  C   LIG    1       31.157 -19.337   7.739  0.00  0.00    +0.007 C 
ENDBRANCH  22  23
ENDBRANCH  17  22
ENDBRANCH  15  17
ENDBRANCH  14  15
ENDBRANCH   1  14
BRANCH   1  26
ATOM     26  C   LIG    1       23.656 -21.380   7.162  0.00  0.00    +0.045 C 
BRANCH  26  27
ATOM     27  C   LIG    1       23.074 -20.292   6.284  0.00  0.00    +0.003 C 
BRANCH  27  28
ATOM     28  C   LIG    1       23.501 -20.432   4.863  0.00  0.00    +0.000 C 
BRANCH  28  29
ATOM     29  C   LIG    1       23.510 -19.181   3.974  0.00  0.00    -0.000 C 
BRANCH  29  30
ATOM     30  C   LIG    1       22.230 -18.339   4.227  0.00  0.00    -0.000 C 
BRANCH  30  31
ATOM     31  C   LIG    1       22.301 -16.901   4.743  0.00  0.00    -0.000 C 
BRANCH  31  32
ATOM     32  C   LIG    1       23.550 -16.086   4.239  0.00  0.00    -0.000 C 
BRANCH  32  33
ATOM     33  C   LIG    1       23.439 -14.554   4.301  0.00  0.00    -0.000 C 
BRANCH  33  34
ATOM     34  C   LIG    1       24.779 -13.809   4.085  0.00  0.00    -0.000 C 
BRANCH  34  36
ATOM     35  C   LIG    1       27.236 -14.887   3.766  0.00  0.00    +0.004 C 
ATOM     36  C   LIG    1       25.928 -14.346   3.129  0.00  0.00    -0.003 C 
ENDBRANCH  34  36
ENDBRANCH  33  34
ENDBRANCH  32  33
ENDBRANCH  31  32
ENDBRANCH  30  31
ENDBRANCH  29  30
ENDBRANCH  28  29
ENDBRANCH  27  28
ENDBRANCH  26  27
ENDBRANCH   1  26
TORSDOF 23
ENDMDL
MODEL 5
REMARK VINA RESULT:      -8.0      2.885      8.774
REMARK  Name = *****
REMARK                            x       y       z     vdW  Elec       q    Type
REMARK                         _______ _______ _______ _____ _____    ______ ____
ROOT
ATOM      1  C   LIG    1       24.533 -22.586   7.189  0.00  0.00    +0.180 C 
ENDROOT
BRANCH   1   2
ATOM      2  C   LIG    1       23.945 -24.041   6.322  0.00  0.00    +0.090 C 
BRANCH   2   3
ATOM      3  C   LIG    1       24.806 -25.671   6.379  0.00  0.00    +0.194 C 
ATOM      4  C   LIG    1       24.854 -27.365   6.328  0.00  0.00    +0.138 C 
ATOM      5  C   LIG    1       26.311 -26.961   5.366  0.00  0.00    +0.314 C 
ATOM      6  O   LIG    1       27.433 -27.166   4.525  0.00  0.00    -0.250 OA
ATOM      7  O   LIG    1       25.965 -25.678   5.500  0.00  0.00    -0.460 OA
BRANCH   4   8
ATOM      8  C   LIG    1       25.141 -28.472   7.569  0.00  0.00    +0.018 C 
BRANCH   8   9
ATOM      9  C   LIG    1       26.452 -28.202   8.568  0.00  0.00    +0.001 C 
BRANCH   9  10
ATOM     10  C   LIG    1       26.681 -28.676  10.179  0.00  0.00    +0.000 C 
BRANCH  10  11
ATOM     11  C   LIG    1       26.852 -27.715  11.417  0.00  0.00    -0.000 C 
BRANCH  11  12
ATOM     12  C   LIG    1       25.839 -27.803  12.605  0.00  0.00    -0.003 C 
ATOM     13  C   LIG    1       24.598 -28.635  12.351  0.00  0.00    +0.004 C 
ENDBRANCH  11  12
ENDBRANCH  10  11
ENDBRANCH   9  10
ENDBRANCH   8   9
ENDBRANCH   4   8
ENDBRANCH   2   3
ENDBRANCH   1   2
BRANCH   1  14
ATOM     14  O   LIG    1       25.941 -22.418   6.899  0.00  0.00    -0.460 OA
BRANCH  14  15
ATOM     15  C   LIG    1       26.656 -21.755   7.851  0.00  0.00    +0.328 C 
ATOM     16  O   LIG    1       26.462 -21.835   9.068  0.00  0.00    -0.249 OA
BRANCH  15  17
ATOM     17  C   LIG    1       27.773 -20.911   7.199  0.00  0.00    +0.182 C 
BRANCH  17  18
ATOM     18  N   LIG    1       27.084 -20.543   5.941  0.00  0.00    -0.305 N 
ATOM     19  H   LIG    1       26.126 -20.871   5.814  0.00  0.00    +0.149 HD
ATOM     20  C   LIG    1       27.439 -19.585   5.053  0.00  0.00    +0.326 C 
ATOM     21  O   LIG    1       28.401 -18.830   5.073  0.00  0.00    -0.280 OA
ENDBRANCH  17  18
BRANCH  17  22
ATOM     22  C   LIG    1       28.450 -19.689   7.972  0.00  0.00    +0.036 C 
BRANCH  22  23
ATOM     23  C   LIG    1       30.016 -19.474   8.357  0.00  0.00    -0.015 C 
ATOM     24  C   LIG    1       30.637 -18.305   9.169  0.00  0.00    +0.007 C 
ATOM     25  C   LIG    1       30.874 -19.568   7.111  0.00  0.00    +0.007 C 
ENDBRANCH  22  23
ENDBRANCH  17  22
ENDBRANCH  15  17
ENDBRANCH  14  15
ENDBRANCH   1  14
BRANCH   1  26
ATOM     26  C   LIG    1       23.741 -21.208   7.011  0.00  0.00    +0.045 C 
BRANCH  26  27
ATOM     27  C   LIG    1       22.965 -20.283   6.097  0.00  0.00    +0.003 C 
BRANCH  27  28
ATOM     28  C   LIG    1       23.623 -20.129   4.769  0.00  0.00    +0.000 C 
BRANCH  28  29
ATOM     29  C   LIG    1       23.408 -18.823   3.992  0.00  0.00    -0.000 C 
BRANCH  29  30
ATOM     30  C   LIG    1       22.250 -18.009   4.630  0.00  0.00    -0.000 C 
BRANCH  30  31
ATOM     31  C   LIG    1       22.257 -16.480   4.654  0.00  0.00    -0.000 C 
BRANCH  31  32
ATOM     32  C   LIG    1       23.638 -15.826   4.277  0.00  0.00    -0.000 C 
BRANCH  32  33
ATOM     33  C   LIG    1       23.666 -14.292   4.179  0.00  0.00    -0.000 C 
BRANCH  33  34
ATOM     34  C   LIG    1       25.015 -13.710   3.690  0.00  0.00    -0.000 C 
BRANCH  34  36
ATOM     35  C   LIG    1       27.696 -13.964   3.477  0.00  0.00    +0.004 C 
ATOM     36  C   LIG    1       26.413 -14.088   4.341  0.00  0.00    -0.003 C 
ENDBRANCH  34  36
ENDBRANCH  33  34
ENDBRANCH  32  33
ENDBRANCH  31  32
ENDBRANCH  30  31
ENDBRANCH  29  30
ENDBRANCH  28  29
ENDBRANCH  27  28
ENDBRANCH  26  27
ENDBRANCH   1  26
TORSDOF 23
ENDMDL
MODEL 6
REMARK VINA RESULT:      -7.9      1.625      7.657
REMARK  Name = *****
REMARK                            x       y       z     vdW  Elec       q    Type
REMARK                         _______ _______ _______ _____ _____    ______ ____
ROOT
ATOM      1  C   LIG    1       26.335 -21.034   8.245  0.00  0.00    +0.180 C 
ENDROOT
BRANCH   1   2
ATOM      2  C   LIG    1       27.138 -22.430   7.458  0.00  0.00    +0.090 C 
BRANCH   2   3
ATOM      3  C   LIG    1       26.218 -23.884   6.793  0.00  0.00    +0.194 C 
ATOM      4  C   LIG    1       25.837 -25.535   6.718  0.00  0.00    +0.138 C 
ATOM      5  C   LIG    1       24.205 -24.810   6.580  0.00  0.00    +0.314 C 
ATOM      6  O   LIG    1       22.790 -24.751   6.524  0.00  0.00    -0.250 OA
ATOM      7  O   LIG    1       24.787 -23.621   6.756  0.00  0.00    -0.460 OA
BRANCH   4   8
ATOM      8  C   LIG    1       26.187 -26.666   5.515  0.00  0.00    +0.018 C 
BRANCH   8   9
ATOM      9  C   LIG    1       25.112 -27.925   5.292  0.00  0.00    +0.001 C 
BRANCH   9  10
ATOM     10  C   LIG    1       24.953 -29.361   6.180  0.00  0.00    +0.000 C 
BRANCH  10  11
ATOM     11  C   LIG    1       24.533 -29.476   7.695  0.00  0.00    -0.000 C 
BRANCH  11  12
ATOM     12  C   LIG    1       25.627 -29.753   8.777  0.00  0.00    -0.003 C 
ATOM     13  C   LIG    1       26.445 -28.552   9.208  0.00  0.00    +0.004 C 
ENDBRANCH  11  12
ENDBRANCH  10  11
ENDBRANCH   9  10
ENDBRANCH   8   9
ENDBRANCH   4   8
ENDBRANCH   2   3
ENDBRANCH   1   2
BRANCH   1  14
ATOM     14  O   LIG    1       27.295 -19.957   8.357  0.00  0.00    -0.460 OA
BRANCH  14  15
ATOM     15  C   LIG    1       28.382 -20.060   7.543  0.00  0.00    +0.328 C 
ATOM     16  O   LIG    1       28.340 -20.270   6.327  0.00  0.00    -0.249 OA
BRANCH  15  17
ATOM     17  C   LIG    1       29.683 -19.844   8.346  0.00  0.00    +0.182 C 
BRANCH  17  18
ATOM     18  N   LIG    1       30.346 -21.140   8.072  0.00  0.00    -0.305 N 
ATOM     19  H   LIG    1       30.597 -21.346   7.105  0.00  0.00    +0.149 HD
ATOM     20  C   LIG    1       30.933 -21.973   8.962  0.00  0.00    +0.326 C 
ATOM     21  O   LIG    1       31.033 -21.863  10.175  0.00  0.00    -0.280 OA
ENDBRANCH  17  18
BRANCH  17  22
ATOM     22  C   LIG    1       30.603 -18.561   8.108  0.00  0.00    +0.036 C 
BRANCH  22  23
ATOM     23  C   LIG    1       30.885 -17.314   9.114  0.00  0.00    -0.015 C 
ATOM     24  C   LIG    1       32.233 -16.581   9.355  0.00  0.00    +0.007 C 
ATOM     25  C   LIG    1       30.379 -17.644  10.504  0.00  0.00    +0.007 C 
ENDBRANCH  22  23
ENDBRANCH  17  22
ENDBRANCH  15  17
ENDBRANCH  14  15
ENDBRANCH   1  14
BRANCH   1  26
ATOM     26  C   LIG    1       24.947 -20.506   7.651  0.00  0.00    +0.045 C 
BRANCH  26  27
ATOM     27  C   LIG    1       23.444 -20.669   7.563  0.00  0.00    +0.003 C 
BRANCH  27  28
ATOM     28  C   LIG    1       22.962 -20.656   6.153  0.00  0.00    +0.000 C 
BRANCH  28  29
ATOM     29  C   LIG    1       23.979 -20.402   5.032  0.00  0.00    -0.000 C 
BRANCH  29  30
ATOM     30  C   LIG    1       23.525 -19.198   4.164  0.00  0.00    -0.000 C 
BRANCH  30  31
ATOM     31  C   LIG    1       22.462 -18.210   4.648  0.00  0.00    -0.000 C 
BRANCH  31  32
ATOM     32  C   LIG    1       22.535 -16.789   3.973  0.00  0.00    -0.000 C 
BRANCH  32  33
ATOM     33  C   LIG    1       22.861 -15.607   4.900  0.00  0.00    -0.000 C 
BRANCH  33  34
ATOM     34  C   LIG    1       23.611 -14.444   4.207  0.00  0.00    -0.000 C 
BRANCH  34  36
ATOM     35  C   LIG    1       26.029 -15.362   3.425  0.00  0.00    +0.004 C 
ATOM     36  C   LIG    1       25.193 -14.309   4.202  0.00  0.00    -0.003 C 
ENDBRANCH  34  36
ENDBRANCH  33  34
ENDBRANCH  32  33
ENDBRANCH  31  32
ENDBRANCH  30  31
ENDBRANCH  29  30
ENDBRANCH  28  29
ENDBRANCH  27  28
ENDBRANCH  26  27
ENDBRANCH   1  26
TORSDOF 23
ENDMDL
MODEL 7
REMARK VINA RESULT:      -7.9      1.120      2.231
REMARK  Name = *****
REMARK                            x       y       z     vdW  Elec       q    Type
REMARK                         _______ _______ _______ _____ _____    ______ ____
ROOT
ATOM      1  C   LIG    1       27.504 -20.745   7.352  0.00  0.00    +0.180 C 
ENDROOT
BRANCH   1   2
ATOM      2  C   LIG    1       27.081 -19.957   5.798  0.00  0.00    +0.090 C 
BRANCH   2   3
ATOM      3  C   LIG    1       25.384 -19.986   5.077  0.00  0.00    +0.194 C 
ATOM      4  C   LIG    1       24.091 -19.313   4.210  0.00  0.00    +0.138 C 
ATOM      5  C   LIG    1       24.062 -20.997   3.599  0.00  0.00    +0.314 C 
ATOM      6  O   LIG    1       23.687 -22.099   2.791  0.00  0.00    -0.250 OA
ATOM      7  O   LIG    1       25.157 -21.215   4.331  0.00  0.00    -0.460 OA
BRANCH   4   8
ATOM      8  C   LIG    1       22.595 -18.761   4.764  0.00  0.00    +0.018 C 
BRANCH   8   9
ATOM      9  C   LIG    1       22.154 -17.195   4.390  0.00  0.00    +0.001 C 
BRANCH   9  10
ATOM     10  C   LIG    1       22.855 -15.738   4.902  0.00  0.00    +0.000 C 
BRANCH  10  11
ATOM     11  C   LIG    1       23.585 -14.684   3.986  0.00  0.00    -0.000 C 
BRANCH  11  12
ATOM     12  C   LIG    1       25.057 -14.270   4.313  0.00  0.00    -0.003 C 
ATOM     13  C   LIG    1       26.114 -14.798   3.363  0.00  0.00    +0.004 C 
ENDBRANCH  11  12
ENDBRANCH  10  11
ENDBRANCH   9  10
ENDBRANCH   8   9
ENDBRANCH   4   8
ENDBRANCH   2   3
ENDBRANCH   1   2
BRANCH   1  14
ATOM     14  O   LIG    1       28.387 -19.864   8.087  0.00  0.00    -0.460 OA
BRANCH  14  15
ATOM     15  C   LIG    1       29.554 -20.428   8.505  0.00  0.00    +0.328 C 
ATOM     16  O   LIG    1       29.772 -21.642   8.572  0.00  0.00    -0.249 OA
BRANCH  15  17
ATOM     17  C   LIG    1       30.589 -19.336   8.854  0.00  0.00    +0.182 C 
BRANCH  17  18
ATOM     18  N   LIG    1       31.480 -19.475   7.680  0.00  0.00    -0.305 N 
ATOM     19  H   LIG    1       32.256 -20.135   7.752  0.00  0.00    +0.149 HD
ATOM     20  C   LIG    1       31.248 -19.067   6.411  0.00  0.00    +0.326 C 
ATOM     21  O   LIG    1       30.276 -18.482   5.953  0.00  0.00    -0.280 OA
ENDBRANCH  17  18
BRANCH  17  22
ATOM     22  C   LIG    1       30.140 -17.839   9.178  0.00  0.00    +0.036 C 
BRANCH  22  23
ATOM     23  C   LIG    1       30.993 -16.658   9.903  0.00  0.00    -0.015 C 
ATOM     24  C   LIG    1       32.389 -16.114   9.494  0.00  0.00    +0.007 C 
ATOM     25  C   LIG    1       31.117 -16.944  11.386  0.00  0.00    +0.007 C 
ENDBRANCH  22  23
ENDBRANCH  17  22
ENDBRANCH  15  17
ENDBRANCH  14  15
ENDBRANCH   1  14
BRANCH   1  26
ATOM     26  C   LIG    1       26.325 -21.288   8.288  0.00  0.00    +0.045 C 
BRANCH  26  27
ATOM     27  C   LIG    1       25.208 -22.288   8.493  0.00  0.00    +0.003 C 
BRANCH  27  28
ATOM     28  C   LIG    1       24.759 -22.897   7.209  0.00  0.00    +0.000 C 
BRANCH  28  29
ATOM     29  C   LIG    1       25.669 -23.929   6.529  0.00  0.00    -0.000 C 
BRANCH  29  30
ATOM     30  C   LIG    1       25.063 -25.351   6.673  0.00  0.00    -0.000 C 
BRANCH  30  31
ATOM     31  C   LIG    1       24.707 -26.204   5.454  0.00  0.00    -0.000 C 
BRANCH  31  32
ATOM     32  C   LIG    1       25.691 -27.403   5.187  0.00  0.00    -0.000 C 
BRANCH  32  33
ATOM     33  C   LIG    1       25.120 -28.816   5.391  0.00  0.00    -0.000 C 
BRANCH  33  34
ATOM     34  C   LIG    1       24.441 -29.036   6.764  0.00  0.00    -0.000 C 
BRANCH  34  36
ATOM     35  C   LIG    1       26.307 -28.340   8.590  0.00  0.00    +0.004 C 
ATOM     36  C   LIG    1       25.249 -29.360   8.092  0.00  0.00    -0.003 C 
ENDBRANCH  34  36
ENDBRANCH  33  34
ENDBRANCH  32  33
ENDBRANCH  31  32
ENDBRANCH  30  31
ENDBRANCH  29  30
ENDBRANCH  28  29
ENDBRANCH  27  28
ENDBRANCH  26  27
ENDBRANCH   1  26
TORSDOF 23
ENDMDL
MODEL 8
REMARK VINA RESULT:      -7.8      3.213      9.571
REMARK  Name = *****
REMARK                            x       y       z     vdW  Elec       q    Type
REMARK                         _______ _______ _______ _____ _____    ______ ____
ROOT
ATOM      1  C   LIG    1       24.011 -23.282   6.529  0.00  0.00    +0.180 C 
ENDROOT
BRANCH   1   2
ATOM      2  C   LIG    1       23.282 -24.915   6.396  0.00  0.00    +0.090 C 
BRANCH   2   3
ATOM      3  C   LIG    1       24.267 -26.439   6.070  0.00  0.00    +0.194 C 
ATOM      4  C   LIG    1       24.506 -27.978   5.398  0.00  0.00    +0.138 C 
ATOM      5  C   LIG    1       26.109 -27.233   5.103  0.00  0.00    +0.314 C 
ATOM      6  O   LIG    1       27.423 -27.096   4.594  0.00  0.00    -0.250 OA
ATOM      7  O   LIG    1       25.607 -26.105   5.610  0.00  0.00    -0.460 OA
BRANCH   4   8
ATOM      8  C   LIG    1       24.581 -29.484   6.157  0.00  0.00    +0.018 C 
BRANCH   8   9
ATOM      9  C   LIG    1       24.570 -29.517   7.827  0.00  0.00    +0.001 C 
BRANCH   9  10
ATOM     10  C   LIG    1       25.686 -30.228   8.887  0.00  0.00    +0.000 C 
BRANCH  10  11
ATOM     11  C   LIG    1       26.887 -29.498   9.600  0.00  0.00    -0.000 C 
BRANCH  11  12
ATOM     12  C   LIG    1       26.613 -28.211  10.445  0.00  0.00    -0.003 C 
ATOM     13  C   LIG    1       27.142 -28.232  11.865  0.00  0.00    +0.004 C 
ENDBRANCH  11  12
ENDBRANCH  10  11
ENDBRANCH   9  10
ENDBRANCH   8   9
ENDBRANCH   4   8
ENDBRANCH   2   3
ENDBRANCH   1   2
BRANCH   1  14
ATOM     14  O   LIG    1       22.975 -22.348   6.915  0.00  0.00    -0.460 OA
BRANCH  14  15
ATOM     15  C   LIG    1       23.280 -21.033   6.733  0.00  0.00    +0.328 C 
ATOM     16  O   LIG    1       23.813 -20.305   7.575  0.00  0.00    -0.249 OA
BRANCH  15  17
ATOM     17  C   LIG    1       22.898 -20.582   5.306  0.00  0.00    +0.182 C 
BRANCH  17  18
ATOM     18  N   LIG    1       22.488 -19.190   5.603  0.00  0.00    -0.305 N 
ATOM     19  H   LIG    1       22.839 -18.769   6.465  0.00  0.00    +0.149 HD
ATOM     20  C   LIG    1       21.949 -18.286   4.753  0.00  0.00    +0.326 C 
ATOM     21  O   LIG    1       21.661 -18.412   3.571  0.00  0.00    -0.280 OA
ENDBRANCH  17  18
BRANCH  17  22
ATOM     22  C   LIG    1       23.915 -20.731   4.086  0.00  0.00    +0.036 C 
BRANCH  22  23
ATOM     23  C   LIG    1       25.376 -20.041   3.892  0.00  0.00    -0.015 C 
ATOM     24  C   LIG    1       26.505 -19.907   4.950  0.00  0.00    +0.007 C 
ATOM     25  C   LIG    1       25.218 -18.643   3.327  0.00  0.00    +0.007 C 
ENDBRANCH  22  23
ENDBRANCH  17  22
ENDBRANCH  15  17
ENDBRANCH  14  15
ENDBRANCH   1  14
BRANCH   1  26
ATOM     26  C   LIG    1       25.320 -23.092   7.429  0.00  0.00    +0.045 C 
BRANCH  26  27
ATOM     27  C   LIG    1       26.706 -22.498   7.569  0.00  0.00    +0.003 C 
BRANCH  27  28
ATOM     28  C   LIG    1       26.694 -21.228   8.348  0.00  0.00    +0.000 C 
BRANCH  28  29
ATOM     29  C   LIG    1       27.828 -20.219   8.122  0.00  0.00    -0.000 C 
BRANCH  29  30
ATOM     30  C   LIG    1       29.094 -20.949   7.598  0.00  0.00    -0.000 C 
BRANCH  30  31
ATOM     31  C   LIG    1       30.234 -21.359   8.532  0.00  0.00    -0.000 C 
BRANCH  31  32
ATOM     32  C   LIG    1       31.426 -20.333   8.596  0.00  0.00    -0.000 C 
BRANCH  32  33
ATOM     33  C   LIG    1       31.302 -19.082   7.712  0.00  0.00    -0.000 C 
BRANCH  33  34
ATOM     34  C   LIG    1       31.378 -17.745   8.487  0.00  0.00    -0.000 C 
BRANCH  34  36
ATOM     35  C   LIG    1       30.468 -17.604  11.027  0.00  0.00    +0.004 C 
ATOM     36  C   LIG    1       30.270 -17.275   9.523  0.00  0.00    -0.003 C 
ENDBRANCH  34  36
ENDBRANCH  33  34
ENDBRANCH  32  33
ENDBRANCH  31  32
ENDBRANCH  30  31
ENDBRANCH  29  30
ENDBRANCH  28  29
ENDBRANCH  27  28
ENDBRANCH  26  27
ENDBRANCH   1  26
TORSDOF 23
ENDMDL
MODEL 9
REMARK VINA RESULT:      -7.7      2.645      7.661
REMARK  Name = *****
REMARK                            x       y       z     vdW  Elec       q    Type
REMARK                         _______ _______ _______ _____ _____    ______ ____
ROOT
ATOM      1  C   LIG    1       25.241 -23.138   7.333  0.00  0.00    +0.180 C 
ENDROOT
BRANCH   1   2
ATOM      2  C   LIG    1       26.073 -21.916   8.348  0.00  0.00    +0.090 C 
BRANCH   2   3
ATOM      3  C   LIG    1       27.638 -21.080   7.846  0.00  0.00    +0.194 C 
ATOM      4  C   LIG    1       29.270 -21.063   7.385  0.00  0.00    +0.138 C 
ATOM      5  C   LIG    1       28.598 -19.824   6.280  0.00  0.00    +0.314 C 
ATOM      6  O   LIG    1       28.560 -18.895   5.211  0.00  0.00    -0.250 OA
ATOM      7  O   LIG    1       27.397 -20.120   6.780  0.00  0.00    -0.460 OA
BRANCH   4   8
ATOM      8  C   LIG    1       30.627 -20.547   8.247  0.00  0.00    +0.018 C 
BRANCH   8   9
ATOM      9  C   LIG    1       31.205 -19.010   7.944  0.00  0.00    +0.001 C 
BRANCH   9  10
ATOM     10  C   LIG    1       31.078 -17.615   8.899  0.00  0.00    +0.000 C 
BRANCH  10  11
ATOM     11  C   LIG    1       32.258 -16.650   9.299  0.00  0.00    -0.000 C 
BRANCH  11  12
ATOM     12  C   LIG    1       32.364 -16.134  10.771  0.00  0.00    -0.003 C 
ATOM     13  C   LIG    1       31.416 -16.777  11.764  0.00  0.00    +0.004 C 
ENDBRANCH  11  12
ENDBRANCH  10  11
ENDBRANCH   9  10
ENDBRANCH   8   9
ENDBRANCH   4   8
ENDBRANCH   2   3
ENDBRANCH   1   2
BRANCH   1  14
ATOM     14  O   LIG    1       24.918 -22.532   6.059  0.00  0.00    -0.460 OA
BRANCH  14  15
ATOM     15  C   LIG    1       23.686 -21.955   5.985  0.00  0.00    +0.328 C 
ATOM     16  O   LIG    1       22.626 -22.502   6.306  0.00  0.00    -0.249 OA
BRANCH  15  17
ATOM     17  C   LIG    1       23.798 -20.502   5.475  0.00  0.00    +0.182 C 
BRANCH  17  18
ATOM     18  N   LIG    1       24.446 -20.761   4.169  0.00  0.00    -0.305 N 
ATOM     19  H   LIG    1       24.107 -21.555   3.623  0.00  0.00    +0.149 HD
ATOM     20  C   LIG    1       25.232 -19.924   3.454  0.00  0.00    +0.326 C 
ATOM     21  O   LIG    1       25.599 -18.789   3.724  0.00  0.00    -0.280 OA
ENDBRANCH  17  18
BRANCH  17  22
ATOM     22  C   LIG    1       22.524 -19.544   5.409  0.00  0.00    +0.036 C 
BRANCH  22  23
ATOM     23  C   LIG    1       22.231 -18.313   4.385  0.00  0.00    -0.015 C 
ATOM     24  C   LIG    1       22.211 -16.795   4.713  0.00  0.00    +0.007 C 
ATOM     25  C   LIG    1       20.935 -18.557   3.638  0.00  0.00    +0.007 C 
ENDBRANCH  22  23
ENDBRANCH  17  22
ENDBRANCH  15  17
ENDBRANCH  14  15
ENDBRANCH   1  14
BRANCH   1  26
ATOM     26  C   LIG    1       25.925 -24.570   7.132  0.00  0.00    +0.045 C 
BRANCH  26  27
ATOM     27  C   LIG    1       25.880 -25.932   6.473  0.00  0.00    +0.003 C 
BRANCH  27  28
ATOM     28  C   LIG    1       24.482 -26.404   6.260  0.00  0.00    +0.000 C 
BRANCH  28  29
ATOM     29  C   LIG    1       24.258 -27.689   5.451  0.00  0.00    -0.000 C 
BRANCH  29  30
ATOM     30  C   LIG    1       24.987 -28.880   6.131  0.00  0.00    -0.000 C 
BRANCH  30  31
ATOM     31  C   LIG    1       24.465 -29.513   7.422  0.00  0.00    -0.000 C 
BRANCH  31  32
ATOM     32  C   LIG    1       25.588 -30.050   8.386  0.00  0.00    -0.000 C 
BRANCH  32  33
ATOM     33  C   LIG    1       25.565 -29.516   9.828  0.00  0.00    -0.000 C 
BRANCH  33  34
ATOM     34  C   LIG    1       26.586 -28.386  10.104  0.00  0.00    -0.000 C 
BRANCH  34  36
ATOM     35  C   LIG    1       26.750 -26.944  12.383  0.00  0.00    +0.004 C 
ATOM     36  C   LIG    1       27.248 -28.139  11.526  0.00  0.00    -0.003 C 
ENDBRANCH  34  36
ENDBRANCH  33  34
ENDBRANCH  32  33
ENDBRANCH  31  32
ENDBRANCH  30  31
ENDBRANCH  29  30
ENDBRANCH  28  29
ENDBRANCH  27  28
ENDBRANCH  26  27
ENDBRANCH   1  26
TORSDOF 23
ENDMDL
