MODEL 1
REMARK VINA RESULT:       2.9      0.000      0.000
REMARK  Name = *****
REMARK                            x       y       z     vdW  Elec       q    Type
REMARK                         _______ _______ _______ _____ _____    ______ ____
ROOT
ATOM      1  C   LIG    1       22.417 -27.734  14.565  0.00  0.00    +0.150 C 
ATOM      2  C   LIG    1       20.961 -27.695  13.974  0.00  0.00    +0.060 C 
ATOM      3  C   LIG    1       20.502 -26.250  13.695  0.00  0.00    +0.014 C 
ATOM      4  C   LIG    1       19.765 -28.439  14.717  0.00  0.00    +0.187 C 
ATOM      5  C   LIG    1       18.636 -28.915  13.669  0.00  0.00    +0.056 C 
ATOM      6  C   LIG    1       17.293 -29.142  14.353  0.00  0.00    +0.014 C 
ATOM      7  C   LIG    1       19.176 -30.094  12.799  0.00  0.00    +0.126 C 
ATOM      8  C   LIG    1       18.388 -31.296  12.167  0.00  0.00    +0.044 C 
ATOM      9  C   LIG    1       17.268 -31.949  12.971  0.00  0.00    +0.013 C 
ATOM     10  C   LIG    1       19.501 -32.352  11.817  0.00  0.00    +0.126 C 
ATOM     11  C   LIG    1       19.274 -33.413  10.703  0.00  0.00    +0.037 C 
ATOM     12  C   LIG    1       18.295 -32.953   9.620  0.00  0.00    +0.014 C 
ATOM     13  C   LIG    1       20.588 -33.825  10.013  0.00  0.00    -0.021 C 
ATOM     14  C   LIG    1       21.846 -33.538  10.399  0.00  0.00    -0.003 C 
ATOM     15  C   LIG    1       23.020 -33.824   9.609  0.00  0.00    +0.008 C 
ATOM     16  C   LIG    1       23.603 -32.978   8.738  0.00  0.00    +0.011 C 
ATOM     17  C   LIG    1       24.803 -33.349   7.921  0.00  0.00    +0.049 C 
ATOM     18  C   LIG    1       22.998 -31.665   8.403  0.00  0.00    +0.244 C 
ATOM     19  O   LIG    1       21.876 -31.617   7.892  0.00  0.00    -0.270 OA
ATOM     20  N   LIG    1       23.730 -30.518   8.440  0.00  0.00    -0.277 N 
ATOM     21  H   LIG    1       23.273 -29.827   7.853  0.00  0.00    +0.155 HD
ATOM     22  C   LIG    1       24.821 -30.029   9.134  0.00  0.00    +0.105 C 
ATOM     23  C   LIG    1       25.324 -28.849   8.741  0.00  0.00    +0.080 C 
ATOM     24  C   LIG    1       26.381 -28.133   9.473  0.00  0.00    +0.092 C 
ATOM     25  C   LIG    1       26.640 -28.532  10.838  0.00  0.00    +0.030 A 
ATOM     26  C   LIG    1       26.367 -29.853  11.193  0.00  0.00    +0.075 A 
ATOM     27  C   LIG    1       26.752 -30.314  12.471  0.00  0.00    +0.135 A 
ATOM     28  C   LIG    1       27.227 -29.425  13.451  0.00  0.00    +0.034 A 
ATOM     29  C   LIG    1       27.143 -28.072  13.152  0.00  0.00    +0.143 A 
ATOM     30  O   LIG    1       27.156 -27.081  14.109  0.00  0.00    -0.444 OA
ATOM     31  C   LIG    1       26.721 -25.871  13.432  0.00  0.00    +0.314 C 
ATOM     32  C   LIG    1       26.871 -26.184  11.941  0.00  0.00    +0.250 C 
ATOM     33  O   LIG    1       26.849 -25.413  11.028  0.00  0.00    -0.284 OA
ATOM     34  C   LIG    1       27.607 -24.713  13.862  0.00  0.00    +0.114 C 
ATOM     35  O   LIG    1       25.336 -25.471  13.582  0.00  0.00    -0.453 OA
ATOM     36  C   LIG    1       24.520 -26.253  14.357  0.00  0.00    +0.190 C 
ATOM     37  C   LIG    1       27.698 -29.897  14.791  0.00  0.00    +0.051 C 
ATOM     38  C   LIG    1       26.941 -27.641  11.855  0.00  0.00    +0.077 A 
ATOM     39  N   LIG    1       26.953 -27.154   8.828  0.00  0.00    -0.256 NA
ATOM     40  C   LIG    1       26.045 -26.942   7.650  0.00  0.00    +0.128 C 
ATOM     41  C   LIG    1       25.299 -25.625   7.922  0.00  0.00    +0.065 C 
ATOM     42  C   LIG    1       26.066 -24.427   7.374  0.00  0.00    +0.088 C 
ATOM     43  N   LIG    1       26.345 -24.551   5.924  0.00  0.00    -0.302 NA
ATOM     44  C   LIG    1       27.313 -25.645   5.780  0.00  0.00    +0.088 C 
ATOM     45  C   LIG    1       26.839 -26.995   6.329  0.00  0.00    +0.065 C 
ATOM     46  N   LIG    1       25.080 -28.067   7.642  0.00  0.00    -0.317 N 
ATOM     47  H   LIG    1       24.111 -27.805   7.494  0.00  0.00    +0.148 HD
ATOM     48  C   LIG    1       25.488 -30.685  10.315  0.00  0.00    +0.213 C 
ATOM     49  O   LIG    1       25.278 -31.843  10.660  0.00  0.00    -0.285 OA
ATOM     50  C   LIG    1       23.412 -26.814  13.851  0.00  0.00    +0.042 C 
ENDROOT
BRANCH   1  52
ATOM     51  C   LIG    1       24.047 -29.315  15.430  0.00  0.00    +0.194 C 
ATOM     52  O   LIG    1       22.967 -29.064  14.535  0.00  0.00    -0.375 OA
ENDBRANCH   1  52
BRANCH   7  53
ATOM     53  O   LIG    1       19.792 -29.448  11.649  0.00  0.00    -0.391 OA
ATOM     54  H   LIG    1       19.444 -28.538  11.608  0.00  0.00    +0.210 HD
ENDBRANCH   7  53
BRANCH  10  55
ATOM     55  O   LIG    1       19.848 -33.040  13.038  0.00  0.00    -0.391 OA
ATOM     56  H   LIG    1       20.327 -33.850  12.794  0.00  0.00    +0.210 HD
ENDBRANCH  10  55
BRANCH  27  57
ATOM     57  O   LIG    1       26.610 -31.627  12.839  0.00  0.00    -0.506 OA
ATOM     58  H   LIG    1       26.337 -32.154  12.054  0.00  0.00    +0.292 HD
ENDBRANCH  27  57
BRANCH   4  59
ATOM     59  O   LIG    1       20.143 -29.603  15.487  0.00  0.00    -0.461 OA
BRANCH  59  60
ATOM     60  C   LIG    1       20.711 -30.616  14.766  0.00  0.00    +0.304 C 
ATOM     61  O   LIG    1       21.339 -30.471  13.725  0.00  0.00    -0.251 OA
ATOM     62  C   LIG    1       20.621 -31.930  15.499  0.00  0.00    +0.136 C 
ENDBRANCH  59  60
ENDBRANCH   4  59
BRANCH  43  63
ATOM     63  C   LIG    1       25.117 -24.727   5.119  0.00  0.00    +0.087 C 
BRANCH  63  64
ATOM     64  C   LIG    1       24.115 -23.543   5.024  0.00  0.00    -0.003 C 
ATOM     65  C   LIG    1       24.721 -22.188   4.660  0.00  0.00    +0.008 C 
ATOM     66  C   LIG    1       23.384 -23.398   6.368  0.00  0.00    +0.008 C 
ENDBRANCH  63  64
ENDBRANCH  43  63
TORSDOF 8
ENDMDL
