MODEL 1
REMARK VINA RESULT:      -4.3      0.000      0.000
REMARK  Name = *****
REMARK                            x       y       z     vdW  Elec       q    Type
REMARK                         _______ _______ _______ _____ _____    ______ ____
ROOT
ATOM      1  N   LIG    1       25.345 -18.385   3.719  0.00  0.00    -0.329 N 
ATOM      2  C   LIG    1       25.501 -19.374   4.668  0.00  0.00    +0.081 A 
ATOM      3  C   LIG    1       26.572 -19.895   5.454  0.00  0.00    +0.026 A 
ATOM      4  C   LIG    1       26.222 -20.992   6.282  0.00  0.00    +0.075 A 
ATOM      5  N   LIG    1       24.991 -21.516   6.371  0.00  0.00    -0.230 NA
ATOM      6  C   LIG    1       23.972 -20.991   5.659  0.00  0.00    +0.144 A 
ATOM      7  C   LIG    1       27.217 -21.570   7.056  0.00  0.00    +0.028 A 
ATOM      8  C   LIG    1       28.533 -21.099   7.046  0.00  0.00    +0.002 A 
ATOM      9  C   LIG    1       28.871 -20.014   6.246  0.00  0.00    +0.001 A 
ATOM     10  C   LIG    1       27.898 -19.407   5.453  0.00  0.00    +0.012 A 
ATOM     11  C   LIG    1       24.216 -19.920   4.774  0.00  0.00    +0.129 A 
ATOM     12  N   LIG    1       23.326 -19.293   3.926  0.00  0.00    -0.232 NA
ATOM     13  C   LIG    1       24.036 -18.385   3.307  0.00  0.00    +0.200 A 
ENDROOT
BRANCH   6  14
ATOM     14  N   LIG    1       22.715 -21.571   5.805  0.00  0.00    -0.341 N 
ATOM     15  H   LIG    1       22.479 -21.730   6.780  0.00  0.00    +0.144 HD
ATOM     16  H   LIG    1       22.032 -21.104   5.226  0.00  0.00    +0.144 HD
ENDBRANCH   6  14
BRANCH   1  17
ATOM     17  C   LIG    1       26.338 -17.507   3.126  0.00  0.00    +0.126 C 
BRANCH  17  19
ATOM     18  C   LIG    1       27.731 -15.695   4.160  0.00  0.00    +0.009 C 
ATOM     19  C   LIG    1       26.325 -16.073   3.685  0.00  0.00    +0.003 C 
ATOM     20  C   LIG    1       25.851 -15.048   2.650  0.00  0.00    +0.009 C 
ENDBRANCH  17  19
ENDBRANCH   1  17
TORSDOF 3
ENDMDL
MODEL 2
REMARK VINA RESULT:      -3.9      1.586      4.169
REMARK  Name = *****
REMARK                            x       y       z     vdW  Elec       q    Type
REMARK                         _______ _______ _______ _____ _____    ______ ____
ROOT
ATOM      1  N   LIG    1       24.865 -20.338   4.349  0.00  0.00    -0.329 N 
ATOM      2  C   LIG    1       26.075 -19.753   4.662  0.00  0.00    +0.081 A 
ATOM      3  C   LIG    1       27.197 -20.074   5.481  0.00  0.00    +0.026 A 
ATOM      4  C   LIG    1       28.214 -19.084   5.508  0.00  0.00    +0.075 A 
ATOM      5  N   LIG    1       28.178 -17.937   4.817  0.00  0.00    -0.230 NA
ATOM      6  C   LIG    1       27.134 -17.658   4.009  0.00  0.00    +0.144 A 
ATOM      7  C   LIG    1       29.326 -19.313   6.305  0.00  0.00    +0.028 A 
ATOM      8  C   LIG    1       29.470 -20.480   7.062  0.00  0.00    +0.002 A 
ATOM      9  C   LIG    1       28.482 -21.454   7.022  0.00  0.00    +0.001 A 
ATOM     10  C   LIG    1       27.348 -21.261   6.233  0.00  0.00    +0.012 A 
ATOM     11  C   LIG    1       26.049 -18.557   3.935  0.00  0.00    +0.129 A 
ATOM     12  N   LIG    1       24.876 -18.422   3.219  0.00  0.00    -0.232 NA
ATOM     13  C   LIG    1       24.190 -19.501   3.494  0.00  0.00    +0.200 A 
ENDROOT
BRANCH   6  14
ATOM     14  N   LIG    1       27.161 -16.456   3.308  0.00  0.00    -0.341 N 
ATOM     15  H   LIG    1       27.429 -16.587   2.337  0.00  0.00    +0.144 HD
ATOM     16  H   LIG    1       26.334 -15.908   3.497  0.00  0.00    +0.144 HD
ENDBRANCH   6  14
BRANCH   1  17
ATOM     17  C   LIG    1       24.275 -21.567   4.847  0.00  0.00    +0.126 C 
BRANCH  17  19
ATOM     18  C   LIG    1       23.520 -20.597   7.034  0.00  0.00    +0.009 C 
ATOM     19  C   LIG    1       23.071 -21.354   5.781  0.00  0.00    +0.003 C 
ATOM     20  C   LIG    1       21.936 -20.579   5.104  0.00  0.00    +0.009 C 
ENDBRANCH  17  19
ENDBRANCH   1  17
TORSDOF 3
ENDMDL
MODEL 3
REMARK VINA RESULT:      -3.7      1.502      3.586
REMARK  Name = *****
REMARK                            x       y       z     vdW  Elec       q    Type
REMARK                         _______ _______ _______ _____ _____    ______ ____
ROOT
ATOM      1  N   LIG    1       26.721 -18.165   4.078  0.00  0.00    -0.329 N 
ATOM      2  C   LIG    1       26.071 -19.201   4.718  0.00  0.00    +0.081 A 
ATOM      3  C   LIG    1       24.741 -19.713   4.769  0.00  0.00    +0.026 A 
ATOM      4  C   LIG    1       24.561 -20.811   5.649  0.00  0.00    +0.075 A 
ATOM      5  N   LIG    1       25.538 -21.371   6.377  0.00  0.00    -0.230 NA
ATOM      6  C   LIG    1       26.803 -20.911   6.291  0.00  0.00    +0.144 A 
ATOM      7  C   LIG    1       23.287 -21.346   5.773  0.00  0.00    +0.028 A 
ATOM      8  C   LIG    1       22.197 -20.844   5.056  0.00  0.00    +0.002 A 
ATOM      9  C   LIG    1       22.379 -19.780   4.182  0.00  0.00    +0.001 A 
ATOM     10  C   LIG    1       23.644 -19.214   4.031  0.00  0.00    +0.012 A 
ATOM     11  C   LIG    1       27.088 -19.798   5.473  0.00  0.00    +0.129 A 
ATOM     12  N   LIG    1       28.295 -19.151   5.301  0.00  0.00    -0.232 NA
ATOM     13  C   LIG    1       28.038 -18.178   4.466  0.00  0.00    +0.200 A 
ENDROOT
BRANCH   6  14
ATOM     14  N   LIG    1       27.775 -21.543   7.062  0.00  0.00    -0.341 N 
ATOM     15  H   LIG    1       27.407 -22.358   7.544  0.00  0.00    +0.144 HD
ATOM     16  H   LIG    1       28.634 -21.652   6.542  0.00  0.00    +0.144 HD
ENDBRANCH   6  14
BRANCH   1  17
ATOM     17  C   LIG    1       26.186 -17.137   3.205  0.00  0.00    +0.126 C 
BRANCH  17  19
ATOM     18  C   LIG    1       27.103 -14.806   3.059  0.00  0.00    +0.009 C 
ATOM     19  C   LIG    1       26.158 -15.731   3.831  0.00  0.00    +0.003 C 
ATOM     20  C   LIG    1       24.752 -15.123   3.835  0.00  0.00    +0.009 C 
ENDBRANCH  17  19
ENDBRANCH   1  17
TORSDOF 3
ENDMDL
MODEL 4
REMARK VINA RESULT:      -2.4      1.810      4.679
REMARK  Name = *****
REMARK                            x       y       z     vdW  Elec       q    Type
REMARK                         _______ _______ _______ _____ _____    ______ ____
ROOT
ATOM      1  N   LIG    1       24.824 -20.389   4.455  0.00  0.00    -0.329 N 
ATOM      2  C   LIG    1       25.907 -19.544   4.595  0.00  0.00    +0.081 A 
ATOM      3  C   LIG    1       26.251 -18.225   4.176  0.00  0.00    +0.026 A 
ATOM      4  C   LIG    1       27.555 -17.806   4.546  0.00  0.00    +0.075 A 
ATOM      5  N   LIG    1       28.420 -18.547   5.254  0.00  0.00    -0.230 NA
ATOM      6  C   LIG    1       28.073 -19.777   5.686  0.00  0.00    +0.144 A 
ATOM      7  C   LIG    1       27.972 -16.544   4.149  0.00  0.00    +0.028 A 
ATOM      8  C   LIG    1       27.148 -15.687   3.414  0.00  0.00    +0.002 A 
ATOM      9  C   LIG    1       25.867 -16.092   3.067  0.00  0.00    +0.001 A 
ATOM     10  C   LIG    1       25.411 -17.354   3.446  0.00  0.00    +0.012 A 
ATOM     11  C   LIG    1       26.811 -20.308   5.343  0.00  0.00    +0.129 A 
ATOM     12  N   LIG    1       26.302 -21.556   5.637  0.00  0.00    -0.232 NA
ATOM     13  C   LIG    1       25.116 -21.572   5.087  0.00  0.00    +0.200 A 
ENDROOT
BRANCH   6  14
ATOM     14  N   LIG    1       29.010 -20.490   6.427  0.00  0.00    -0.341 N 
ATOM     15  H   LIG    1       28.633 -21.367   6.774  0.00  0.00    +0.144 HD
ATOM     16  H   LIG    1       29.902 -20.516   5.954  0.00  0.00    +0.144 HD
ENDBRANCH   6  14
BRANCH   1  17
ATOM     17  C   LIG    1       23.589 -20.194   3.717  0.00  0.00    +0.126 C 
BRANCH  17  19
ATOM     18  C   LIG    1       22.708 -20.083   6.063  0.00  0.00    +0.009 C 
ATOM     19  C   LIG    1       22.387 -19.801   4.593  0.00  0.00    +0.003 C 
ATOM     20  C   LIG    1       22.008 -18.325   4.435  0.00  0.00    +0.009 C 
ENDBRANCH  17  19
ENDBRANCH   1  17
TORSDOF 3
ENDMDL
MODEL 5
REMARK VINA RESULT:      -2.0      2.460      4.408
REMARK  Name = *****
REMARK                            x       y       z     vdW  Elec       q    Type
REMARK                         _______ _______ _______ _____ _____    ______ ____
ROOT
ATOM      1  N   LIG    1       26.195 -15.704   3.432  0.00  0.00    -0.329 N 
ATOM      2  C   LIG    1       26.338 -17.021   3.820  0.00  0.00    +0.081 A 
ATOM      3  C   LIG    1       25.520 -18.188   3.839  0.00  0.00    +0.026 A 
ATOM      4  C   LIG    1       26.135 -19.336   4.403  0.00  0.00    +0.075 A 
ATOM      5  N   LIG    1       27.391 -19.373   4.870  0.00  0.00    -0.230 NA
ATOM      6  C   LIG    1       28.176 -18.278   4.809  0.00  0.00    +0.144 A 
ATOM      7  C   LIG    1       25.391 -20.504   4.481  0.00  0.00    +0.028 A 
ATOM      8  C   LIG    1       24.074 -20.578   4.018  0.00  0.00    +0.002 A 
ATOM      9  C   LIG    1       23.479 -19.458   3.452  0.00  0.00    +0.001 A 
ATOM     10  C   LIG    1       24.194 -18.265   3.356  0.00  0.00    +0.012 A 
ATOM     11  C   LIG    1       27.653 -17.070   4.300  0.00  0.00    +0.129 A 
ATOM     12  N   LIG    1       28.273 -15.841   4.212  0.00  0.00    -0.232 NA
ATOM     13  C   LIG    1       27.372 -15.047   3.694  0.00  0.00    +0.200 A 
ENDROOT
BRANCH   6  14
ATOM     14  N   LIG    1       29.475 -18.384   5.298  0.00  0.00    -0.341 N 
ATOM     15  H   LIG    1       29.839 -19.328   5.210  0.00  0.00    +0.144 HD
ATOM     16  H   LIG    1       30.051 -17.625   4.963  0.00  0.00    +0.144 HD
ENDBRANCH   6  14
BRANCH   1  17
ATOM     17  C   LIG    1       25.028 -15.014   2.916  0.00  0.00    +0.126 C 
BRANCH  17  19
ATOM     18  C   LIG    1       23.842 -12.835   3.291  0.00  0.00    +0.009 C 
ATOM     19  C   LIG    1       24.304 -14.137   3.953  0.00  0.00    +0.003 C 
ATOM     20  C   LIG    1       23.094 -14.843   4.572  0.00  0.00    +0.009 C 
ENDBRANCH  17  19
ENDBRANCH   1  17
TORSDOF 3
ENDMDL
MODEL 6
REMARK VINA RESULT:      -1.3      2.317      5.630
REMARK  Name = *****
REMARK                            x       y       z     vdW  Elec       q    Type
REMARK                         _______ _______ _______ _____ _____    ______ ____
ROOT
ATOM      1  N   LIG    1       24.911 -18.632   3.742  0.00  0.00    -0.329 N 
ATOM      2  C   LIG    1       25.845 -17.623   3.868  0.00  0.00    +0.081 A 
ATOM      3  C   LIG    1       25.872 -16.210   3.677  0.00  0.00    +0.026 A 
ATOM      4  C   LIG    1       27.136 -15.605   3.900  0.00  0.00    +0.075 A 
ATOM      5  N   LIG    1       28.238 -16.265   4.284  0.00  0.00    -0.230 NA
ATOM      6  C   LIG    1       28.195 -17.595   4.507  0.00  0.00    +0.144 A 
ATOM      7  C   LIG    1       27.247 -14.236   3.707  0.00  0.00    +0.028 A 
ATOM      8  C   LIG    1       26.160 -13.450   3.314  0.00  0.00    +0.002 A 
ATOM      9  C   LIG    1       24.920 -14.041   3.111  0.00  0.00    +0.001 A 
ATOM     10  C   LIG    1       24.767 -15.415   3.294  0.00  0.00    +0.012 A 
ATOM     11  C   LIG    1       26.997 -18.303   4.280  0.00  0.00    +0.129 A 
ATOM     12  N   LIG    1       26.773 -19.661   4.392  0.00  0.00    -0.232 NA
ATOM     13  C   LIG    1       25.519 -19.822   4.059  0.00  0.00    +0.200 A 
ENDROOT
BRANCH   6  14
ATOM     14  N   LIG    1       29.369 -18.220   4.917  0.00  0.00    -0.341 N 
ATOM     15  H   LIG    1       29.924 -18.542   4.130  0.00  0.00    +0.144 HD
ATOM     16  H   LIG    1       29.836 -17.679   5.631  0.00  0.00    +0.144 HD
ENDBRANCH   6  14
BRANCH   1  17
ATOM     17  C   LIG    1       23.538 -18.569   3.279  0.00  0.00    +0.126 C 
BRANCH  17  19
ATOM     18  C   LIG    1       21.086 -18.593   3.809  0.00  0.00    +0.009 C 
ATOM     19  C   LIG    1       22.493 -18.523   4.408  0.00  0.00    +0.003 C 
ATOM     20  C   LIG    1       22.670 -19.665   5.413  0.00  0.00    +0.009 C 
ENDBRANCH  17  19
ENDBRANCH   1  17
TORSDOF 3
ENDMDL
