MODEL 1
REMARK VINA RESULT:      10.7      0.000      0.000
REMARK  Name = *****
REMARK                            x       y       z     vdW  Elec       q    Type
REMARK                         _______ _______ _______ _____ _____    ______ ____
ROOT
ATOM      1  O   LIG    1       27.584 -14.306   1.812  0.00  0.00    -0.245 OA
ATOM      2  C   LIG    1       27.133 -14.827   2.809  0.00  0.00    +0.341 C 
ATOM      3  C   LIG    1       27.045 -14.233   4.131  0.00  0.00    +0.067 A 
ATOM      4  C   LIG    1       26.539 -15.166   5.014  0.00  0.00    +0.019 A 
ATOM      5  C   LIG    1       26.391 -14.825   6.354  0.00  0.00    +0.009 A 
ATOM      6  C   LIG    1       26.720 -13.525   6.759  0.00  0.00    +0.001 A 
ATOM      7  C   LIG    1       27.225 -12.592   5.841  0.00  0.00    +0.001 A 
ATOM      8  C   LIG    1       26.229 -16.437   4.277  0.00  0.00    +0.190 C 
ATOM      9  C   LIG    1       27.405 -12.948   4.506  0.00  0.00    +0.015 A 
ATOM     10  O   LIG    1       26.650 -16.094   2.916  0.00  0.00    -0.440 OA
ENDROOT
BRANCH   8  11
ATOM     11  C   LIG    1       27.103 -17.614   4.760  0.00  0.00    +0.005 A 
ATOM     12  C   LIG    1       28.447 -17.422   5.138  0.00  0.00    +0.012 A 
ATOM     13  C   LIG    1       29.223 -18.486   5.605  0.00  0.00    +0.046 A 
ATOM     14  C   LIG    1       28.679 -19.760   5.677  0.00  0.00    +0.117 A 
ATOM     15  C   LIG    1       27.367 -19.991   5.290  0.00  0.00    +0.046 A 
ATOM     16  C   LIG    1       26.586 -18.924   4.834  0.00  0.00    +0.012 A 
BRANCH  14  17
ATOM     17  O   LIG    1       29.475 -20.767   6.136  0.00  0.00    -0.507 OA
ATOM     18  H   LIG    1       29.234 -21.588   5.675  0.00  0.00    +0.292 HD
ENDBRANCH  14  17
ENDBRANCH   8  11
BRANCH   8  19
ATOM     19  C   LIG    1       24.735 -16.795   4.139  0.00  0.00    +0.005 A 
ATOM     20  C   LIG    1       23.695 -15.871   4.348  0.00  0.00    +0.012 A 
ATOM     21  C   LIG    1       22.354 -16.253   4.239  0.00  0.00    +0.046 A 
ATOM     22  C   LIG    1       22.031 -17.562   3.913  0.00  0.00    +0.117 A 
ATOM     23  C   LIG    1       23.029 -18.503   3.697  0.00  0.00    +0.046 A 
ATOM     24  C   LIG    1       24.369 -18.119   3.805  0.00  0.00    +0.012 A 
BRANCH  22  25
ATOM     25  O   LIG    1       20.711 -17.884   3.813  0.00  0.00    -0.507 OA
ATOM     26  H   LIG    1       20.540 -18.210   2.915  0.00  0.00    +0.292 HD
ENDBRANCH  22  25
ENDBRANCH   8  19
TORSDOF 4
ENDMDL
MODEL 2
REMARK VINA RESULT:      10.9      2.448      5.624
REMARK  Name = *****
REMARK                            x       y       z     vdW  Elec       q    Type
REMARK                         _______ _______ _______ _____ _____    ______ ____
ROOT
ATOM      1  O   LIG    1       26.848 -20.103   1.812  0.00  0.00    -0.245 OA
ATOM      2  C   LIG    1       26.223 -19.666   2.754  0.00  0.00    +0.341 C 
ATOM      3  C   LIG    1       26.527 -19.865   4.160  0.00  0.00    +0.067 A 
ATOM      4  C   LIG    1       25.543 -19.270   4.925  0.00  0.00    +0.019 A 
ATOM      5  C   LIG    1       25.611 -19.357   6.311  0.00  0.00    +0.009 A 
ATOM      6  C   LIG    1       26.706 -20.010   6.892  0.00  0.00    +0.001 A 
ATOM      7  C   LIG    1       27.698 -20.600   6.094  0.00  0.00    +0.001 A 
ATOM      8  C   LIG    1       24.543 -18.604   4.024  0.00  0.00    +0.190 C 
ATOM      9  C   LIG    1       27.607 -20.541   4.704  0.00  0.00    +0.015 A 
ATOM     10  O   LIG    1       25.080 -18.930   2.701  0.00  0.00    -0.440 OA
ENDROOT
BRANCH   8  11
ATOM     11  C   LIG    1       23.143 -19.245   4.137  0.00  0.00    +0.005 A 
ATOM     12  C   LIG    1       21.989 -18.569   3.692  0.00  0.00    +0.012 A 
ATOM     13  C   LIG    1       20.729 -19.169   3.768  0.00  0.00    +0.046 A 
ATOM     14  C   LIG    1       20.599 -20.438   4.313  0.00  0.00    +0.117 A 
ATOM     15  C   LIG    1       21.710 -21.123   4.782  0.00  0.00    +0.046 A 
ATOM     16  C   LIG    1       22.973 -20.529   4.696  0.00  0.00    +0.012 A 
BRANCH  14  17
ATOM     17  O   LIG    1       19.350 -20.981   4.369  0.00  0.00    -0.507 OA
ATOM     18  H   LIG    1       19.435 -21.945   4.465  0.00  0.00    +0.292 HD
ENDBRANCH  14  17
ENDBRANCH   8  11
BRANCH   8  19
ATOM     19  C   LIG    1       24.519 -17.061   4.059  0.00  0.00    +0.005 A 
ATOM     20  C   LIG    1       23.389 -16.313   4.439  0.00  0.00    +0.012 A 
ATOM     21  C   LIG    1       23.410 -14.915   4.427  0.00  0.00    +0.046 A 
ATOM     22  C   LIG    1       24.560 -14.243   4.042  0.00  0.00    +0.117 A 
ATOM     23  C   LIG    1       25.696 -14.946   3.663  0.00  0.00    +0.046 A 
ATOM     24  C   LIG    1       25.674 -16.343   3.676  0.00  0.00    +0.012 A 
BRANCH  22  25
ATOM     25  O   LIG    1       24.532 -12.880   4.052  0.00  0.00    -0.507 OA
ATOM     26  H   LIG    1       24.615 -12.563   3.138  0.00  0.00    +0.292 HD
ENDBRANCH  22  25
ENDBRANCH   8  19
TORSDOF 4
ENDMDL
