MODEL 1
REMARK VINA RESULT:      -9.5      0.000      0.000
REMARK  Name = *****
REMARK                            x       y       z     vdW  Elec       q    Type
REMARK                         _______ _______ _______ _____ _____    ______ ____
ROOT
ATOM      1  O   LIG    1       28.735 -20.176   8.386  0.00  0.00    -0.273 OA
ATOM      2  C   LIG    1       27.648 -20.405   7.865  0.00  0.00    +0.241 C 
ATOM      3  N   LIG    1       27.470 -20.354   6.459  0.00  0.00    -0.261 N 
ATOM      4  C   LIG    1       26.166 -20.372   5.864  0.00  0.00    +0.046 A 
ATOM      5  C   LIG    1       25.130 -21.188   6.368  0.00  0.00    +0.023 A 
ATOM      6  C   LIG    1       23.808 -21.067   5.909  0.00  0.00    +0.032 A 
ATOM      7  C   LIG    1       23.545 -20.285   4.797  0.00  0.00    +0.042 A 
ATOM      8  C   LIG    1       24.568 -19.554   4.206  0.00  0.00    +0.022 A 
ATOM      9 CL   LIG    1       21.967 -20.273   4.119  0.00  0.00    -0.084 Cl
ATOM     10  C   LIG    1       25.424 -22.293   7.323  0.00  0.00    +0.075 C 
ATOM     11  N   LIG    1       25.996 -22.077   8.466  0.00  0.00    -0.273 NA
ATOM     12  C   LIG    1       25.849 -19.548   4.775  0.00  0.00    +0.026 A 
ATOM     13  C   LIG    1       26.425 -20.703   8.736  0.00  0.00    +0.238 C 
ENDROOT
BRANCH  10  14
ATOM     14  C   LIG    1       25.089 -23.716   6.935  0.00  0.00    +0.001 A 
ATOM     15  C   LIG    1       26.120 -24.661   6.838  0.00  0.00    +0.010 A 
ATOM     16  C   LIG    1       25.846 -25.982   6.465  0.00  0.00    +0.001 A 
ATOM     17  C   LIG    1       24.537 -26.380   6.201  0.00  0.00    +0.000 A 
ATOM     18  C   LIG    1       23.506 -25.453   6.279  0.00  0.00    +0.001 A 
ATOM     19  C   LIG    1       23.785 -24.127   6.616  0.00  0.00    +0.010 A 
ENDBRANCH  10  14
BRANCH   3  20
ATOM     20  C   LIG    1       28.711 -20.028   5.730  0.00  0.00    +0.226 C 
BRANCH  20  21
ATOM     21  C   LIG    1       29.307 -18.622   5.596  0.00  0.00    +0.406 C 
ATOM     22  F   LIG    1       28.570 -17.862   4.749  0.00  0.00    -0.169 F 
ATOM     23  F   LIG    1       30.555 -18.702   5.065  0.00  0.00    -0.169 F 
ATOM     24  F   LIG    1       29.406 -17.927   6.744  0.00  0.00    -0.169 F 
ENDBRANCH  20  21
ENDBRANCH   3  20
TORSDOF 3
ENDMDL
MODEL 2
REMARK VINA RESULT:      -8.3      4.263      6.320
REMARK  Name = *****
REMARK                            x       y       z     vdW  Elec       q    Type
REMARK                         _______ _______ _______ _____ _____    ______ ____
ROOT
ATOM      1  O   LIG    1       23.200 -25.523   6.163  0.00  0.00    -0.273 OA
ATOM      2  C   LIG    1       23.717 -24.451   6.461  0.00  0.00    +0.241 C 
ATOM      3  N   LIG    1       25.052 -24.140   6.097  0.00  0.00    -0.261 N 
ATOM      4  C   LIG    1       25.740 -23.011   6.649  0.00  0.00    +0.046 A 
ATOM      5  C   LIG    1       25.089 -21.778   6.867  0.00  0.00    +0.023 A 
ATOM      6  C   LIG    1       25.704 -20.735   7.578  0.00  0.00    +0.032 A 
ATOM      7  C   LIG    1       27.049 -20.831   7.895  0.00  0.00    +0.042 A 
ATOM      8  C   LIG    1       27.750 -21.992   7.594  0.00  0.00    +0.022 A 
ATOM      9 CL   LIG    1       27.855 -19.490   8.603  0.00  0.00    -0.084 Cl
ATOM     10  C   LIG    1       23.765 -21.492   6.245  0.00  0.00    +0.075 C 
ATOM     11  N   LIG    1       22.728 -22.236   6.469  0.00  0.00    -0.273 NA
ATOM     12  C   LIG    1       27.084 -23.093   7.037  0.00  0.00    +0.026 A 
ATOM     13  C   LIG    1       22.940 -23.427   7.293  0.00  0.00    +0.238 C 
ENDROOT
BRANCH  10  14
ATOM     14  C   LIG    1       23.632 -20.329   5.286  0.00  0.00    +0.001 A 
ATOM     15  C   LIG    1       22.472 -19.545   5.316  0.00  0.00    +0.010 A 
ATOM     16  C   LIG    1       22.311 -18.472   4.431  0.00  0.00    +0.001 A 
ATOM     17  C   LIG    1       23.315 -18.160   3.517  0.00  0.00    +0.000 A 
ATOM     18  C   LIG    1       24.465 -18.937   3.464  0.00  0.00    +0.001 A 
ATOM     19  C   LIG    1       24.609 -20.028   4.323  0.00  0.00    +0.010 A 
ENDBRANCH  10  14
BRANCH   3  20
ATOM     20  C   LIG    1       25.706 -25.215   5.326  0.00  0.00    +0.226 C 
BRANCH  20  21
ATOM     21  C   LIG    1       26.230 -26.528   5.919  0.00  0.00    +0.406 C 
ATOM     22  F   LIG    1       27.544 -26.697   5.634  0.00  0.00    -0.169 F 
ATOM     23  F   LIG    1       25.571 -27.577   5.363  0.00  0.00    -0.169 F 
ATOM     24  F   LIG    1       26.111 -26.645   7.253  0.00  0.00    -0.169 F 
ENDBRANCH  20  21
ENDBRANCH   3  20
TORSDOF 3
ENDMDL
MODEL 3
REMARK VINA RESULT:      -8.2      3.168      5.371
REMARK  Name = *****
REMARK                            x       y       z     vdW  Elec       q    Type
REMARK                         _______ _______ _______ _____ _____    ______ ____
ROOT
ATOM      1  O   LIG    1       22.572 -19.666   6.162  0.00  0.00    -0.273 OA
ATOM      2  C   LIG    1       23.363 -20.575   6.393  0.00  0.00    +0.241 C 
ATOM      3  N   LIG    1       23.923 -21.359   5.353  0.00  0.00    -0.261 N 
ATOM      4  C   LIG    1       24.642 -22.569   5.625  0.00  0.00    +0.046 A 
ATOM      5  C   LIG    1       25.520 -22.680   6.724  0.00  0.00    +0.023 A 
ATOM      6  C   LIG    1       26.076 -23.913   7.102  0.00  0.00    +0.032 A 
ATOM      7  C   LIG    1       25.934 -25.007   6.263  0.00  0.00    +0.042 A 
ATOM      8  C   LIG    1       25.166 -24.900   5.110  0.00  0.00    +0.022 A 
ATOM      9 CL   LIG    1       26.760 -26.469   6.623  0.00  0.00    -0.084 Cl
ATOM     10  C   LIG    1       25.985 -21.469   7.457  0.00  0.00    +0.075 C 
ATOM     11  N   LIG    1       25.156 -20.652   8.026  0.00  0.00    -0.273 NA
ATOM     12  C   LIG    1       24.474 -23.712   4.832  0.00  0.00    +0.026 A 
ATOM     13  C   LIG    1       23.730 -20.926   7.837  0.00  0.00    +0.238 C 
ENDROOT
BRANCH  10  14
ATOM     14  C   LIG    1       27.464 -21.152   7.502  0.00  0.00    +0.001 A 
ATOM     15  C   LIG    1       28.006 -20.274   6.554  0.00  0.00    +0.010 A 
ATOM     16  C   LIG    1       29.374 -19.974   6.558  0.00  0.00    +0.001 A 
ATOM     17  C   LIG    1       30.212 -20.534   7.519  0.00  0.00    +0.000 A 
ATOM     18  C   LIG    1       29.694 -21.417   8.456  0.00  0.00    +0.001 A 
ATOM     19  C   LIG    1       28.337 -21.744   8.429  0.00  0.00    +0.010 A 
ENDBRANCH  10  14
BRANCH   3  20
ATOM     20  C   LIG    1       23.472 -20.946   4.010  0.00  0.00    +0.226 C 
BRANCH  20  21
ATOM     21  C   LIG    1       24.133 -19.854   3.159  0.00  0.00    +0.406 C 
ATOM     22  F   LIG    1       25.331 -19.494   3.680  0.00  0.00    -0.169 F 
ATOM     23  F   LIG    1       23.355 -18.741   3.158  0.00  0.00    -0.169 F 
ATOM     24  F   LIG    1       24.358 -20.184   1.875  0.00  0.00    -0.169 F 
ENDBRANCH  20  21
ENDBRANCH   3  20
TORSDOF 3
ENDMDL
MODEL 4
REMARK VINA RESULT:      -6.8      7.491      9.579
REMARK  Name = *****
REMARK                            x       y       z     vdW  Elec       q    Type
REMARK                         _______ _______ _______ _____ _____    ______ ____
ROOT
ATOM      1  O   LIG    1       24.815 -31.047  11.357  0.00  0.00    -0.273 OA
ATOM      2  C   LIG    1       24.696 -30.535  10.248  0.00  0.00    +0.241 C 
ATOM      3  N   LIG    1       25.785 -29.900   9.599  0.00  0.00    -0.261 N 
ATOM      4  C   LIG    1       25.598 -29.091   8.432  0.00  0.00    +0.046 A 
ATOM      5  C   LIG    1       24.684 -29.448   7.418  0.00  0.00    +0.023 A 
ATOM      6  C   LIG    1       24.362 -28.567   6.373  0.00  0.00    +0.032 A 
ATOM      7  C   LIG    1       25.104 -27.409   6.208  0.00  0.00    +0.042 A 
ATOM      8  C   LIG    1       26.091 -27.082   7.129  0.00  0.00    +0.022 A 
ATOM      9 CL   LIG    1       24.839 -26.417   4.831  0.00  0.00    -0.084 Cl
ATOM     10  C   LIG    1       24.114 -30.823   7.353  0.00  0.00    +0.075 C 
ATOM     11  N   LIG    1       23.436 -31.330   8.333  0.00  0.00    -0.273 NA
ATOM     12  C   LIG    1       26.289 -27.882   8.263  0.00  0.00    +0.026 A 
ATOM     13  C   LIG    1       23.334 -30.521   9.549  0.00  0.00    +0.238 C 
ENDROOT
BRANCH  10  14
ATOM     14  C   LIG    1       24.369 -31.674   6.128  0.00  0.00    +0.001 A 
ATOM     15  C   LIG    1       23.454 -32.678   5.788  0.00  0.00    +0.010 A 
ATOM     16  C   LIG    1       23.670 -33.493   4.670  0.00  0.00    +0.001 A 
ATOM     17  C   LIG    1       24.795 -33.304   3.870  0.00  0.00    +0.000 A 
ATOM     18  C   LIG    1       25.719 -32.322   4.202  0.00  0.00    +0.001 A 
ATOM     19  C   LIG    1       25.521 -31.534   5.337  0.00  0.00    +0.010 A 
ENDBRANCH  10  14
BRANCH   3  20
ATOM     20  C   LIG    1       27.035 -29.952  10.383  0.00  0.00    +0.226 C 
BRANCH  20  21
ATOM     21  C   LIG    1       27.464 -28.907  11.421  0.00  0.00    +0.406 C 
ATOM     22  F   LIG    1       28.808 -28.923  11.595  0.00  0.00    -0.169 F 
ATOM     23  F   LIG    1       26.910 -29.204  12.625  0.00  0.00    -0.169 F 
ATOM     24  F   LIG    1       27.131 -27.637  11.131  0.00  0.00    -0.169 F 
ENDBRANCH  20  21
ENDBRANCH   3  20
TORSDOF 3
ENDMDL
MODEL 5
REMARK VINA RESULT:      -6.7      6.918      9.422
REMARK  Name = *****
REMARK                            x       y       z     vdW  Elec       q    Type
REMARK                         _______ _______ _______ _____ _____    ______ ____
ROOT
ATOM      1  O   LIG    1       24.826 -29.144   4.781  0.00  0.00    -0.273 OA
ATOM      2  C   LIG    1       25.044 -29.482   5.940  0.00  0.00    +0.241 C 
ATOM      3  N   LIG    1       25.107 -28.534   6.994  0.00  0.00    -0.261 N 
ATOM      4  C   LIG    1       25.603 -28.884   8.292  0.00  0.00    +0.046 A 
ATOM      5  C   LIG    1       25.307 -30.127   8.891  0.00  0.00    +0.023 A 
ATOM      6  C   LIG    1       25.942 -30.546  10.072  0.00  0.00    +0.032 A 
ATOM      7  C   LIG    1       26.719 -29.645  10.782  0.00  0.00    +0.042 A 
ATOM      8  C   LIG    1       26.940 -28.371  10.273  0.00  0.00    +0.022 A 
ATOM      9 CL   LIG    1       27.352 -30.089  12.315  0.00  0.00    -0.084 Cl
ATOM     10  C   LIG    1       24.219 -30.993   8.357  0.00  0.00    +0.075 C 
ATOM     11  N   LIG    1       24.226 -31.427   7.137  0.00  0.00    -0.273 NA
ATOM     12  C   LIG    1       26.442 -28.020   9.011  0.00  0.00    +0.026 A 
ATOM     13  C   LIG    1       25.311 -30.951   6.276  0.00  0.00    +0.238 C 
ENDROOT
BRANCH  10  14
ATOM     14  C   LIG    1       23.044 -31.340   9.246  0.00  0.00    +0.001 A 
ATOM     15  C   LIG    1       22.468 -32.614   9.154  0.00  0.00    +0.010 A 
ATOM     16  C   LIG    1       21.370 -32.960   9.950  0.00  0.00    +0.001 A 
ATOM     17  C   LIG    1       20.845 -32.044  10.860  0.00  0.00    +0.000 A 
ATOM     18  C   LIG    1       21.396 -30.773  10.953  0.00  0.00    +0.001 A 
ATOM     19  C   LIG    1       22.468 -30.416  10.132  0.00  0.00    +0.010 A 
ENDBRANCH  10  14
BRANCH   3  20
ATOM     20  C   LIG    1       24.865 -27.151   6.543  0.00  0.00    +0.226 C 
BRANCH  20  21
ATOM     21  C   LIG    1       25.952 -26.176   6.075  0.00  0.00    +0.406 C 
ATOM     22  F   LIG    1       26.098 -25.155   6.954  0.00  0.00    -0.169 F 
ATOM     23  F   LIG    1       25.591 -25.623   4.888  0.00  0.00    -0.169 F 
ATOM     24  F   LIG    1       27.174 -26.713   5.908  0.00  0.00    -0.169 F 
ENDBRANCH  20  21
ENDBRANCH   3  20
TORSDOF 3
ENDMDL
MODEL 6
REMARK VINA RESULT:      -6.7      8.915     10.913
REMARK  Name = *****
REMARK                            x       y       z     vdW  Elec       q    Type
REMARK                         _______ _______ _______ _____ _____    ______ ____
ROOT
ATOM      1  O   LIG    1       25.606 -33.534   9.204  0.00  0.00    -0.273 OA
ATOM      2  C   LIG    1       25.748 -32.331   9.010  0.00  0.00    +0.241 C 
ATOM      3  N   LIG    1       24.681 -31.519   8.547  0.00  0.00    -0.261 N 
ATOM      4  C   LIG    1       24.898 -30.181   8.084  0.00  0.00    +0.046 A 
ATOM      5  C   LIG    1       25.812 -29.313   8.720  0.00  0.00    +0.023 A 
ATOM      6  C   LIG    1       26.166 -28.075   8.158  0.00  0.00    +0.032 A 
ATOM      7  C   LIG    1       25.455 -27.596   7.070  0.00  0.00    +0.042 A 
ATOM      8  C   LIG    1       24.469 -28.381   6.486  0.00  0.00    +0.022 A 
ATOM      9 CL   LIG    1       25.758 -26.008   6.489  0.00  0.00    -0.084 Cl
ATOM     10  C   LIG    1       26.346 -29.626  10.075  0.00  0.00    +0.075 C 
ATOM     11  N   LIG    1       27.002 -30.717  10.317  0.00  0.00    -0.273 NA
ATOM     12  C   LIG    1       24.241 -29.685   6.949  0.00  0.00    +0.026 A 
ATOM     13  C   LIG    1       27.115 -31.674   9.215  0.00  0.00    +0.238 C 
ENDROOT
BRANCH  10  14
ATOM     14  C   LIG    1       26.079 -28.670  11.216  0.00  0.00    +0.001 A 
ATOM     15  C   LIG    1       24.879 -28.775  11.932  0.00  0.00    +0.010 A 
ATOM     16  C   LIG    1       24.594 -27.894  12.983  0.00  0.00    +0.001 A 
ATOM     17  C   LIG    1       25.512 -26.910  13.342  0.00  0.00    +0.000 A 
ATOM     18  C   LIG    1       26.700 -26.783  12.633  0.00  0.00    +0.001 A 
ATOM     19  C   LIG    1       26.967 -27.638  11.562  0.00  0.00    +0.010 A 
ENDBRANCH  10  14
BRANCH   3  20
ATOM     20  C   LIG    1       23.424 -32.269   8.359  0.00  0.00    +0.226 C 
BRANCH  20  21
ATOM     21  C   LIG    1       22.328 -32.427   9.420  0.00  0.00    +0.406 C 
ATOM     22  F   LIG    1       22.816 -33.025  10.534  0.00  0.00    -0.169 F 
ATOM     23  F   LIG    1       21.342 -33.231   8.944  0.00  0.00    -0.169 F 
ATOM     24  F   LIG    1       21.748 -31.282   9.823  0.00  0.00    -0.169 F 
ENDBRANCH  20  21
ENDBRANCH   3  20
TORSDOF 3
ENDMDL
MODEL 7
REMARK VINA RESULT:      -6.6      7.291      9.450
REMARK  Name = *****
REMARK                            x       y       z     vdW  Elec       q    Type
REMARK                         _______ _______ _______ _____ _____    ______ ____
ROOT
ATOM      1  O   LIG    1       28.822 -29.588  11.842  0.00  0.00    -0.273 OA
ATOM      2  C   LIG    1       27.695 -29.738  11.381  0.00  0.00    +0.241 C 
ATOM      3  N   LIG    1       26.588 -28.988  11.856  0.00  0.00    -0.261 N 
ATOM      4  C   LIG    1       25.241 -29.328  11.505  0.00  0.00    +0.046 A 
ATOM      5  C   LIG    1       24.899 -29.764  10.206  0.00  0.00    +0.023 A 
ATOM      6  C   LIG    1       23.625 -30.276   9.913  0.00  0.00    +0.032 A 
ATOM      7  C   LIG    1       22.614 -30.162  10.854  0.00  0.00    +0.042 A 
ATOM      8  C   LIG    1       22.892 -29.632  12.107  0.00  0.00    +0.022 A 
ATOM      9 CL   LIG    1       21.011 -30.618  10.441  0.00  0.00    -0.084 Cl
ATOM     10  C   LIG    1       25.843 -29.587   9.067  0.00  0.00    +0.075 C 
ATOM     11  N   LIG    1       27.031 -30.101   9.075  0.00  0.00    -0.273 NA
ATOM     12  C   LIG    1       24.206 -29.282  12.449  0.00  0.00    +0.026 A 
ATOM     13  C   LIG    1       27.439 -30.792  10.300  0.00  0.00    +0.238 C 
ENDROOT
BRANCH  10  14
ATOM     14  C   LIG    1       25.424 -28.742   7.883  0.00  0.00    +0.001 A 
ATOM     15  C   LIG    1       24.545 -29.281   6.933  0.00  0.00    +0.010 A 
ATOM     16  C   LIG    1       24.152 -28.531   5.818  0.00  0.00    +0.001 A 
ATOM     17  C   LIG    1       24.619 -27.229   5.647  0.00  0.00    +0.000 A 
ATOM     18  C   LIG    1       25.501 -26.687   6.572  0.00  0.00    +0.001 A 
ATOM     19  C   LIG    1       25.921 -27.447   7.664  0.00  0.00    +0.010 A 
ENDBRANCH  10  14
BRANCH   3  20
ATOM     20  C   LIG    1       26.953 -28.028  12.915  0.00  0.00    +0.226 C 
BRANCH  20  21
ATOM     21  C   LIG    1       26.648 -26.525  12.881  0.00  0.00    +0.406 C 
ATOM     22  F   LIG    1       25.401 -26.274  13.349  0.00  0.00    -0.169 F 
ATOM     23  F   LIG    1       26.682 -26.080  11.599  0.00  0.00    -0.169 F 
ATOM     24  F   LIG    1       27.486 -25.752  13.594  0.00  0.00    -0.169 F 
ENDBRANCH  20  21
ENDBRANCH   3  20
TORSDOF 3
ENDMDL
MODEL 8
REMARK VINA RESULT:      -6.6      7.306      9.661
REMARK  Name = *****
REMARK                            x       y       z     vdW  Elec       q    Type
REMARK                         _______ _______ _______ _____ _____    ______ ____
ROOT
ATOM      1  O   LIG    1       24.004 -29.817   5.296  0.00  0.00    -0.273 OA
ATOM      2  C   LIG    1       24.317 -29.957   6.475  0.00  0.00    +0.241 C 
ATOM      3  N   LIG    1       24.749 -28.862   7.266  0.00  0.00    -0.261 N 
ATOM      4  C   LIG    1       25.348 -29.054   8.553  0.00  0.00    +0.046 A 
ATOM      5  C   LIG    1       24.879 -30.035   9.453  0.00  0.00    +0.023 A 
ATOM      6  C   LIG    1       25.579 -30.351  10.629  0.00  0.00    +0.032 A 
ATOM      7  C   LIG    1       26.636 -29.548  11.027  0.00  0.00    +0.042 A 
ATOM      8  C   LIG    1       27.053 -28.501  10.216  0.00  0.00    +0.022 A 
ATOM      9 CL   LIG    1       27.382 -29.816  12.550  0.00  0.00    -0.084 Cl
ATOM     10  C   LIG    1       23.558 -30.691   9.248  0.00  0.00    +0.075 C 
ATOM     11  N   LIG    1       23.281 -31.351   8.168  0.00  0.00    -0.273 NA
ATOM     12  C   LIG    1       26.457 -28.299   8.962  0.00  0.00    +0.026 A 
ATOM     13  C   LIG    1       24.299 -31.346   7.116  0.00  0.00    +0.238 C 
ENDROOT
BRANCH  10  14
ATOM     14  C   LIG    1       22.486 -30.545  10.306  0.00  0.00    +0.001 A 
ATOM     15  C   LIG    1       22.652 -29.597  11.325  0.00  0.00    +0.010 A 
ATOM     16  C   LIG    1       21.687 -29.450  12.328  0.00  0.00    +0.001 A 
ATOM     17  C   LIG    1       20.537 -30.236  12.316  0.00  0.00    +0.000 A 
ATOM     18  C   LIG    1       20.364 -31.190  11.322  0.00  0.00    +0.001 A 
ATOM     19  C   LIG    1       21.343 -31.361  10.343  0.00  0.00    +0.010 A 
ENDBRANCH  10  14
BRANCH   3  20
ATOM     20  C   LIG    1       24.753 -27.583   6.531  0.00  0.00    +0.226 C 
BRANCH  20  21
ATOM     21  C   LIG    1       25.906 -27.075   5.657  0.00  0.00    +0.406 C 
ATOM     22  F   LIG    1       25.449 -26.251   4.683  0.00  0.00    -0.169 F 
ATOM     23  F   LIG    1       26.504 -28.123   5.034  0.00  0.00    -0.169 F 
ATOM     24  F   LIG    1       26.868 -26.399   6.310  0.00  0.00    -0.169 F 
ENDBRANCH  20  21
ENDBRANCH   3  20
TORSDOF 3
ENDMDL
MODEL 9
REMARK VINA RESULT:      -6.5      8.986     10.773
REMARK  Name = *****
REMARK                            x       y       z     vdW  Elec       q    Type
REMARK                         _______ _______ _______ _____ _____    ______ ____
ROOT
ATOM      1  O   LIG    1       23.643 -32.307   8.430  0.00  0.00    -0.273 OA
ATOM      2  C   LIG    1       24.139 -31.743   9.400  0.00  0.00    +0.241 C 
ATOM      3  N   LIG    1       25.083 -30.694   9.251  0.00  0.00    -0.261 N 
ATOM      4  C   LIG    1       25.847 -30.205  10.360  0.00  0.00    +0.046 A 
ATOM      5  C   LIG    1       25.279 -30.052  11.644  0.00  0.00    +0.023 A 
ATOM      6  C   LIG    1       26.068 -29.756  12.768  0.00  0.00    +0.032 A 
ATOM      7  C   LIG    1       27.396 -29.401  12.591  0.00  0.00    +0.042 A 
ATOM      8  C   LIG    1       27.958 -29.434  11.321  0.00  0.00    +0.022 A 
ATOM      9 CL   LIG    1       28.319 -28.863  13.935  0.00  0.00    -0.084 Cl
ATOM     10  C   LIG    1       23.802 -30.080  11.835  0.00  0.00    +0.075 C 
ATOM     11  N   LIG    1       23.087 -31.104  11.490  0.00  0.00    -0.273 NA
ATOM     12  C   LIG    1       27.208 -29.895  10.230  0.00  0.00    +0.026 A 
ATOM     13  C   LIG    1       23.788 -32.199  10.818  0.00  0.00    +0.238 C 
ENDROOT
BRANCH  10  14
ATOM     14  C   LIG    1       23.105 -28.864  12.403  0.00  0.00    +0.001 A 
ATOM     15  C   LIG    1       21.705 -28.798  12.371  0.00  0.00    +0.010 A 
ATOM     16  C   LIG    1       21.031 -27.679  12.874  0.00  0.00    +0.001 A 
ATOM     17  C   LIG    1       21.746 -26.620  13.430  0.00  0.00    +0.000 A 
ATOM     18  C   LIG    1       23.134 -26.663  13.455  0.00  0.00    +0.001 A 
ATOM     19  C   LIG    1       23.807 -27.763  12.921  0.00  0.00    +0.010 A 
ENDBRANCH  10  14
BRANCH   3  20
ATOM     20  C   LIG    1       25.363 -30.365   7.841  0.00  0.00    +0.226 C 
BRANCH  20  21
ATOM     21  C   LIG    1       25.132 -28.991   7.197  0.00  0.00    +0.406 C 
ATOM     22  F   LIG    1       23.813 -28.684   7.173  0.00  0.00    -0.169 F 
ATOM     23  F   LIG    1       25.553 -29.015   5.906  0.00  0.00    -0.169 F 
ATOM     24  F   LIG    1       25.753 -27.962   7.800  0.00  0.00    -0.169 F 
ENDBRANCH  20  21
ENDBRANCH   3  20
TORSDOF 3
ENDMDL
