MODEL 1
REMARK VINA RESULT:      -8.7      0.000      0.000
REMARK  Name = *****
REMARK                            x       y       z     vdW  Elec       q    Type
REMARK                         _______ _______ _______ _____ _____    ______ ____
ROOT
ATOM      1  C   LIG    1       25.708 -20.974   8.141  0.00  0.00    +0.318 C 
ATOM      2  O   LIG    1       25.448 -21.270   9.313  0.00  0.00    -0.250 OA
ENDROOT
BRANCH   1   3
ATOM      3  C   LIG    1       24.791 -21.296   6.967  0.00  0.00    +0.093 C 
ATOM      4  C   LIG    1       23.409 -20.608   7.169  0.00  0.00    +0.023 C 
ATOM      5  C   LIG    1       22.828 -20.398   5.776  0.00  0.00    +0.001 C 
ATOM      6  C   LIG    1       24.016 -20.326   4.830  0.00  0.00    +0.001 C 
ATOM      7  C   LIG    1       25.252 -20.519   5.700  0.00  0.00    +0.023 C 
BRANCH   3   8
ATOM      8  C   LIG    1       24.711 -22.825   6.807  0.00  0.00    -0.031 A 
ATOM      9  C   LIG    1       25.872 -23.606   6.647  0.00  0.00    +0.005 A 
ATOM     10  C   LIG    1       25.797 -24.986   6.424  0.00  0.00    +0.000 A 
ATOM     11  C   LIG    1       24.559 -25.614   6.337  0.00  0.00    +0.000 A 
ATOM     12  C   LIG    1       23.399 -24.862   6.472  0.00  0.00    +0.000 A 
ATOM     13  C   LIG    1       23.476 -23.484   6.695  0.00  0.00    +0.005 A 
ENDBRANCH   3   8
ENDBRANCH   1   3
BRANCH   1  14
ATOM     14  O   LIG    1       26.827 -20.325   7.737  0.00  0.00    -0.462 OA
BRANCH  14  15
ATOM     15  C   LIG    1       28.071 -21.049   7.726  0.00  0.00    +0.260 C 
BRANCH  15  16
ATOM     16  C   LIG    1       28.879 -20.689   6.482  0.00  0.00    +0.201 C 
BRANCH  16  17
ATOM     17  O   LIG    1       28.820 -19.290   6.167  0.00  0.00    -0.375 OA
BRANCH  17  18
ATOM     18  C   LIG    1       29.843 -18.535   6.827  0.00  0.00    +0.175 C 
BRANCH  18  19
ATOM     19  C   LIG    1       31.158 -19.337   6.912  0.00  0.00    +0.112 C 
BRANCH  19  20
ATOM     20  N   LIG    1       31.796 -19.287   8.244  0.00  0.00    -0.301 NA
BRANCH  20  22
ATOM     21  C   LIG    1       31.251 -17.704  10.152  0.00  0.00    +0.020 C 
ATOM     22  C   LIG    1       31.908 -17.926   8.796  0.00  0.00    +0.081 C 
ENDBRANCH  20  22
BRANCH  20  23
ATOM     23  C   LIG    1       31.188 -20.192   9.238  0.00  0.00    +0.081 C 
ATOM     24  C   LIG    1       31.450 -21.685   9.032  0.00  0.00    +0.020 C 
ENDBRANCH  20  23
ENDBRANCH  19  20
ENDBRANCH  18  19
ENDBRANCH  17  18
ENDBRANCH  16  17
ENDBRANCH  15  16
ENDBRANCH  14  15
ENDBRANCH   1  14
TORSDOF 11
ENDMDL
MODEL 2
REMARK VINA RESULT:      -8.7      0.804      3.080
REMARK  Name = *****
REMARK                            x       y       z     vdW  Elec       q    Type
REMARK                         _______ _______ _______ _____ _____    ______ ____
ROOT
ATOM      1  C   LIG    1       25.478 -21.079   8.014  0.00  0.00    +0.318 C 
ATOM      2  O   LIG    1       25.372 -21.304   9.226  0.00  0.00    -0.250 OA
ENDROOT
BRANCH   1   3
ATOM      3  C   LIG    1       24.668 -21.805   6.947  0.00  0.00    +0.093 C 
ATOM      4  C   LIG    1       25.473 -23.025   6.409  0.00  0.00    +0.023 C 
ATOM      5  C   LIG    1       24.442 -24.029   5.905  0.00  0.00    +0.001 C 
ATOM      6  C   LIG    1       23.167 -23.751   6.687  0.00  0.00    +0.001 C 
ATOM      7  C   LIG    1       23.489 -22.580   7.606  0.00  0.00    +0.023 C 
BRANCH   3   8
ATOM      8  C   LIG    1       24.263 -20.793   5.862  0.00  0.00    -0.031 A 
ATOM      9  C   LIG    1       23.017 -20.137   5.899  0.00  0.00    +0.005 A 
ATOM     10  C   LIG    1       22.616 -19.275   4.871  0.00  0.00    +0.000 A 
ATOM     11  C   LIG    1       23.443 -19.064   3.773  0.00  0.00    +0.000 A 
ATOM     12  C   LIG    1       24.668 -19.716   3.703  0.00  0.00    +0.000 A 
ATOM     13  C   LIG    1       25.067 -20.575   4.730  0.00  0.00    +0.005 A 
ENDBRANCH   3   8
ENDBRANCH   1   3
BRANCH   1  14
ATOM     14  O   LIG    1       26.315 -20.164   7.469  0.00  0.00    -0.462 OA
BRANCH  14  15
ATOM     15  C   LIG    1       27.733 -20.339   7.649  0.00  0.00    +0.260 C 
BRANCH  15  16
ATOM     16  C   LIG    1       28.426 -20.459   6.295  0.00  0.00    +0.201 C 
BRANCH  16  17
ATOM     17  O   LIG    1       28.949 -19.208   5.825  0.00  0.00    -0.375 OA
BRANCH  17  18
ATOM     18  C   LIG    1       29.807 -18.578   6.783  0.00  0.00    +0.175 C 
BRANCH  18  19
ATOM     19  C   LIG    1       31.160 -19.310   6.885  0.00  0.00    +0.112 C 
BRANCH  19  20
ATOM     20  N   LIG    1       31.752 -19.274   8.238  0.00  0.00    -0.301 NA
BRANCH  20  22
ATOM     21  C   LIG    1       31.145 -17.672  10.111  0.00  0.00    +0.020 C 
ATOM     22  C   LIG    1       31.872 -17.915   8.795  0.00  0.00    +0.081 C 
ENDBRANCH  20  22
BRANCH  20  23
ATOM     23  C   LIG    1       31.092 -20.167   9.209  0.00  0.00    +0.081 C 
ATOM     24  C   LIG    1       31.232 -21.667   8.942  0.00  0.00    +0.020 C 
ENDBRANCH  20  23
ENDBRANCH  19  20
ENDBRANCH  18  19
ENDBRANCH  17  18
ENDBRANCH  16  17
ENDBRANCH  15  16
ENDBRANCH  14  15
ENDBRANCH   1  14
TORSDOF 11
ENDMDL
MODEL 3
REMARK VINA RESULT:      -8.4      1.262      3.530
REMARK  Name = *****
REMARK                            x       y       z     vdW  Elec       q    Type
REMARK                         _______ _______ _______ _____ _____    ______ ____
ROOT
ATOM      1  C   LIG    1       25.623 -20.948   7.934  0.00  0.00    +0.318 C 
ATOM      2  O   LIG    1       25.527 -21.114   9.155  0.00  0.00    -0.250 OA
ENDROOT
BRANCH   1   3
ATOM      3  C   LIG    1       24.762 -21.683   6.913  0.00  0.00    +0.093 C 
ATOM      4  C   LIG    1       25.546 -22.899   6.337  0.00  0.00    +0.023 C 
ATOM      5  C   LIG    1       24.497 -23.911   5.891  0.00  0.00    +0.001 C 
ATOM      6  C   LIG    1       23.263 -23.639   6.738  0.00  0.00    +0.001 C 
ATOM      7  C   LIG    1       23.625 -22.462   7.635  0.00  0.00    +0.023 C 
BRANCH   3   8
ATOM      8  C   LIG    1       24.295 -20.677   5.846  0.00  0.00    -0.031 A 
ATOM      9  C   LIG    1       23.014 -20.094   5.900  0.00  0.00    +0.005 A 
ATOM     10  C   LIG    1       22.559 -19.240   4.888  0.00  0.00    +0.000 A 
ATOM     11  C   LIG    1       23.367 -18.963   3.791  0.00  0.00    +0.000 A 
ATOM     12  C   LIG    1       24.626 -19.542   3.705  0.00  0.00    +0.000 A 
ATOM     13  C   LIG    1       25.079 -20.394   4.716  0.00  0.00    +0.005 A 
ENDBRANCH   3   8
ENDBRANCH   1   3
BRANCH   1  14
ATOM     14  O   LIG    1       26.491 -20.097   7.334  0.00  0.00    -0.462 OA
BRANCH  14  15
ATOM     15  C   LIG    1       27.900 -20.377   7.430  0.00  0.00    +0.260 C 
BRANCH  15  16
ATOM     16  C   LIG    1       28.638 -19.783   6.234  0.00  0.00    +0.201 C 
BRANCH  16  17
ATOM     17  O   LIG    1       30.025 -19.534   6.504  0.00  0.00    -0.375 OA
BRANCH  17  18
ATOM     18  C   LIG    1       30.324 -19.558   7.905  0.00  0.00    +0.175 C 
BRANCH  18  19
ATOM     19  C   LIG    1       31.661 -18.849   8.201  0.00  0.00    +0.112 C 
BRANCH  19  20
ATOM     20  N   LIG    1       31.499 -17.484   8.740  0.00  0.00    -0.301 NA
BRANCH  20  22
ATOM     21  C   LIG    1       30.248 -17.501  10.950  0.00  0.00    +0.020 C 
ATOM     22  C   LIG    1       30.222 -17.272   9.444  0.00  0.00    +0.081 C 
ENDBRANCH  20  22
BRANCH  20  23
ATOM     23  C   LIG    1       32.625 -17.029   9.580  0.00  0.00    +0.081 C 
ATOM     24  C   LIG    1       32.832 -15.516   9.659  0.00  0.00    +0.020 C 
ENDBRANCH  20  23
ENDBRANCH  19  20
ENDBRANCH  18  19
ENDBRANCH  17  18
ENDBRANCH  16  17
ENDBRANCH  15  16
ENDBRANCH  14  15
ENDBRANCH   1  14
TORSDOF 11
ENDMDL
MODEL 4
REMARK VINA RESULT:      -8.4      1.143      1.833
REMARK  Name = *****
REMARK                            x       y       z     vdW  Elec       q    Type
REMARK                         _______ _______ _______ _____ _____    ______ ____
ROOT
ATOM      1  C   LIG    1       25.711 -20.934   8.013  0.00  0.00    +0.318 C 
ATOM      2  O   LIG    1       25.497 -21.277   9.182  0.00  0.00    -0.250 OA
ENDROOT
BRANCH   1   3
ATOM      3  C   LIG    1       24.810 -21.317   6.845  0.00  0.00    +0.093 C 
ATOM      4  C   LIG    1       23.416 -20.642   7.007  0.00  0.00    +0.023 C 
ATOM      5  C   LIG    1       22.845 -20.496   5.601  0.00  0.00    +0.001 C 
ATOM      6  C   LIG    1       24.041 -20.445   4.664  0.00  0.00    +0.001 C 
ATOM      7  C   LIG    1       25.272 -20.584   5.551  0.00  0.00    +0.023 C 
BRANCH   3   8
ATOM      8  C   LIG    1       24.755 -22.851   6.746  0.00  0.00    -0.031 A 
ATOM      9  C   LIG    1       25.928 -23.620   6.619  0.00  0.00    +0.005 A 
ATOM     10  C   LIG    1       25.875 -25.009   6.451  0.00  0.00    +0.000 A 
ATOM     11  C   LIG    1       24.647 -25.659   6.386  0.00  0.00    +0.000 A 
ATOM     12  C   LIG    1       23.475 -24.920   6.487  0.00  0.00    +0.000 A 
ATOM     13  C   LIG    1       23.530 -23.534   6.656  0.00  0.00    +0.005 A 
ENDBRANCH   3   8
ENDBRANCH   1   3
BRANCH   1  14
ATOM     14  O   LIG    1       26.758 -20.176   7.608  0.00  0.00    -0.462 OA
BRANCH  14  15
ATOM     15  C   LIG    1       27.994 -20.268   8.342  0.00  0.00    +0.260 C 
BRANCH  15  16
ATOM     16  C   LIG    1       29.100 -20.814   7.444  0.00  0.00    +0.201 C 
BRANCH  16  17
ATOM     17  O   LIG    1       30.404 -20.350   7.824  0.00  0.00    -0.375 OA
BRANCH  17  18
ATOM     18  C   LIG    1       30.625 -18.980   7.467  0.00  0.00    +0.175 C 
BRANCH  18  19
ATOM     19  C   LIG    1       31.915 -18.437   8.115  0.00  0.00    +0.112 C 
BRANCH  19  20
ATOM     20  N   LIG    1       31.730 -17.145   8.806  0.00  0.00    -0.301 NA
BRANCH  20  22
ATOM     21  C   LIG    1       30.281 -17.495  10.861  0.00  0.00    +0.020 C 
ATOM     22  C   LIG    1       30.403 -16.991   9.429  0.00  0.00    +0.081 C 
ENDBRANCH  20  22
BRANCH  20  23
ATOM     23  C   LIG    1       32.791 -16.825   9.781  0.00  0.00    +0.081 C 
ATOM     24  C   LIG    1       33.025 -15.338  10.051  0.00  0.00    +0.020 C 
ENDBRANCH  20  23
ENDBRANCH  19  20
ENDBRANCH  18  19
ENDBRANCH  17  18
ENDBRANCH  16  17
ENDBRANCH  15  16
ENDBRANCH  14  15
ENDBRANCH   1  14
TORSDOF 11
ENDMDL
MODEL 5
REMARK VINA RESULT:      -8.2      1.249      3.608
REMARK  Name = *****
REMARK                            x       y       z     vdW  Elec       q    Type
REMARK                         _______ _______ _______ _____ _____    ______ ____
ROOT
ATOM      1  C   LIG    1       25.394 -20.861   7.677  0.00  0.00    +0.318 C 
ATOM      2  O   LIG    1       25.055 -20.453   8.794  0.00  0.00    -0.250 OA
ENDROOT
BRANCH   1   3
ATOM      3  C   LIG    1       24.463 -21.621   6.739  0.00  0.00    +0.093 C 
ATOM      4  C   LIG    1       25.165 -22.914   6.229  0.00  0.00    +0.023 C 
ATOM      5  C   LIG    1       24.053 -23.899   5.890  0.00  0.00    +0.001 C 
ATOM      6  C   LIG    1       22.864 -23.505   6.752  0.00  0.00    +0.001 C 
ATOM      7  C   LIG    1       23.314 -22.287   7.550  0.00  0.00    +0.023 C 
BRANCH   3   8
ATOM      8  C   LIG    1       24.010 -20.671   5.617  0.00  0.00    -0.031 A 
ATOM      9  C   LIG    1       24.843 -20.385   4.518  0.00  0.00    +0.005 A 
ATOM     10  C   LIG    1       24.463 -19.461   3.536  0.00  0.00    +0.000 A 
ATOM     11  C   LIG    1       23.251 -18.787   3.642  0.00  0.00    +0.000 A 
ATOM     12  C   LIG    1       22.421 -19.037   4.728  0.00  0.00    +0.000 A 
ATOM     13  C   LIG    1       22.801 -19.960   5.706  0.00  0.00    +0.005 A 
ENDBRANCH   3   8
ENDBRANCH   1   3
BRANCH   1  14
ATOM     14  O   LIG    1       26.622 -20.690   7.131  0.00  0.00    -0.462 OA
BRANCH  14  15
ATOM     15  C   LIG    1       27.735 -20.444   8.011  0.00  0.00    +0.260 C 
BRANCH  15  16
ATOM     16  C   LIG    1       28.783 -21.543   7.854  0.00  0.00    +0.201 C 
BRANCH  16  17
ATOM     17  O   LIG    1       29.723 -21.573   8.938  0.00  0.00    -0.375 OA
BRANCH  17  18
ATOM     18  C   LIG    1       31.052 -21.238   8.522  0.00  0.00    +0.175 C 
BRANCH  18  19
ATOM     19  C   LIG    1       31.481 -19.866   9.080  0.00  0.00    +0.112 C 
BRANCH  19  20
ATOM     20  N   LIG    1       31.258 -18.749   8.140  0.00  0.00    -0.301 NA
BRANCH  20  22
ATOM     21  C   LIG    1       29.889 -18.509   6.015  0.00  0.00    +0.020 C 
ATOM     22  C   LIG    1       31.043 -19.181   6.747  0.00  0.00    +0.081 C 
ENDBRANCH  20  22
BRANCH  20  23
ATOM     23  C   LIG    1       30.194 -17.815   8.554  0.00  0.00    +0.081 C 
ATOM     24  C   LIG    1       30.489 -16.972   9.795  0.00  0.00    +0.020 C 
ENDBRANCH  20  23
ENDBRANCH  19  20
ENDBRANCH  18  19
ENDBRANCH  17  18
ENDBRANCH  16  17
ENDBRANCH  15  16
ENDBRANCH  14  15
ENDBRANCH   1  14
TORSDOF 11
ENDMDL
MODEL 6
REMARK VINA RESULT:      -8.0      4.230      8.210
REMARK  Name = *****
REMARK                            x       y       z     vdW  Elec       q    Type
REMARK                         _______ _______ _______ _____ _____    ______ ____
ROOT
ATOM      1  C   LIG    1       24.468 -23.146   6.329  0.00  0.00    +0.318 C 
ATOM      2  O   LIG    1       23.486 -23.667   6.871  0.00  0.00    -0.250 OA
ENDROOT
BRANCH   1   3
ATOM      3  C   LIG    1       25.009 -21.772   6.706  0.00  0.00    +0.093 C 
ATOM      4  C   LIG    1       24.758 -21.501   8.219  0.00  0.00    +0.023 C 
ATOM      5  C   LIG    1       25.835 -20.518   8.662  0.00  0.00    +0.001 C 
ATOM      6  C   LIG    1       27.006 -20.720   7.713  0.00  0.00    +0.001 C 
ATOM      7  C   LIG    1       26.565 -21.800   6.733  0.00  0.00    +0.023 C 
BRANCH   3   8
ATOM      8  C   LIG    1       24.386 -20.722   5.770  0.00  0.00    -0.031 A 
ATOM      9  C   LIG    1       23.070 -20.258   5.962  0.00  0.00    +0.005 A 
ATOM     10  C   LIG    1       22.476 -19.361   5.066  0.00  0.00    +0.000 A 
ATOM     11  C   LIG    1       23.177 -18.922   3.948  0.00  0.00    +0.000 A 
ATOM     12  C   LIG    1       24.469 -19.381   3.726  0.00  0.00    +0.000 A 
ATOM     13  C   LIG    1       25.061 -20.276   4.621  0.00  0.00    +0.005 A 
ENDBRANCH   3   8
ENDBRANCH   1   3
BRANCH   1  14
ATOM     14  O   LIG    1       25.197 -23.714   5.338  0.00  0.00    -0.462 OA
BRANCH  14  15
ATOM     15  C   LIG    1       24.999 -25.113   5.059  0.00  0.00    +0.260 C 
BRANCH  15  16
ATOM     16  C   LIG    1       26.057 -25.948   5.776  0.00  0.00    +0.201 C 
BRANCH  16  17
ATOM     17  O   LIG    1       25.830 -27.359   5.651  0.00  0.00    -0.375 OA
BRANCH  17  18
ATOM     18  C   LIG    1       24.733 -27.812   6.454  0.00  0.00    +0.175 C 
BRANCH  18  19
ATOM     19  C   LIG    1       24.082 -29.072   5.848  0.00  0.00    +0.112 C 
BRANCH  19  20
ATOM     20  N   LIG    1       23.900 -30.169   6.820  0.00  0.00    -0.301 NA
BRANCH  20  22
ATOM     21  C   LIG    1       25.531 -31.370   5.290  0.00  0.00    +0.020 C 
ATOM     22  C   LIG    1       24.466 -31.455   6.375  0.00  0.00    +0.081 C 
ENDBRANCH  20  22
BRANCH  20  23
ATOM     23  C   LIG    1       24.367 -29.851   8.183  0.00  0.00    +0.081 C 
ATOM     24  C   LIG    1       23.473 -30.334   9.326  0.00  0.00    +0.020 C 
ENDBRANCH  20  23
ENDBRANCH  19  20
ENDBRANCH  18  19
ENDBRANCH  17  18
ENDBRANCH  16  17
ENDBRANCH  15  16
ENDBRANCH  14  15
ENDBRANCH   1  14
TORSDOF 11
ENDMDL
MODEL 7
REMARK VINA RESULT:      -8.0      1.452      3.614
REMARK  Name = *****
REMARK                            x       y       z     vdW  Elec       q    Type
REMARK                         _______ _______ _______ _____ _____    ______ ____
ROOT
ATOM      1  C   LIG    1       25.780 -21.052   7.800  0.00  0.00    +0.318 C 
ATOM      2  O   LIG    1       25.402 -20.391   8.774  0.00  0.00    -0.250 OA
ENDROOT
BRANCH   1   3
ATOM      3  C   LIG    1       24.829 -21.741   6.829  0.00  0.00    +0.093 C 
ATOM      4  C   LIG    1       25.530 -22.975   6.187  0.00  0.00    +0.023 C 
ATOM      5  C   LIG    1       24.419 -23.943   5.798  0.00  0.00    +0.001 C 
ATOM      6  C   LIG    1       23.253 -23.642   6.727  0.00  0.00    +0.001 C 
ATOM      7  C   LIG    1       23.714 -22.492   7.614  0.00  0.00    +0.023 C 
BRANCH   3   8
ATOM      8  C   LIG    1       24.329 -20.704   5.808  0.00  0.00    -0.031 A 
ATOM      9  C   LIG    1       23.035 -20.154   5.896  0.00  0.00    +0.005 A 
ATOM     10  C   LIG    1       22.551 -19.269   4.924  0.00  0.00    +0.000 A 
ATOM     11  C   LIG    1       23.343 -18.929   3.832  0.00  0.00    +0.000 A 
ATOM     12  C   LIG    1       24.614 -19.474   3.712  0.00  0.00    +0.000 A 
ATOM     13  C   LIG    1       25.096 -20.357   4.683  0.00  0.00    +0.005 A 
ENDBRANCH   3   8
ENDBRANCH   1   3
BRANCH   1  14
ATOM     14  O   LIG    1       27.075 -21.251   7.456  0.00  0.00    -0.462 OA
BRANCH  14  15
ATOM     15  C   LIG    1       27.829 -20.133   6.949  0.00  0.00    +0.260 C 
BRANCH  15  16
ATOM     16  C   LIG    1       29.198 -20.072   7.622  0.00  0.00    +0.201 C 
BRANCH  16  17
ATOM     17  O   LIG    1       29.816 -18.782   7.509  0.00  0.00    -0.375 OA
BRANCH  17  18
ATOM     18  C   LIG    1       31.159 -18.772   8.007  0.00  0.00    +0.175 C 
BRANCH  18  19
ATOM     19  C   LIG    1       31.183 -18.882   9.545  0.00  0.00    +0.112 C 
BRANCH  19  20
ATOM     20  N   LIG    1       31.963 -17.814  10.202  0.00  0.00    -0.301 NA
BRANCH  20  22
ATOM     21  C   LIG    1       32.861 -15.468   9.831  0.00  0.00    +0.020 C 
ATOM     22  C   LIG    1       32.553 -16.846   9.260  0.00  0.00    +0.081 C 
ENDBRANCH  20  22
BRANCH  20  23
ATOM     23  C   LIG    1       31.235 -17.105  11.272  0.00  0.00    +0.081 C 
ATOM     24  C   LIG    1       31.971 -16.968  12.606  0.00  0.00    +0.020 C 
ENDBRANCH  20  23
ENDBRANCH  19  20
ENDBRANCH  18  19
ENDBRANCH  17  18
ENDBRANCH  16  17
ENDBRANCH  15  16
ENDBRANCH  14  15
ENDBRANCH   1  14
TORSDOF 11
ENDMDL
MODEL 8
REMARK VINA RESULT:      -7.9      4.090      7.797
REMARK  Name = *****
REMARK                            x       y       z     vdW  Elec       q    Type
REMARK                         _______ _______ _______ _____ _____    ______ ____
ROOT
ATOM      1  C   LIG    1       24.581 -23.339   6.412  0.00  0.00    +0.318 C 
ATOM      2  O   LIG    1       23.548 -23.837   6.874  0.00  0.00    -0.250 OA
ENDROOT
BRANCH   1   3
ATOM      3  C   LIG    1       25.050 -21.924   6.729  0.00  0.00    +0.093 C 
ATOM      4  C   LIG    1       24.785 -21.601   8.229  0.00  0.00    +0.023 C 
ATOM      5  C   LIG    1       25.809 -20.544   8.626  0.00  0.00    +0.001 C 
ATOM      6  C   LIG    1       26.989 -20.725   7.683  0.00  0.00    +0.001 C 
ATOM      7  C   LIG    1       26.605 -21.868   6.752  0.00  0.00    +0.023 C 
BRANCH   3   8
ATOM      8  C   LIG    1       24.372 -20.949   5.750  0.00  0.00    -0.031 A 
ATOM      9  C   LIG    1       25.041 -20.479   4.602  0.00  0.00    +0.005 A 
ATOM     10  C   LIG    1       24.455 -19.533   3.753  0.00  0.00    +0.000 A 
ATOM     11  C   LIG    1       23.195 -19.020   4.041  0.00  0.00    +0.000 A 
ATOM     12  C   LIG    1       22.524 -19.452   5.178  0.00  0.00    +0.000 A 
ATOM     13  C   LIG    1       23.110 -20.397   6.024  0.00  0.00    +0.005 A 
ENDBRANCH   3   8
ENDBRANCH   1   3
BRANCH   1  14
ATOM     14  O   LIG    1       25.437 -23.972   5.574  0.00  0.00    -0.462 OA
BRANCH  14  15
ATOM     15  C   LIG    1       25.112 -25.308   5.144  0.00  0.00    +0.260 C 
BRANCH  15  16
ATOM     16  C   LIG    1       26.137 -26.300   5.687  0.00  0.00    +0.201 C 
BRANCH  16  17
ATOM     17  O   LIG    1       25.813 -27.662   5.372  0.00  0.00    -0.375 OA
BRANCH  17  18
ATOM     18  C   LIG    1       24.404 -27.918   5.432  0.00  0.00    +0.175 C 
BRANCH  18  19
ATOM     19  C   LIG    1       24.115 -29.288   6.077  0.00  0.00    +0.112 C 
BRANCH  19  20
ATOM     20  N   LIG    1       25.207 -29.776   6.944  0.00  0.00    -0.301 NA
BRANCH  20  22
ATOM     21  C   LIG    1       26.191 -29.148   9.198  0.00  0.00    +0.020 C 
ATOM     22  C   LIG    1       24.970 -29.548   8.380  0.00  0.00    +0.081 C 
ENDBRANCH  20  22
BRANCH  20  23
ATOM     23  C   LIG    1       25.583 -31.183   6.706  0.00  0.00    +0.081 C 
ATOM     24  C   LIG    1       25.895 -31.557   5.256  0.00  0.00    +0.020 C 
ENDBRANCH  20  23
ENDBRANCH  19  20
ENDBRANCH  18  19
ENDBRANCH  17  18
ENDBRANCH  16  17
ENDBRANCH  15  16
ENDBRANCH  14  15
ENDBRANCH   1  14
TORSDOF 11
ENDMDL
MODEL 9
REMARK VINA RESULT:      -7.6      1.231      2.147
REMARK  Name = *****
REMARK                            x       y       z     vdW  Elec       q    Type
REMARK                         _______ _______ _______ _____ _____    ______ ____
ROOT
ATOM      1  C   LIG    1       25.669 -20.711   7.368  0.00  0.00    +0.318 C 
ATOM      2  O   LIG    1       25.411 -20.741   8.577  0.00  0.00    -0.250 OA
ENDROOT
BRANCH   1   3
ATOM      3  C   LIG    1       24.646 -21.014   6.280  0.00  0.00    +0.093 C 
ATOM      4  C   LIG    1       23.336 -20.214   6.546  0.00  0.00    +0.023 C 
ATOM      5  C   LIG    1       22.669 -20.022   5.189  0.00  0.00    +0.001 C 
ATOM      6  C   LIG    1       23.785 -20.083   4.158  0.00  0.00    +0.001 C 
ATOM      7  C   LIG    1       25.066 -20.331   4.946  0.00  0.00    +0.023 C 
BRANCH   3   8
ATOM      8  C   LIG    1       24.443 -22.537   6.202  0.00  0.00    -0.031 A 
ATOM      9  C   LIG    1       23.232 -23.137   6.599  0.00  0.00    +0.005 A 
ATOM     10  C   LIG    1       23.075 -24.529   6.603  0.00  0.00    +0.000 A 
ATOM     11  C   LIG    1       24.130 -25.353   6.228  0.00  0.00    +0.000 A 
ATOM     12  C   LIG    1       25.341 -24.786   5.852  0.00  0.00    +0.000 A 
ATOM     13  C   LIG    1       25.497 -23.397   5.849  0.00  0.00    +0.005 A 
ENDBRANCH   3   8
ENDBRANCH   1   3
BRANCH   1  14
ATOM     14  O   LIG    1       26.880 -20.404   6.843  0.00  0.00    -0.462 OA
BRANCH  14  15
ATOM     15  C   LIG    1       28.060 -20.861   7.530  0.00  0.00    +0.260 C 
BRANCH  15  16
ATOM     16  C   LIG    1       29.116 -19.759   7.554  0.00  0.00    +0.201 C 
BRANCH  16  17
ATOM     17  O   LIG    1       30.455 -20.272   7.509  0.00  0.00    -0.375 OA
BRANCH  17  18
ATOM     18  C   LIG    1       31.201 -19.962   8.693  0.00  0.00    +0.175 C 
BRANCH  18  19
ATOM     19  C   LIG    1       31.738 -18.517   8.649  0.00  0.00    +0.112 C 
BRANCH  19  20
ATOM     20  N   LIG    1       31.899 -17.906   9.984  0.00  0.00    -0.301 NA
BRANCH  20  22
ATOM     21  C   LIG    1       32.800 -15.604   9.405  0.00  0.00    +0.020 C 
ATOM     22  C   LIG    1       33.023 -16.956  10.070  0.00  0.00    +0.081 C 
ENDBRANCH  20  22
BRANCH  20  23
ATOM     23  C   LIG    1       30.669 -17.289  10.518  0.00  0.00    +0.081 C 
ATOM     24  C   LIG    1       30.839 -16.439  11.778  0.00  0.00    +0.020 C 
ENDBRANCH  20  23
ENDBRANCH  19  20
ENDBRANCH  18  19
ENDBRANCH  17  18
ENDBRANCH  16  17
ENDBRANCH  15  16
ENDBRANCH  14  15
ENDBRANCH   1  14
TORSDOF 11
ENDMDL
