MODEL 1
REMARK VINA RESULT:      -7.6      0.000      0.000
REMARK  Name = *****
REMARK                            x       y       z     vdW  Elec       q    Type
REMARK                         _______ _______ _______ _____ _____    ______ ____
ROOT
ATOM      1  S   LIG    1       26.116 -20.649   8.105  0.00  0.00    +0.024 S 
ENDROOT
BRANCH   1   4
ATOM      2  O   LIG    1       23.142 -21.198   7.900  0.00  0.00    -0.619 OA
ATOM      3  N   LIG    1       23.690 -20.900   6.783  0.00  0.00    -0.165 NA
ATOM      4  C   LIG    1       25.065 -20.660   6.654  0.00  0.00    +0.265 C 
ATOM      5  C   LIG    1       25.604 -20.348   5.393  0.00  0.00    +0.088 C 
ATOM      6  C   LIG    1       24.772 -20.236   4.277  0.00  0.00    +0.013 C 
ATOM      7  C   LIG    1       23.406 -20.431   4.410  0.00  0.00    +0.071 C 
ATOM      8  C   LIG    1       22.887 -20.772   5.656  0.00  0.00    +0.323 C 
ENDBRANCH   1   4
BRANCH   1   9
ATOM      9  S   LIG    1       27.642 -21.913   7.569  0.00  0.00    +0.024 S 
BRANCH   9  10
ATOM     10  C   LIG    1       29.028 -20.786   7.498  0.00  0.00    +0.265 C 
ATOM     11  N   LIG    1       30.072 -20.903   8.420  0.00  0.00    -0.165 NA
ATOM     12  O   LIG    1       30.091 -21.807   9.331  0.00  0.00    -0.619 OA
ATOM     13  C   LIG    1       31.141 -20.019   8.334  0.00  0.00    +0.323 C 
ATOM     14  C   LIG    1       31.201 -19.031   7.356  0.00  0.00    +0.071 C 
ATOM     15  C   LIG    1       30.165 -18.916   6.439  0.00  0.00    +0.013 C 
ATOM     16  C   LIG    1       29.080 -19.788   6.504  0.00  0.00    +0.088 C 
ENDBRANCH   9  10
ENDBRANCH   1   9
TORSDOF 3
ENDMDL
MODEL 2
REMARK VINA RESULT:      -7.6      0.182      6.252
REMARK  Name = *****
REMARK                            x       y       z     vdW  Elec       q    Type
REMARK                         _______ _______ _______ _____ _____    ______ ____
ROOT
ATOM      1  S   LIG    1       27.582 -21.877   7.615  0.00  0.00    +0.024 S 
ENDROOT
BRANCH   1   4
ATOM      2  O   LIG    1       30.075 -21.787   9.336  0.00  0.00    -0.619 OA
ATOM      3  N   LIG    1       30.049 -20.895   8.418  0.00  0.00    -0.165 NA
ATOM      4  C   LIG    1       28.962 -20.736   7.548  0.00  0.00    +0.265 C 
ATOM      5  C   LIG    1       28.994 -19.728   6.569  0.00  0.00    +0.088 C 
ATOM      6  C   LIG    1       30.118 -18.912   6.431  0.00  0.00    +0.013 C 
ATOM      7  C   LIG    1       31.212 -19.095   7.263  0.00  0.00    +0.071 C 
ATOM      8  C   LIG    1       31.157 -20.074   8.251  0.00  0.00    +0.323 C 
ENDBRANCH   1   4
BRANCH   1   9
ATOM      9  S   LIG    1       26.021 -20.668   8.180  0.00  0.00    +0.024 S 
BRANCH   9  10
ATOM     10  C   LIG    1       24.980 -20.732   6.728  0.00  0.00    +0.265 C 
ATOM     11  N   LIG    1       23.638 -21.106   6.847  0.00  0.00    -0.165 NA
ATOM     12  O   LIG    1       23.100 -21.402   7.974  0.00  0.00    -0.619 OA
ATOM     13  C   LIG    1       22.849 -21.137   5.703  0.00  0.00    +0.323 C 
ATOM     14  C   LIG    1       23.357 -20.802   4.451  0.00  0.00    +0.071 C 
ATOM     15  C   LIG    1       24.690 -20.429   4.333  0.00  0.00    +0.013 C 
ATOM     16  C   LIG    1       25.503 -20.392   5.465  0.00  0.00    +0.088 C 
ENDBRANCH   9  10
ENDBRANCH   1   9
TORSDOF 3
ENDMDL
MODEL 3
REMARK VINA RESULT:      -7.5      2.388      6.740
REMARK  Name = *****
REMARK                            x       y       z     vdW  Elec       q    Type
REMARK                         _______ _______ _______ _____ _____    ______ ____
ROOT
ATOM      1  S   LIG    1       29.710 -20.858   7.717  0.00  0.00    +0.024 S 
ENDROOT
BRANCH   1   4
ATOM      2  O   LIG    1       32.255 -20.616   9.344  0.00  0.00    -0.619 OA
ATOM      3  N   LIG    1       31.607 -19.518   9.234  0.00  0.00    -0.165 NA
ATOM      4  C   LIG    1       30.379 -19.428   8.564  0.00  0.00    +0.265 C 
ATOM      5  C   LIG    1       29.714 -18.192   8.489  0.00  0.00    +0.088 C 
ATOM      6  C   LIG    1       30.288 -17.046   9.043  0.00  0.00    +0.013 C 
ATOM      7  C   LIG    1       31.523 -17.124   9.670  0.00  0.00    +0.071 C 
ATOM      8  C   LIG    1       32.157 -18.359   9.767  0.00  0.00    +0.323 C 
ENDBRANCH   1   4
BRANCH   1   9
ATOM      9  S   LIG    1       28.604 -20.014   6.207  0.00  0.00    +0.024 S 
BRANCH   9  10
ATOM     10  C   LIG    1       26.938 -20.392   6.733  0.00  0.00    +0.265 C 
ATOM     11  N   LIG    1       25.898 -20.411   5.799  0.00  0.00    -0.165 NA
ATOM     12  O   LIG    1       26.085 -20.175   4.552  0.00  0.00    -0.619 OA
ATOM     13  C   LIG    1       24.615 -20.720   6.235  0.00  0.00    +0.323 C 
ATOM     14  C   LIG    1       24.342 -21.013   7.568  0.00  0.00    +0.071 C 
ATOM     15  C   LIG    1       25.376 -20.995   8.496  0.00  0.00    +0.013 C 
ATOM     16  C   LIG    1       26.672 -20.687   8.085  0.00  0.00    +0.088 C 
ENDBRANCH   9  10
ENDBRANCH   1   9
TORSDOF 3
ENDMDL
MODEL 4
REMARK VINA RESULT:      -7.4      2.366      6.573
REMARK  Name = *****
REMARK                            x       y       z     vdW  Elec       q    Type
REMARK                         _______ _______ _______ _____ _____    ______ ____
ROOT
ATOM      1  S   LIG    1       27.351 -20.317   6.364  0.00  0.00    +0.024 S 
ENDROOT
BRANCH   1   4
ATOM      2  O   LIG    1       29.563 -18.323   5.801  0.00  0.00    -0.619 OA
ATOM      3  N   LIG    1       29.876 -19.208   6.670  0.00  0.00    -0.165 NA
ATOM      4  C   LIG    1       29.012 -20.251   7.033  0.00  0.00    +0.265 C 
ATOM      5  C   LIG    1       29.423 -21.198   7.988  0.00  0.00    +0.088 C 
ATOM      6  C   LIG    1       30.671 -21.084   8.604  0.00  0.00    +0.013 C 
ATOM      7  C   LIG    1       31.511 -20.031   8.277  0.00  0.00    +0.071 C 
ATOM      8  C   LIG    1       31.108 -19.117   7.307  0.00  0.00    +0.323 C 
ENDBRANCH   1   4
BRANCH   1   9
ATOM      9  S   LIG    1       26.216 -20.772   8.013  0.00  0.00    +0.024 S 
BRANCH   9  10
ATOM     10  C   LIG    1       25.322 -22.211   7.442  0.00  0.00    +0.265 C 
ATOM     11  N   LIG    1       23.930 -22.165   7.320  0.00  0.00    -0.165 NA
ATOM     12  O   LIG    1       23.246 -21.115   7.594  0.00  0.00    -0.619 OA
ATOM     13  C   LIG    1       23.263 -23.296   6.862  0.00  0.00    +0.323 C 
ATOM     14  C   LIG    1       23.942 -24.462   6.521  0.00  0.00    +0.071 C 
ATOM     15  C   LIG    1       25.325 -24.506   6.641  0.00  0.00    +0.013 C 
ATOM     16  C   LIG    1       26.018 -23.387   7.099  0.00  0.00    +0.088 C 
ENDBRANCH   9  10
ENDBRANCH   1   9
TORSDOF 3
ENDMDL
MODEL 5
REMARK VINA RESULT:      -7.4      2.356      2.773
REMARK  Name = *****
REMARK                            x       y       z     vdW  Elec       q    Type
REMARK                         _______ _______ _______ _____ _____    ______ ____
ROOT
ATOM      1  S   LIG    1       26.182 -20.701   7.992  0.00  0.00    +0.024 S 
ENDROOT
BRANCH   1   4
ATOM      2  O   LIG    1       23.199 -21.144   7.694  0.00  0.00    -0.619 OA
ATOM      3  N   LIG    1       23.906 -22.165   7.383  0.00  0.00    -0.165 NA
ATOM      4  C   LIG    1       25.303 -22.182   7.500  0.00  0.00    +0.265 C 
ATOM      5  C   LIG    1       26.018 -23.341   7.151  0.00  0.00    +0.088 C 
ATOM      6  C   LIG    1       25.350 -24.461   6.652  0.00  0.00    +0.013 C 
ATOM      7  C   LIG    1       23.972 -24.432   6.496  0.00  0.00    +0.071 C 
ATOM      8  C   LIG    1       23.270 -23.291   6.875  0.00  0.00    +0.323 C 
ENDBRANCH   1   4
BRANCH   1   9
ATOM      9  S   LIG    1       27.342 -20.296   6.346  0.00  0.00    +0.024 S 
BRANCH   9  10
ATOM     10  C   LIG    1       28.974 -20.221   7.072  0.00  0.00    +0.265 C 
ATOM     11  N   LIG    1       29.843 -19.181   6.731  0.00  0.00    -0.165 NA
ATOM     12  O   LIG    1       29.518 -18.249   5.910  0.00  0.00    -0.619 OA
ATOM     13  C   LIG    1       31.102 -19.142   7.320  0.00  0.00    +0.323 C 
ATOM     14  C   LIG    1       31.514 -20.103   8.239  0.00  0.00    +0.071 C 
ATOM     15  C   LIG    1       30.649 -21.135   8.579  0.00  0.00    +0.013 C 
ATOM     16  C   LIG    1       29.381 -21.198   8.001  0.00  0.00    +0.088 C 
ENDBRANCH   9  10
ENDBRANCH   1   9
TORSDOF 3
ENDMDL
MODEL 6
REMARK VINA RESULT:      -7.4      2.393      2.920
REMARK  Name = *****
REMARK                            x       y       z     vdW  Elec       q    Type
REMARK                         _______ _______ _______ _____ _____    ______ ____
ROOT
ATOM      1  S   LIG    1       28.609 -20.012   6.225  0.00  0.00    +0.024 S 
ENDROOT
BRANCH   1   4
ATOM      2  O   LIG    1       26.072 -20.099   4.572  0.00  0.00    -0.619 OA
ATOM      3  N   LIG    1       25.890 -20.371   5.809  0.00  0.00    -0.165 NA
ATOM      4  C   LIG    1       26.927 -20.335   6.751  0.00  0.00    +0.265 C 
ATOM      5  C   LIG    1       26.657 -20.635   8.098  0.00  0.00    +0.088 C 
ATOM      6  C   LIG    1       25.371 -21.006   8.495  0.00  0.00    +0.013 C 
ATOM      7  C   LIG    1       24.352 -21.082   7.558  0.00  0.00    +0.071 C 
ATOM      8  C   LIG    1       24.623 -20.752   6.232  0.00  0.00    +0.323 C 
ENDBRANCH   1   4
BRANCH   1   9
ATOM      9  S   LIG    1       29.724 -20.855   7.730  0.00  0.00    +0.024 S 
BRANCH   9  10
ATOM     10  C   LIG    1       30.403 -19.404   8.524  0.00  0.00    +0.265 C 
ATOM     11  N   LIG    1       31.602 -19.495   9.236  0.00  0.00    -0.165 NA
ATOM     12  O   LIG    1       32.261 -20.590   9.344  0.00  0.00    -0.619 OA
ATOM     13  C   LIG    1       32.112 -18.347   9.834  0.00  0.00    +0.323 C 
ATOM     14  C   LIG    1       31.466 -17.118   9.737  0.00  0.00    +0.071 C 
ATOM     15  C   LIG    1       30.275 -17.029   9.027  0.00  0.00    +0.013 C 
ATOM     16  C   LIG    1       29.741 -18.165   8.420  0.00  0.00    +0.088 C 
ENDBRANCH   9  10
ENDBRANCH   1   9
TORSDOF 3
ENDMDL
MODEL 7
REMARK VINA RESULT:      -7.4      1.811      6.688
REMARK  Name = *****
REMARK                            x       y       z     vdW  Elec       q    Type
REMARK                         _______ _______ _______ _____ _____    ______ ____
ROOT
ATOM      1  S   LIG    1       28.173 -21.611   7.284  0.00  0.00    +0.024 S 
ENDROOT
BRANCH   1   4
ATOM      2  O   LIG    1       30.407 -21.894   9.313  0.00  0.00    -0.619 OA
ATOM      3  N   LIG    1       30.349 -20.738   8.768  0.00  0.00    -0.165 NA
ATOM      4  C   LIG    1       29.356 -20.387   7.842  0.00  0.00    +0.265 C 
ATOM      5  C   LIG    1       29.344 -19.094   7.289  0.00  0.00    +0.088 C 
ATOM      6  C   LIG    1       30.335 -18.171   7.628  0.00  0.00    +0.013 C 
ATOM      7  C   LIG    1       31.341 -18.529   8.512  0.00  0.00    +0.071 C 
ATOM      8  C   LIG    1       31.326 -19.801   9.078  0.00  0.00    +0.323 C 
ENDBRANCH   1   4
BRANCH   1   9
ATOM      9  S   LIG    1       26.393 -20.880   8.002  0.00  0.00    +0.024 S 
BRANCH   9  10
ATOM     10  C   LIG    1       25.252 -22.154   7.481  0.00  0.00    +0.265 C 
ATOM     11  N   LIG    1       23.881 -21.884   7.429  0.00  0.00    -0.165 NA
ATOM     12  O   LIG    1       23.390 -20.739   7.734  0.00  0.00    -0.619 OA
ATOM     13  C   LIG    1       23.018 -22.890   7.010  0.00  0.00    +0.323 C 
ATOM     14  C   LIG    1       23.482 -24.149   6.639  0.00  0.00    +0.071 C 
ATOM     15  C   LIG    1       24.844 -24.416   6.689  0.00  0.00    +0.013 C 
ATOM     16  C   LIG    1       25.731 -23.425   7.107  0.00  0.00    +0.088 C 
ENDBRANCH   9  10
ENDBRANCH   1   9
TORSDOF 3
ENDMDL
MODEL 8
REMARK VINA RESULT:      -7.3      1.748      2.062
REMARK  Name = *****
REMARK                            x       y       z     vdW  Elec       q    Type
REMARK                         _______ _______ _______ _____ _____    ______ ____
ROOT
ATOM      1  S   LIG    1       26.434 -20.775   7.698  0.00  0.00    +0.024 S 
ENDROOT
BRANCH   1   4
ATOM      2  O   LIG    1       23.410 -20.607   7.806  0.00  0.00    -0.619 OA
ATOM      3  N   LIG    1       23.850 -21.757   7.461  0.00  0.00    -0.165 NA
ATOM      4  C   LIG    1       25.218 -22.057   7.400  0.00  0.00    +0.265 C 
ATOM      5  C   LIG    1       25.634 -23.346   7.024  0.00  0.00    +0.088 C 
ATOM      6  C   LIG    1       24.695 -24.318   6.673  0.00  0.00    +0.013 C 
ATOM      7  C   LIG    1       23.342 -24.011   6.692  0.00  0.00    +0.071 C 
ATOM      8  C   LIG    1       22.940 -22.742   7.098  0.00  0.00    +0.323 C 
ENDBRANCH   1   4
BRANCH   1   9
ATOM      9  S   LIG    1       28.211 -21.754   7.385  0.00  0.00    +0.024 S 
BRANCH   9  10
ATOM     10  C   LIG    1       29.395 -20.479   7.793  0.00  0.00    +0.265 C 
ATOM     11  N   LIG    1       30.411 -20.738   8.719  0.00  0.00    -0.165 NA
ATOM     12  O   LIG    1       30.545 -21.876   9.296  0.00  0.00    -0.619 OA
ATOM     13  C   LIG    1       31.324 -19.731   9.009  0.00  0.00    +0.323 C 
ATOM     14  C   LIG    1       31.256 -18.481   8.401  0.00  0.00    +0.071 C 
ATOM     15  C   LIG    1       30.248 -18.224   7.480  0.00  0.00    +0.013 C 
ATOM     16  C   LIG    1       29.319 -19.216   7.173  0.00  0.00    +0.088 C 
ENDBRANCH   9  10
ENDBRANCH   1   9
TORSDOF 3
ENDMDL
MODEL 9
REMARK VINA RESULT:      -7.1      1.665      6.651
REMARK  Name = *****
REMARK                            x       y       z     vdW  Elec       q    Type
REMARK                         _______ _______ _______ _____ _____    ______ ____
ROOT
ATOM      1  S   LIG    1       27.978 -20.158   5.792  0.00  0.00    +0.024 S 
ENDROOT
BRANCH   1   4
ATOM      2  O   LIG    1       30.194 -18.111   6.079  0.00  0.00    -0.619 OA
ATOM      3  N   LIG    1       30.284 -19.088   6.901  0.00  0.00    -0.165 NA
ATOM      4  C   LIG    1       29.387 -20.165   6.898  0.00  0.00    +0.265 C 
ATOM      5  C   LIG    1       29.550 -21.211   7.823  0.00  0.00    +0.088 C 
ATOM      6  C   LIG    1       30.575 -21.165   8.769  0.00  0.00    +0.013 C 
ATOM      7  C   LIG    1       31.439 -20.081   8.801  0.00  0.00    +0.071 C 
ATOM      8  C   LIG    1       31.289 -19.066   7.860  0.00  0.00    +0.323 C 
ENDBRANCH   1   4
BRANCH   1   9
ATOM      9  S   LIG    1       26.479 -20.932   6.963  0.00  0.00    +0.024 S 
BRANCH   9  10
ATOM     10  C   LIG    1       25.028 -20.506   6.009  0.00  0.00    +0.265 C 
ATOM     11  N   LIG    1       23.759 -20.606   6.586  0.00  0.00    -0.165 NA
ATOM     12  O   LIG    1       23.578 -20.987   7.798  0.00  0.00    -0.619 OA
ATOM     13  C   LIG    1       22.650 -20.257   5.824  0.00  0.00    +0.323 C 
ATOM     14  C   LIG    1       22.770 -19.809   4.511  0.00  0.00    +0.071 C 
ATOM     15  C   LIG    1       24.032 -19.709   3.939  0.00  0.00    +0.013 C 
ATOM     16  C   LIG    1       25.161 -20.054   4.681  0.00  0.00    +0.088 C 
ENDBRANCH   9  10
ENDBRANCH   1   9
TORSDOF 3
ENDMDL
