MODEL 1
REMARK VINA RESULT:      -6.8      0.000      0.000
REMARK  Name = *****
REMARK                            x       y       z     vdW  Elec       q    Type
REMARK                         _______ _______ _______ _____ _____    ______ ____
ROOT
ATOM      1  C   LIG    1       27.223 -27.366  14.214  0.00  0.00    +0.132 C 
ATOM      2  C   LIG    1       26.166 -27.810  13.143  0.00  0.00    +0.012 C 
ATOM      3  C   LIG    1       26.659 -27.532  11.711  0.00  0.00    +0.015 C 
ATOM      4  C   LIG    1       24.966 -26.910  13.510  0.00  0.00    +0.006 C 
ATOM      5  C   LIG    1       23.627 -27.322  12.849  0.00  0.00    +0.020 C 
ATOM      6  C   LIG    1       23.302 -28.814  12.992  0.00  0.00    -0.055 C 
ATOM      7  C   LIG    1       24.459 -29.760  12.636  0.00  0.00    +0.046 C 
ATOM      8  C   LIG    1       22.080 -29.260  13.388  0.00  0.00    -0.044 C 
ATOM      9  C   LIG    1       20.960 -28.331  13.554  0.00  0.00    -0.041 C 
ATOM     10  C   LIG    1       19.805 -28.669  14.146  0.00  0.00    +0.050 C 
ATOM     11  C   LIG    1       19.543 -30.068  14.535  0.00  0.00    +0.157 C 
ATOM     12  O   LIG    1       18.611 -30.329  15.291  0.00  0.00    -0.293 OA
ATOM     13  C   LIG    1       20.349 -31.126  13.839  0.00  0.00    +0.083 C 
ATOM     14  C   LIG    1       21.137 -26.948  12.980  0.00  0.00    +0.036 C 
ATOM     15  C   LIG    1       21.809 -30.720  13.709  0.00  0.00    +0.043 C 
ATOM     16  C   LIG    1       22.500 -26.398  13.349  0.00  0.00    +0.013 C 
ATOM     17  C   LIG    1       24.965 -26.912  15.052  0.00  0.00    +0.008 C 
ATOM     18  C   LIG    1       25.773 -29.307  13.309  0.00  0.00    +0.023 C 
ATOM     19  C   LIG    1       26.407 -27.181  15.500  0.00  0.00    +0.049 C 
ENDROOT
BRANCH   7  20
ATOM     20  C   LIG    1       24.585 -30.097  11.145  0.00  0.00    -0.040 A 
ATOM     21  C   LIG    1       23.513 -30.021  10.245  0.00  0.00    +0.006 A 
ATOM     22  C   LIG    1       23.671 -30.341   8.888  0.00  0.00    +0.023 A 
ATOM     23  C   LIG    1       24.896 -30.780   8.377  0.00  0.00    +0.029 A 
ATOM     24  C   LIG    1       25.958 -30.892   9.283  0.00  0.00    +0.023 A 
ATOM     25  C   LIG    1       25.808 -30.564  10.637  0.00  0.00    +0.006 A 
BRANCH  23  26
ATOM     26  N   LIG    1       25.107 -31.107   7.028  0.00  0.00    -0.336 N 
ATOM     27  C   LIG    1       24.929 -29.956   6.137  0.00  0.00    +0.129 C 
ATOM     28  C   LIG    1       26.268 -31.938   6.716  0.00  0.00    +0.129 C 
ENDBRANCH  23  26
ENDBRANCH   7  20
BRANCH   1  31
ATOM     29  C   LIG    1       30.518 -29.784  14.390  0.00  0.00    +0.106 C 
ATOM     30  C   LIG    1       29.310 -28.993  14.385  0.00  0.00    -0.103 C 
ATOM     31  C   LIG    1       28.312 -28.343  14.381  0.00  0.00    -0.067 C 
ENDBRANCH   1  31
BRANCH   1  32
ATOM     32  O   LIG    1       27.782 -26.098  13.870  0.00  0.00    -0.376 OA
ATOM     33  H   LIG    1       27.136 -25.653  13.295  0.00  0.00    +0.211 HD
ENDBRANCH   1  32
TORSDOF 4
ENDMDL
MODEL 2
REMARK VINA RESULT:      -6.0      3.002      6.601
REMARK  Name = *****
REMARK                            x       y       z     vdW  Elec       q    Type
REMARK                         _______ _______ _______ _____ _____    ______ ____
ROOT
ATOM      1  C   LIG    1       25.124 -31.243   6.349  0.00  0.00    +0.132 C 
ATOM      2  C   LIG    1       25.186 -31.176   7.916  0.00  0.00    +0.012 C 
ATOM      3  C   LIG    1       26.638 -31.209   8.427  0.00  0.00    +0.015 C 
ATOM      4  C   LIG    1       24.423 -32.461   8.305  0.00  0.00    +0.006 C 
ATOM      5  C   LIG    1       24.014 -32.539   9.797  0.00  0.00    +0.020 C 
ATOM      6  C   LIG    1       23.323 -31.271  10.314  0.00  0.00    -0.055 C 
ATOM      7  C   LIG    1       24.040 -29.959   9.960  0.00  0.00    +0.046 C 
ATOM      8  C   LIG    1       22.175 -31.311  11.041  0.00  0.00    -0.044 C 
ATOM      9  C   LIG    1       21.620 -32.587  11.497  0.00  0.00    -0.041 C 
ATOM     10  C   LIG    1       20.391 -32.709  12.022  0.00  0.00    +0.050 C 
ATOM     11  C   LIG    1       19.576 -31.514  12.310  0.00  0.00    +0.157 C 
ATOM     12  O   LIG    1       18.377 -31.633  12.549  0.00  0.00    -0.293 OA
ATOM     13  C   LIG    1       20.311 -30.213  12.457  0.00  0.00    +0.083 C 
ATOM     14  C   LIG    1       22.520 -33.793  11.395  0.00  0.00    +0.036 C 
ATOM     15  C   LIG    1       21.390 -30.059  11.396  0.00  0.00    +0.043 C 
ATOM     16  C   LIG    1       23.200 -33.824  10.041  0.00  0.00    +0.013 C 
ATOM     17  C   LIG    1       23.255 -32.511   7.300  0.00  0.00    +0.008 C 
ATOM     18  C   LIG    1       24.435 -29.929   8.468  0.00  0.00    +0.023 C 
ATOM     19  C   LIG    1       23.710 -31.754   6.046  0.00  0.00    +0.049 C 
ENDROOT
BRANCH   7  20
ATOM     20  C   LIG    1       25.158 -29.550  10.928  0.00  0.00    -0.040 A 
ATOM     21  C   LIG    1       26.087 -28.540  10.647  0.00  0.00    +0.006 A 
ATOM     22  C   LIG    1       27.098 -28.198  11.559  0.00  0.00    +0.023 A 
ATOM     23  C   LIG    1       27.242 -28.871  12.776  0.00  0.00    +0.029 A 
ATOM     24  C   LIG    1       26.337 -29.906  13.042  0.00  0.00    +0.023 A 
ATOM     25  C   LIG    1       25.320 -30.243  12.138  0.00  0.00    +0.006 A 
BRANCH  23  26
ATOM     26  N   LIG    1       28.232 -28.564  13.725  0.00  0.00    -0.336 N 
ATOM     27  C   LIG    1       27.796 -27.539  14.678  0.00  0.00    +0.129 C 
ATOM     28  C   LIG    1       28.948 -29.686  14.329  0.00  0.00    +0.129 C 
ENDBRANCH  23  26
ENDBRANCH   7  20
BRANCH   1  31
ATOM     29  C   LIG    1       25.765 -27.433   5.007  0.00  0.00    +0.106 C 
ATOM     30  C   LIG    1       25.563 -28.810   5.393  0.00  0.00    -0.103 C 
ATOM     31  C   LIG    1       25.397 -29.945   5.710  0.00  0.00    -0.067 C 
ENDBRANCH   1  31
BRANCH   1  32
ATOM     32  O   LIG    1       26.049 -32.211   5.853  0.00  0.00    -0.376 OA
ATOM     33  H   LIG    1       25.536 -33.014   5.655  0.00  0.00    +0.211 HD
ENDBRANCH   1  32
TORSDOF 4
ENDMDL
MODEL 3
REMARK VINA RESULT:      -5.9      2.875      6.205
REMARK  Name = *****
REMARK                            x       y       z     vdW  Elec       q    Type
REMARK                         _______ _______ _______ _____ _____    ______ ____
ROOT
ATOM      1  C   LIG    1       22.829 -31.866  10.540  0.00  0.00    +0.132 C 
ATOM      2  C   LIG    1       22.935 -30.935  11.799  0.00  0.00    +0.012 C 
ATOM      3  C   LIG    1       24.262 -31.147  12.549  0.00  0.00    +0.015 C 
ATOM      4  C   LIG    1       21.731 -31.418  12.637  0.00  0.00    +0.006 C 
ATOM      5  C   LIG    1       21.347 -30.483  13.809  0.00  0.00    +0.020 C 
ATOM      6  C   LIG    1       21.222 -29.008  13.406  0.00  0.00    -0.055 C 
ATOM      7  C   LIG    1       22.395 -28.469  12.574  0.00  0.00    +0.046 C 
ATOM      8  C   LIG    1       20.163 -28.238  13.773  0.00  0.00    -0.044 C 
ATOM      9  C   LIG    1       19.154 -28.745  14.706  0.00  0.00    -0.041 C 
ATOM     10  C   LIG    1       17.986 -28.127  14.933  0.00  0.00    +0.050 C 
ATOM     11  C   LIG    1       17.715 -26.797  14.354  0.00  0.00    +0.157 C 
ATOM     12  O   LIG    1       16.571 -26.351  14.354  0.00  0.00    -0.293 OA
ATOM     13  C   LIG    1       18.908 -25.984  13.941  0.00  0.00    +0.083 C 
ATOM     14  C   LIG    1       19.501 -30.004  15.460  0.00  0.00    +0.036 C 
ATOM     15  C   LIG    1       19.944 -26.838  13.226  0.00  0.00    +0.043 C 
ATOM     16  C   LIG    1       20.093 -31.032  14.518  0.00  0.00    +0.013 C 
ATOM     17  C   LIG    1       20.624 -31.646  11.588  0.00  0.00    +0.008 C 
ATOM     18  C   LIG    1       22.748 -29.436  11.423  0.00  0.00    +0.023 C 
ATOM     19  C   LIG    1       21.323 -31.953  10.258  0.00  0.00    +0.049 C 
ENDROOT
BRANCH   7  20
ATOM     20  C   LIG    1       23.597 -27.977  13.390  0.00  0.00    -0.040 A 
ATOM     21  C   LIG    1       23.537 -27.710  14.764  0.00  0.00    +0.006 A 
ATOM     22  C   LIG    1       24.660 -27.258  15.473  0.00  0.00    +0.023 A 
ATOM     23  C   LIG    1       25.882 -27.023  14.835  0.00  0.00    +0.029 A 
ATOM     24  C   LIG    1       25.933 -27.253  13.455  0.00  0.00    +0.023 A 
ATOM     25  C   LIG    1       24.816 -27.715  12.745  0.00  0.00    +0.006 A 
BRANCH  23  26
ATOM     26  N   LIG    1       27.036 -26.576  15.500  0.00  0.00    -0.336 N 
ATOM     27  C   LIG    1       28.154 -27.516  15.377  0.00  0.00    +0.129 C 
ATOM     28  C   LIG    1       27.406 -25.172  15.326  0.00  0.00    +0.129 C 
ENDBRANCH  23  26
ENDBRANCH   7  20
BRANCH   1  31
ATOM     29  C   LIG    1       24.673 -30.025   7.388  0.00  0.00    +0.106 C 
ATOM     30  C   LIG    1       24.076 -30.752   8.483  0.00  0.00    -0.103 C 
ATOM     31  C   LIG    1       23.583 -31.354   9.385  0.00  0.00    -0.067 C 
ENDBRANCH   1  31
BRANCH   1  32
ATOM     32  O   LIG    1       23.286 -33.182  10.851  0.00  0.00    -0.376 OA
ATOM     33  H   LIG    1       22.908 -33.778  10.181  0.00  0.00    +0.211 HD
ENDBRANCH   1  32
TORSDOF 4
ENDMDL
MODEL 4
REMARK VINA RESULT:      -5.7      2.031      6.364
REMARK  Name = *****
REMARK                            x       y       z     vdW  Elec       q    Type
REMARK                         _______ _______ _______ _____ _____    ______ ____
ROOT
ATOM      1  C   LIG    1       20.842 -32.051  12.295  0.00  0.00    +0.132 C 
ATOM      2  C   LIG    1       22.302 -31.879  11.746  0.00  0.00    +0.012 C 
ATOM      3  C   LIG    1       22.654 -32.972  10.721  0.00  0.00    +0.015 C 
ATOM      4  C   LIG    1       23.133 -32.030  13.039  0.00  0.00    +0.006 C 
ATOM      5  C   LIG    1       24.611 -31.589  12.909  0.00  0.00    +0.020 C 
ATOM      6  C   LIG    1       24.789 -30.210  12.261  0.00  0.00    -0.055 C 
ATOM      7  C   LIG    1       23.989 -30.001  10.967  0.00  0.00    +0.046 C 
ATOM      8  C   LIG    1       25.604 -29.257  12.786  0.00  0.00    -0.044 C 
ATOM      9  C   LIG    1       26.475 -29.558  13.924  0.00  0.00    -0.041 C 
ATOM     10  C   LIG    1       27.129 -28.616  14.619  0.00  0.00    +0.050 C 
ATOM     11  C   LIG    1       27.124 -27.211  14.168  0.00  0.00    +0.157 C 
ATOM     12  O   LIG    1       27.504 -26.323  14.926  0.00  0.00    -0.293 OA
ATOM     13  C   LIG    1       26.800 -26.965  12.722  0.00  0.00    +0.083 C 
ATOM     14  C   LIG    1       26.652 -31.014  14.275  0.00  0.00    +0.036 C 
ATOM     15  C   LIG    1       25.641 -27.833  12.255  0.00  0.00    +0.043 C 
ATOM     16  C   LIG    1       25.310 -31.718  14.277  0.00  0.00    +0.013 C 
ATOM     17  C   LIG    1       22.309 -31.266  14.094  0.00  0.00    +0.008 C 
ATOM     18  C   LIG    1       22.525 -30.462  11.140  0.00  0.00    +0.023 C 
ATOM     19  C   LIG    1       20.848 -31.298  13.632  0.00  0.00    +0.049 C 
ENDROOT
BRANCH   7  20
ATOM     20  C   LIG    1       24.674 -30.510   9.692  0.00  0.00    -0.040 A 
ATOM     21  C   LIG    1       25.935 -31.122   9.687  0.00  0.00    +0.006 A 
ATOM     22  C   LIG    1       26.529 -31.570   8.497  0.00  0.00    +0.023 A 
ATOM     23  C   LIG    1       25.904 -31.398   7.258  0.00  0.00    +0.029 A 
ATOM     24  C   LIG    1       24.661 -30.753   7.257  0.00  0.00    +0.023 A 
ATOM     25  C   LIG    1       24.059 -30.313   8.445  0.00  0.00    +0.006 A 
BRANCH  23  26
ATOM     26  N   LIG    1       26.452 -31.833   6.040  0.00  0.00    -0.336 N 
ATOM     27  C   LIG    1       27.389 -32.948   6.214  0.00  0.00    +0.129 C 
ATOM     28  C   LIG    1       25.537 -31.984   4.911  0.00  0.00    +0.129 C 
ENDBRANCH  23  26
ENDBRANCH   7  20
BRANCH   1  31
ATOM     29  C   LIG    1       17.926 -31.092   9.593  0.00  0.00    +0.106 C 
ATOM     30  C   LIG    1       18.963 -31.336  10.567  0.00  0.00    -0.103 C 
ATOM     31  C   LIG    1       19.819 -31.537  11.370  0.00  0.00    -0.067 C 
ENDBRANCH   1  31
BRANCH   1  32
ATOM     32  O   LIG    1       20.572 -33.425  12.574  0.00  0.00    -0.376 OA
ATOM     33  H   LIG    1       20.287 -33.472  13.503  0.00  0.00    +0.211 HD
ENDBRANCH   1  32
TORSDOF 4
ENDMDL
MODEL 5
REMARK VINA RESULT:      -5.5      3.223      6.550
REMARK  Name = *****
REMARK                            x       y       z     vdW  Elec       q    Type
REMARK                         _______ _______ _______ _____ _____    ______ ____
ROOT
ATOM      1  C   LIG    1       25.257 -29.463   6.363  0.00  0.00    +0.132 C 
ATOM      2  C   LIG    1       25.138 -30.095   7.795  0.00  0.00    +0.012 C 
ATOM      3  C   LIG    1       26.521 -30.428   8.384  0.00  0.00    +0.015 C 
ATOM      4  C   LIG    1       24.330 -31.376   7.495  0.00  0.00    +0.006 C 
ATOM      5  C   LIG    1       23.751 -32.080   8.747  0.00  0.00    +0.020 C 
ATOM      6  C   LIG    1       23.009 -31.132   9.699  0.00  0.00    -0.055 C 
ATOM      7  C   LIG    1       23.766 -29.840  10.038  0.00  0.00    +0.046 C 
ATOM      8  C   LIG    1       21.785 -31.425  10.211  0.00  0.00    -0.044 C 
ATOM      9  C   LIG    1       21.176 -32.740   9.996  0.00  0.00    -0.041 C 
ATOM     10  C   LIG    1       19.894 -33.013  10.283  0.00  0.00    +0.050 C 
ATOM     11  C   LIG    1       19.055 -32.023  10.985  0.00  0.00    +0.157 C 
ATOM     12  O   LIG    1       17.837 -32.171  11.023  0.00  0.00    -0.293 OA
ATOM     13  C   LIG    1       19.773 -30.961  11.768  0.00  0.00    +0.083 C 
ATOM     14  C   LIG    1       22.077 -33.825   9.463  0.00  0.00    +0.036 C 
ATOM     15  C   LIG    1       20.968 -30.416  11.002  0.00  0.00    +0.043 C 
ATOM     16  C   LIG    1       22.909 -33.295   8.313  0.00  0.00    +0.013 C 
ATOM     17  C   LIG    1       23.286 -30.916   6.458  0.00  0.00    +0.008 C 
ATOM     18  C   LIG    1       24.332 -29.179   8.762  0.00  0.00    +0.023 C 
ATOM     19  C   LIG    1       23.886 -29.712   5.723  0.00  0.00    +0.049 C 
ENDROOT
BRANCH   7  20
ATOM     20  C   LIG    1       24.766 -29.959  11.195  0.00  0.00    -0.040 A 
ATOM     21  C   LIG    1       24.895 -31.110  11.985  0.00  0.00    +0.006 A 
ATOM     22  C   LIG    1       25.821 -31.177  13.038  0.00  0.00    +0.023 A 
ATOM     23  C   LIG    1       26.634 -30.088  13.367  0.00  0.00    +0.029 A 
ATOM     24  C   LIG    1       26.479 -28.925  12.603  0.00  0.00    +0.023 A 
ATOM     25  C   LIG    1       25.563 -28.857  11.544  0.00  0.00    +0.006 A 
BRANCH  23  26
ATOM     26  N   LIG    1       27.578 -30.105  14.407  0.00  0.00    -0.336 N 
ATOM     27  C   LIG    1       27.485 -31.316  15.228  0.00  0.00    +0.129 C 
ATOM     28  C   LIG    1       28.944 -29.704  14.075  0.00  0.00    +0.129 C 
ENDBRANCH  23  26
ENDBRANCH   7  20
BRANCH   1  31
ATOM     29  C   LIG    1       25.744 -25.404   6.493  0.00  0.00    +0.106 C 
ATOM     30  C   LIG    1       25.668 -26.845   6.441  0.00  0.00    -0.103 C 
ATOM     31  C   LIG    1       25.606 -28.034   6.397  0.00  0.00    -0.067 C 
ENDBRANCH   1  31
BRANCH   1  32
ATOM     32  O   LIG    1       26.230 -30.164   5.587  0.00  0.00    -0.376 OA
ATOM     33  H   LIG    1       27.103 -29.841   5.872  0.00  0.00    +0.211 HD
ENDBRANCH   1  32
TORSDOF 4
ENDMDL
MODEL 6
REMARK VINA RESULT:      -5.5      3.341      7.013
REMARK  Name = *****
REMARK                            x       y       z     vdW  Elec       q    Type
REMARK                         _______ _______ _______ _____ _____    ______ ____
ROOT
ATOM      1  C   LIG    1       25.478 -29.113  12.733  0.00  0.00    +0.132 C 
ATOM      2  C   LIG    1       24.674 -30.228  11.978  0.00  0.00    +0.012 C 
ATOM      3  C   LIG    1       23.775 -31.026  12.938  0.00  0.00    +0.015 C 
ATOM      4  C   LIG    1       25.818 -31.103  11.420  0.00  0.00    +0.006 C 
ATOM      5  C   LIG    1       25.380 -32.123  10.341  0.00  0.00    +0.020 C 
ATOM      6  C   LIG    1       24.518 -31.512   9.228  0.00  0.00    -0.055 C 
ATOM      7  C   LIG    1       23.360 -30.634   9.723  0.00  0.00    +0.046 C 
ATOM      8  C   LIG    1       24.756 -31.746   7.910  0.00  0.00    -0.044 C 
ATOM      9  C   LIG    1       25.764 -32.722   7.490  0.00  0.00    -0.041 C 
ATOM     10  C   LIG    1       26.195 -32.836   6.225  0.00  0.00    +0.050 C 
ATOM     11  C   LIG    1       25.552 -32.069   5.141  0.00  0.00    +0.157 C 
ATOM     12  O   LIG    1       26.099 -31.983   4.045  0.00  0.00    -0.293 OA
ATOM     13  C   LIG    1       24.161 -31.568   5.400  0.00  0.00    +0.083 C 
ATOM     14  C   LIG    1       26.289 -33.654   8.553  0.00  0.00    +0.036 C 
ATOM     15  C   LIG    1       24.025 -31.001   6.805  0.00  0.00    +0.043 C 
ATOM     16  C   LIG    1       26.617 -32.878   9.813  0.00  0.00    +0.013 C 
ATOM     17  C   LIG    1       26.874 -30.076  10.963  0.00  0.00    +0.008 C 
ATOM     18  C   LIG    1       23.840 -29.639  10.802  0.00  0.00    +0.023 C 
ATOM     19  C   LIG    1       26.672 -28.817  11.815  0.00  0.00    +0.049 C 
ENDROOT
BRANCH   7  20
ATOM     20  C   LIG    1       22.076 -31.395  10.079  0.00  0.00    -0.040 A 
ATOM     21  C   LIG    1       21.896 -32.762   9.824  0.00  0.00    +0.006 A 
ATOM     22  C   LIG    1       20.703 -33.420  10.162  0.00  0.00    +0.023 A 
ATOM     23  C   LIG    1       19.629 -32.736  10.739  0.00  0.00    +0.029 A 
ATOM     24  C   LIG    1       19.794 -31.363  10.959  0.00  0.00    +0.023 A 
ATOM     25  C   LIG    1       20.987 -30.703  10.633  0.00  0.00    +0.006 A 
BRANCH  23  26
ATOM     26  N   LIG    1       18.417 -33.348  11.101  0.00  0.00    -0.336 N 
ATOM     27  C   LIG    1       17.710 -32.614  12.154  0.00  0.00    +0.129 C 
ATOM     28  C   LIG    1       17.560 -33.825  10.017  0.00  0.00    +0.129 C 
ENDBRANCH  23  26
ENDBRANCH   7  20
BRANCH   1  31
ATOM     29  C   LIG    1       22.883 -26.082  13.632  0.00  0.00    +0.106 C 
ATOM     30  C   LIG    1       23.863 -27.085  13.288  0.00  0.00    -0.103 C 
ATOM     31  C   LIG    1       24.673 -27.911  13.004  0.00  0.00    -0.067 C 
ENDBRANCH   1  31
BRANCH   1  32
ATOM     32  O   LIG    1       25.996 -29.616  13.965  0.00  0.00    -0.376 OA
ATOM     33  H   LIG    1       25.334 -30.237  14.315  0.00  0.00    +0.211 HD
ENDBRANCH   1  32
TORSDOF 4
ENDMDL
MODEL 7
REMARK VINA RESULT:      -5.0      2.843      6.195
REMARK  Name = *****
REMARK                            x       y       z     vdW  Elec       q    Type
REMARK                         _______ _______ _______ _____ _____    ______ ____
ROOT
ATOM      1  C   LIG    1       25.439 -30.543   8.189  0.00  0.00    +0.132 C 
ATOM      2  C   LIG    1       25.672 -30.517   9.741  0.00  0.00    +0.012 C 
ATOM      3  C   LIG    1       27.159 -30.322  10.086  0.00  0.00    +0.015 C 
ATOM      4  C   LIG    1       25.180 -31.924  10.145  0.00  0.00    +0.006 C 
ATOM      5  C   LIG    1       24.967 -32.118  11.666  0.00  0.00    +0.020 C 
ATOM      6  C   LIG    1       24.143 -31.002  12.321  0.00  0.00    -0.055 C 
ATOM      7  C   LIG    1       24.589 -29.578  11.959  0.00  0.00    +0.046 C 
ATOM      8  C   LIG    1       23.110 -31.258  13.167  0.00  0.00    -0.044 C 
ATOM      9  C   LIG    1       22.828 -32.624  13.615  0.00  0.00    -0.041 C 
ATOM     10  C   LIG    1       21.706 -32.968  14.265  0.00  0.00    +0.050 C 
ATOM     11  C   LIG    1       20.746 -31.937  14.702  0.00  0.00    +0.157 C 
ATOM     12  O   LIG    1       19.619 -32.264  15.065  0.00  0.00    -0.293 OA
ATOM     13  C   LIG    1       21.270 -30.536  14.834  0.00  0.00    +0.083 C 
ATOM     14  C   LIG    1       23.895 -33.657  13.353  0.00  0.00    +0.036 C 
ATOM     15  C   LIG    1       22.179 -30.168  13.671  0.00  0.00    +0.043 C 
ATOM     16  C   LIG    1       24.407 -33.530  11.932  0.00  0.00    +0.013 C 
ATOM     17  C   LIG    1       23.926 -32.137   9.273  0.00  0.00    +0.008 C 
ATOM     18  C   LIG    1       24.797 -29.433  10.436  0.00  0.00    +0.023 C 
ATOM     19  C   LIG    1       24.101 -31.274   8.018  0.00  0.00    +0.049 C 
ENDROOT
BRANCH   7  20
ATOM     20  C   LIG    1       25.731 -29.018  12.818  0.00  0.00    -0.040 A 
ATOM     21  C   LIG    1       26.001 -27.648  12.940  0.00  0.00    +0.006 A 
ATOM     22  C   LIG    1       27.059 -27.178  13.734  0.00  0.00    +0.023 A 
ATOM     23  C   LIG    1       27.909 -28.055  14.414  0.00  0.00    +0.029 A 
ATOM     24  C   LIG    1       27.663 -29.425  14.262  0.00  0.00    +0.023 A 
ATOM     25  C   LIG    1       26.602 -29.899  13.479  0.00  0.00    +0.006 A 
BRANCH  23  26
ATOM     26  N   LIG    1       28.977 -27.635  15.225  0.00  0.00    -0.336 N 
ATOM     27  C   LIG    1       30.243 -28.279  14.864  0.00  0.00    +0.129 C 
ATOM     28  C   LIG    1       29.084 -26.203  15.498  0.00  0.00    +0.129 C 
ENDBRANCH  23  26
ENDBRANCH   7  20
BRANCH   1  31
ATOM     29  C   LIG    1       25.725 -26.684   6.863  0.00  0.00    +0.106 C 
ATOM     30  C   LIG    1       25.558 -28.061   7.263  0.00  0.00    -0.103 C 
ATOM     31  C   LIG    1       25.419 -29.197   7.592  0.00  0.00    -0.067 C 
ENDBRANCH   1  31
BRANCH   1  32
ATOM     32  O   LIG    1       26.445 -31.325   7.545  0.00  0.00    -0.376 OA
ATOM     33  H   LIG    1       27.078 -31.590   8.233  0.00  0.00    +0.211 HD
ENDBRANCH   1  32
TORSDOF 4
ENDMDL
MODEL 8
REMARK VINA RESULT:      -4.5      1.861      6.043
REMARK  Name = *****
REMARK                            x       y       z     vdW  Elec       q    Type
REMARK                         _______ _______ _______ _____ _____    ______ ____
ROOT
ATOM      1  C   LIG    1       21.335 -29.369  13.990  0.00  0.00    +0.132 C 
ATOM      2  C   LIG    1       22.476 -30.076  13.178  0.00  0.00    +0.012 C 
ATOM      3  C   LIG    1       21.906 -30.981  12.071  0.00  0.00    +0.015 C 
ATOM      4  C   LIG    1       23.167 -30.904  14.283  0.00  0.00    +0.006 C 
ATOM      5  C   LIG    1       24.549 -31.478  13.887  0.00  0.00    +0.020 C 
ATOM      6  C   LIG    1       25.491 -30.442  13.260  0.00  0.00    -0.055 C 
ATOM      7  C   LIG    1       24.860 -29.590  12.149  0.00  0.00    +0.046 C 
ATOM      8  C   LIG    1       26.787 -30.305  13.649  0.00  0.00    -0.044 C 
ATOM      9  C   LIG    1       27.392 -31.249  14.590  0.00  0.00    -0.041 C 
ATOM     10  C   LIG    1       28.581 -31.044  15.176  0.00  0.00    +0.050 C 
ATOM     11  C   LIG    1       29.426 -29.902  14.778  0.00  0.00    +0.157 C 
ATOM     12  O   LIG    1       30.382 -29.575  15.477  0.00  0.00    -0.293 OA
ATOM     13  C   LIG    1       29.159 -29.299  13.430  0.00  0.00    +0.083 C 
ATOM     14  C   LIG    1       26.630 -32.523  14.856  0.00  0.00    +0.036 C 
ATOM     15  C   LIG    1       27.667 -29.164  13.165  0.00  0.00    +0.043 C 
ATOM     16  C   LIG    1       25.165 -32.217  15.092  0.00  0.00    +0.013 C 
ATOM     17  C   LIG    1       23.174 -29.956  15.500  0.00  0.00    +0.008 C 
ATOM     18  C   LIG    1       23.482 -29.046  12.585  0.00  0.00    +0.023 C 
ATOM     19  C   LIG    1       21.993 -28.993  15.323  0.00  0.00    +0.049 C 
ENDROOT
BRANCH   7  20
ATOM     20  C   LIG    1       24.887 -30.222  10.752  0.00  0.00    -0.040 A 
ATOM     21  C   LIG    1       24.186 -29.699   9.657  0.00  0.00    +0.006 A 
ATOM     22  C   LIG    1       24.235 -30.311   8.395  0.00  0.00    +0.023 A 
ATOM     23  C   LIG    1       24.960 -31.487   8.180  0.00  0.00    +0.029 A 
ATOM     24  C   LIG    1       25.630 -32.031   9.282  0.00  0.00    +0.023 A 
ATOM     25  C   LIG    1       25.593 -31.418  10.542  0.00  0.00    +0.006 A 
BRANCH  23  26
ATOM     26  N   LIG    1       25.046 -32.135   6.936  0.00  0.00    -0.336 N 
ATOM     27  C   LIG    1       23.817 -32.000   6.148  0.00  0.00    +0.129 C 
ATOM     28  C   LIG    1       26.277 -31.951   6.171  0.00  0.00    +0.129 C 
ENDBRANCH  23  26
ENDBRANCH   7  20
BRANCH   1  31
ATOM     29  C   LIG    1       19.663 -25.946  12.500  0.00  0.00    +0.106 C 
ATOM     30  C   LIG    1       20.274 -27.179  12.935  0.00  0.00    -0.103 C 
ATOM     31  C   LIG    1       20.779 -28.197  13.293  0.00  0.00    -0.067 C 
ENDBRANCH   1  31
BRANCH   1  32
ATOM     32  O   LIG    1       20.279 -30.288  14.273  0.00  0.00    -0.376 OA
ATOM     33  H   LIG    1       20.663 -30.999  14.815  0.00  0.00    +0.211 HD
ENDBRANCH   1  32
TORSDOF 4
ENDMDL
MODEL 9
REMARK VINA RESULT:      -4.5      2.370      3.219
REMARK  Name = *****
REMARK                            x       y       z     vdW  Elec       q    Type
REMARK                         _______ _______ _______ _____ _____    ______ ____
ROOT
ATOM      1  C   LIG    1       27.878 -28.850  13.630  0.00  0.00    +0.132 C 
ATOM      2  C   LIG    1       26.844 -28.660  12.466  0.00  0.00    +0.012 C 
ATOM      3  C   LIG    1       27.070 -27.333  11.719  0.00  0.00    +0.015 C 
ATOM      4  C   LIG    1       25.510 -28.649  13.244  0.00  0.00    +0.006 C 
ATOM      5  C   LIG    1       24.248 -28.802  12.360  0.00  0.00    +0.020 C 
ATOM      6  C   LIG    1       24.332 -29.966  11.363  0.00  0.00    -0.055 C 
ATOM      7  C   LIG    1       25.637 -30.027  10.556  0.00  0.00    +0.046 C 
ATOM      8  C   LIG    1       23.321 -30.861  11.200  0.00  0.00    -0.044 C 
ATOM      9  C   LIG    1       22.032 -30.666  11.867  0.00  0.00    -0.041 C 
ATOM     10  C   LIG    1       21.083 -31.613  11.924  0.00  0.00    +0.050 C 
ATOM     11  C   LIG    1       21.234 -32.873  11.171  0.00  0.00    +0.157 C 
ATOM     12  O   LIG    1       20.498 -33.825  11.417  0.00  0.00    -0.293 OA
ATOM     13  C   LIG    1       22.189 -32.858  10.012  0.00  0.00    +0.083 C 
ATOM     14  C   LIG    1       21.780 -29.308  12.472  0.00  0.00    +0.036 C 
ATOM     15  C   LIG    1       23.470 -32.115  10.355  0.00  0.00    +0.043 C 
ATOM     16  C   LIG    1       22.994 -28.851  13.255  0.00  0.00    +0.013 C 
ATOM     17  C   LIG    1       25.701 -29.743  14.313  0.00  0.00    +0.008 C 
ATOM     18  C   LIG    1       26.866 -29.861  11.476  0.00  0.00    +0.023 C 
ATOM     19  C   LIG    1       27.208 -29.856  14.575  0.00  0.00    +0.049 C 
ENDROOT
BRANCH   7  20
ATOM     20  C   LIG    1       25.659 -29.156   9.293  0.00  0.00    -0.040 A 
ATOM     21  C   LIG    1       24.916 -29.451   8.142  0.00  0.00    +0.006 A 
ATOM     22  C   LIG    1       24.967 -28.629   7.005  0.00  0.00    +0.023 A 
ATOM     23  C   LIG    1       25.785 -27.496   6.958  0.00  0.00    +0.029 A 
ATOM     24  C   LIG    1       26.556 -27.222   8.094  0.00  0.00    +0.023 A 
ATOM     25  C   LIG    1       26.501 -28.034   9.235  0.00  0.00    +0.006 A 
BRANCH  23  26
ATOM     26  N   LIG    1       25.868 -26.639   5.848  0.00  0.00    -0.336 N 
ATOM     27  C   LIG    1       25.808 -27.363   4.575  0.00  0.00    +0.129 C 
ATOM     28  C   LIG    1       25.066 -25.418   5.887  0.00  0.00    +0.129 C 
ENDBRANCH  23  26
ENDBRANCH   7  20
BRANCH   1  31
ATOM     29  C   LIG    1       31.516 -29.773  12.005  0.00  0.00    +0.106 C 
ATOM     30  C   LIG    1       30.242 -29.524  12.636  0.00  0.00    -0.103 C 
ATOM     31  C   LIG    1       29.191 -29.320  13.158  0.00  0.00    -0.067 C 
ENDBRANCH   1  31
BRANCH   1  32
ATOM     32  O   LIG    1       28.051 -27.629  14.351  0.00  0.00    -0.376 OA
ATOM     33  H   LIG    1       27.519 -26.955  13.894  0.00  0.00    +0.211 HD
ENDBRANCH   1  32
TORSDOF 4
ENDMDL
