MODEL 1
REMARK VINA RESULT:      -7.2      0.000      0.000
REMARK  Name = *****
REMARK                            x       y       z     vdW  Elec       q    Type
REMARK                         _______ _______ _______ _____ _____    ______ ____
ROOT
ATOM      1  C   LIG    1       25.499 -30.810   7.441  0.00  0.00    -0.002 C 
ATOM      2  C   LIG    1       25.449 -29.976   8.790  0.00  0.00    -0.026 C 
ATOM      3  C   LIG    1       26.090 -28.574   8.685  0.00  0.00    +0.012 C 
ATOM      4  C   LIG    1       26.343 -30.801   9.802  0.00  0.00    +0.001 C 
ATOM      5  C   LIG    1       25.932 -30.890  11.297  0.00  0.00    +0.025 C 
ATOM      6  C   LIG    1       24.056 -30.966  11.483  0.00  0.00    +0.001 C 
ATOM      7  C   LIG    1       23.409 -30.918  10.085  0.00  0.00    +0.005 C 
ATOM      8  C   LIG    1       23.382 -29.767  12.710  0.00  0.00    -0.026 C 
ATOM      9  C   LIG    1       22.274 -28.884  12.159  0.00  0.00    +0.012 C 
ATOM     10  C   LIG    1       24.247 -28.853  14.075  0.00  0.00    +0.000 C 
ATOM     11  C   LIG    1       23.949 -29.569  15.352  0.00  0.00    +0.035 C 
ATOM     12  C   LIG    1       24.727 -30.816  15.133  0.00  0.00    +0.115 C 
ATOM     13  C   LIG    1       25.168 -30.874  13.629  0.00  0.00    +0.032 C 
ATOM     14  C   LIG    1       26.149 -28.739  13.822  0.00  0.00    +0.035 C 
ATOM     15  C   LIG    1       24.683 -29.408  12.406  0.00  0.00    +0.009 C 
ATOM     16  C   LIG    1       26.887 -29.636  12.347  0.00  0.00    +0.118 C 
ATOM     17  C   LIG    1       26.512 -32.171   9.140  0.00  0.00    +0.005 C 
ATOM     18  C   LIG    1       23.953 -29.815   9.187  0.00  0.00    +0.007 C 
ATOM     19  C   LIG    1       26.640 -31.815   7.666  0.00  0.00    +0.004 C 
ENDROOT
BRANCH   1  21
ATOM     20  C   LIG    1       25.532 -31.079   4.913  0.00  0.00    +0.008 C 
ATOM     21  C   LIG    1       25.572 -30.058   6.070  0.00  0.00    -0.010 C 
BRANCH  21  22
ATOM     22  C   LIG    1       24.425 -29.029   5.867  0.00  0.00    +0.012 C 
BRANCH  22  23
ATOM     23  C   LIG    1       24.744 -27.934   4.844  0.00  0.00    +0.096 C 
BRANCH  23  24
ATOM     24  C   LIG    1       25.515 -26.792   5.474  0.00  0.00    +0.213 C 
ATOM     25  N   LIG    1       24.741 -25.886   6.165  0.00  0.00    -0.314 N 
ATOM     26  H   LIG    1       23.736 -26.012   6.193  0.00  0.00    +0.149 HD
ATOM     27  O   LIG    1       26.733 -26.690   5.369  0.00  0.00    -0.276 OA
BRANCH  25  28
ATOM     28  C   LIG    1       25.333 -24.754   6.864  0.00  0.00    +0.129 C 
BRANCH  28  29
ATOM     29  C   LIG    1       25.006 -23.433   6.192  0.00  0.00    +0.216 C 
BRANCH  29  30
ATOM     30  S   LIG    1       23.411 -22.848   6.736  0.00  0.00    +0.081 S 
ATOM     31  O   LIG    1       23.579 -21.868   7.777  0.00  0.00    -0.147 OA
ATOM     32  O   LIG    1       22.485 -23.958   6.852  0.00  0.00    -0.147 OA
BRANCH  30  33
ATOM     33  O   LIG    1       22.979 -22.075   5.385  0.00  0.00    -0.254 OA
ATOM     34  H   LIG    1       23.157 -21.118   5.514  0.00  0.00    +0.244 HD
ENDBRANCH  30  33
ENDBRANCH  29  30
ENDBRANCH  28  29
ENDBRANCH  25  28
ENDBRANCH  23  24
ENDBRANCH  22  23
ENDBRANCH  21  22
ENDBRANCH   1  21
BRANCH  12  35
ATOM     35  O   LIG    1       23.956 -31.949  15.500  0.00  0.00    -0.392 OA
ATOM     36  H   LIG    1       23.654 -31.810  16.414  0.00  0.00    +0.210 HD
ENDBRANCH  12  35
BRANCH  16  37
ATOM     37  O   LIG    1       27.493 -28.646  11.515  0.00  0.00    -0.392 OA
ATOM     38  H   LIG    1       27.896 -29.100  10.758  0.00  0.00    +0.210 HD
ENDBRANCH  16  37
TORSDOF 10
ENDMDL
MODEL 2
REMARK VINA RESULT:      -7.1      1.806      2.372
REMARK  Name = *****
REMARK                            x       y       z     vdW  Elec       q    Type
REMARK                         _______ _______ _______ _____ _____    ______ ____
ROOT
ATOM      1  C   LIG    1       24.490 -31.068   6.872  0.00  0.00    -0.002 C 
ATOM      2  C   LIG    1       24.990 -31.308   8.358  0.00  0.00    -0.026 C 
ATOM      3  C   LIG    1       26.511 -31.544   8.478  0.00  0.00    +0.012 C 
ATOM      4  C   LIG    1       24.292 -32.658   8.800  0.00  0.00    +0.001 C 
ATOM      5  C   LIG    1       23.792 -32.825  10.260  0.00  0.00    +0.025 C 
ATOM      6  C   LIG    1       23.118 -31.199  10.939  0.00  0.00    +0.001 C 
ATOM      7  C   LIG    1       23.240 -30.111   9.853  0.00  0.00    +0.005 C 
ATOM      8  C   LIG    1       23.793 -30.748  12.594  0.00  0.00    -0.026 C 
ATOM      9  C   LIG    1       24.390 -29.351  12.651  0.00  0.00    +0.012 C 
ATOM     10  C   LIG    1       24.640 -31.809  13.860  0.00  0.00    +0.000 C 
ATOM     11  C   LIG    1       23.632 -32.142  14.911  0.00  0.00    +0.035 C 
ATOM     12  C   LIG    1       22.747 -33.050  14.137  0.00  0.00    +0.115 C 
ATOM     13  C   LIG    1       23.120 -32.939  12.617  0.00  0.00    +0.032 C 
ATOM     14  C   LIG    1       25.370 -33.427  13.123  0.00  0.00    +0.035 C 
ATOM     15  C   LIG    1       24.580 -31.746  12.050  0.00  0.00    +0.009 C 
ATOM     16  C   LIG    1       25.045 -33.783  11.309  0.00  0.00    +0.118 C 
ATOM     17  C   LIG    1       23.194 -32.884   7.757  0.00  0.00    +0.005 C 
ATOM     18  C   LIG    1       24.610 -30.049   9.190  0.00  0.00    +0.007 C 
ATOM     19  C   LIG    1       23.853 -32.408   6.470  0.00  0.00    +0.004 C 
ENDROOT
BRANCH   1  21
ATOM     20  C   LIG    1       25.779 -31.559   4.734  0.00  0.00    +0.008 C 
ATOM     21  C   LIG    1       25.482 -30.489   5.807  0.00  0.00    -0.010 C 
BRANCH  21  22
ATOM     22  C   LIG    1       24.954 -29.209   5.101  0.00  0.00    +0.012 C 
BRANCH  22  23
ATOM     23  C   LIG    1       24.658 -28.049   6.056  0.00  0.00    +0.096 C 
BRANCH  23  24
ATOM     24  C   LIG    1       25.299 -26.760   5.583  0.00  0.00    +0.213 C 
ATOM     25  N   LIG    1       24.585 -25.620   5.874  0.00  0.00    -0.314 N 
ATOM     26  H   LIG    1       23.692 -25.701   6.346  0.00  0.00    +0.149 HD
ATOM     27  O   LIG    1       26.371 -26.746   4.986  0.00  0.00    -0.276 OA
BRANCH  25  28
ATOM     28  C   LIG    1       25.084 -24.297   5.524  0.00  0.00    +0.129 C 
BRANCH  28  29
ATOM     29  C   LIG    1       24.972 -23.320   6.679  0.00  0.00    +0.216 C 
BRANCH  29  30
ATOM     30  S   LIG    1       23.297 -22.725   6.819  0.00  0.00    +0.081 S 
ATOM     31  O   LIG    1       23.229 -21.680   7.806  0.00  0.00    -0.147 OA
ATOM     32  O   LIG    1       22.368 -23.839   6.799  0.00  0.00    -0.147 OA
BRANCH  30  33
ATOM     33  O   LIG    1       23.173 -22.045   5.359  0.00  0.00    -0.254 OA
ATOM     34  H   LIG    1       24.070 -22.018   4.961  0.00  0.00    +0.244 HD
ENDBRANCH  30  33
ENDBRANCH  29  30
ENDBRANCH  28  29
ENDBRANCH  25  28
ENDBRANCH  23  24
ENDBRANCH  22  23
ENDBRANCH  21  22
ENDBRANCH   1  21
BRANCH  12  35
ATOM     35  O   LIG    1       21.385 -32.727  14.370  0.00  0.00    -0.392 OA
ATOM     36  H   LIG    1       20.855 -33.497  14.102  0.00  0.00    +0.210 HD
ENDBRANCH  12  35
BRANCH  16  37
ATOM     37  O   LIG    1       26.314 -33.825  10.656  0.00  0.00    -0.392 OA
ATOM     38  H   LIG    1       26.647 -32.915  10.593  0.00  0.00    +0.210 HD
ENDBRANCH  16  37
TORSDOF 10
ENDMDL
MODEL 3
REMARK VINA RESULT:      -6.7      2.174      4.231
REMARK  Name = *****
REMARK                            x       y       z     vdW  Elec       q    Type
REMARK                         _______ _______ _______ _____ _____    ______ ____
ROOT
ATOM      1  C   LIG    1       23.983 -31.617   9.350  0.00  0.00    -0.002 C 
ATOM      2  C   LIG    1       24.889 -31.527  10.649  0.00  0.00    -0.026 C 
ATOM      3  C   LIG    1       25.152 -32.889  11.327  0.00  0.00    +0.012 C 
ATOM      4  C   LIG    1       24.033 -30.676  11.673  0.00  0.00    +0.001 C 
ATOM      5  C   LIG    1       24.741 -29.669  12.619  0.00  0.00    +0.025 C 
ATOM      6  C   LIG    1       26.202 -28.840  11.759  0.00  0.00    +0.001 C 
ATOM      7  C   LIG    1       26.316 -29.386  10.322  0.00  0.00    +0.005 C 
ATOM      8  C   LIG    1       27.759 -28.872  12.746  0.00  0.00    -0.026 C 
ATOM      9  C   LIG    1       28.949 -29.446  11.994  0.00  0.00    +0.012 C 
ATOM     10  C   LIG    1       28.008 -29.162  14.562  0.00  0.00    +0.000 C 
ATOM     11  C   LIG    1       28.212 -27.828  15.204  0.00  0.00    +0.035 C 
ATOM     12  C   LIG    1       26.845 -27.264  15.060  0.00  0.00    +0.115 C 
ATOM     13  C   LIG    1       26.028 -28.173  14.077  0.00  0.00    +0.032 C 
ATOM     14  C   LIG    1       26.529 -30.064  15.394  0.00  0.00    +0.035 C 
ATOM     15  C   LIG    1       26.867 -29.774  13.295  0.00  0.00    +0.009 C 
ATOM     16  C   LIG    1       25.019 -30.419  14.336  0.00  0.00    +0.118 C 
ATOM     17  C   LIG    1       22.937 -30.034  10.819  0.00  0.00    +0.005 C 
ATOM     18  C   LIG    1       26.252 -30.904  10.229  0.00  0.00    +0.007 C 
ATOM     19  C   LIG    1       22.603 -31.134   9.822  0.00  0.00    +0.004 C 
ENDROOT
BRANCH   1  21
ATOM     20  C   LIG    1       22.503 -33.498   8.489  0.00  0.00    +0.008 C 
ATOM     21  C   LIG    1       23.945 -32.948   8.525  0.00  0.00    -0.010 C 
BRANCH  21  22
ATOM     22  C   LIG    1       24.454 -32.786   7.065  0.00  0.00    +0.012 C 
BRANCH  22  23
ATOM     23  C   LIG    1       25.324 -31.545   6.843  0.00  0.00    +0.096 C 
BRANCH  23  24
ATOM     24  C   LIG    1       24.551 -30.441   6.150  0.00  0.00    +0.213 C 
ATOM     25  N   LIG    1       25.322 -29.390   5.706  0.00  0.00    -0.314 N 
ATOM     26  H   LIG    1       26.320 -29.397   5.882  0.00  0.00    +0.149 HD
ATOM     27  O   LIG    1       23.334 -30.490   6.003  0.00  0.00    -0.276 OA
BRANCH  25  28
ATOM     28  C   LIG    1       24.738 -28.269   4.983  0.00  0.00    +0.129 C 
BRANCH  28  29
ATOM     29  C   LIG    1       24.505 -27.068   5.882  0.00  0.00    +0.216 C 
BRANCH  29  30
ATOM     30  S   LIG    1       26.065 -26.362   6.377  0.00  0.00    +0.081 S 
ATOM     31  O   LIG    1       25.856 -25.047   6.923  0.00  0.00    -0.147 OA
ATOM     32  O   LIG    1       27.078 -26.637   5.377  0.00  0.00    -0.147 OA
BRANCH  30  33
ATOM     33  O   LIG    1       26.392 -27.366   7.600  0.00  0.00    -0.254 OA
ATOM     34  H   LIG    1       27.246 -27.090   7.999  0.00  0.00    +0.244 HD
ENDBRANCH  30  33
ENDBRANCH  29  30
ENDBRANCH  28  29
ENDBRANCH  25  28
ENDBRANCH  23  24
ENDBRANCH  22  23
ENDBRANCH  21  22
ENDBRANCH   1  21
BRANCH  12  35
ATOM     35  O   LIG    1       26.912 -25.922  14.604  0.00  0.00    -0.392 OA
ATOM     36  H   LIG    1       27.744 -25.826  14.109  0.00  0.00    +0.210 HD
ENDBRANCH  12  35
BRANCH  16  37
ATOM     37  O   LIG    1       24.863 -31.838  14.292  0.00  0.00    -0.392 OA
ATOM     38  H   LIG    1       24.015 -32.057  14.710  0.00  0.00    +0.210 HD
ENDBRANCH  16  37
TORSDOF 10
ENDMDL
MODEL 4
REMARK VINA RESULT:      -6.6      1.996      2.898
REMARK  Name = *****
REMARK                            x       y       z     vdW  Elec       q    Type
REMARK                         _______ _______ _______ _____ _____    ______ ____
ROOT
ATOM      1  C   LIG    1       24.457 -32.448   7.767  0.00  0.00    -0.002 C 
ATOM      2  C   LIG    1       25.119 -32.111   9.169  0.00  0.00    -0.026 C 
ATOM      3  C   LIG    1       26.434 -32.873   9.441  0.00  0.00    +0.012 C 
ATOM      4  C   LIG    1       24.073 -32.628  10.238  0.00  0.00    +0.001 C 
ATOM      5  C   LIG    1       23.852 -31.826  11.550  0.00  0.00    +0.025 C 
ATOM      6  C   LIG    1       23.982 -29.969  11.242  0.00  0.00    +0.001 C 
ATOM      7  C   LIG    1       24.280 -29.726   9.749  0.00  0.00    +0.005 C 
ATOM      8  C   LIG    1       25.094 -29.097  12.425  0.00  0.00    -0.026 C 
ATOM      9  C   LIG    1       26.167 -28.256  11.750  0.00  0.00    +0.012 C 
ATOM     10  C   LIG    1       25.722 -29.640  14.085  0.00  0.00    +0.000 C 
ATOM     11  C   LIG    1       24.896 -28.952  15.122  0.00  0.00    +0.035 C 
ATOM     12  C   LIG    1       23.600 -29.651  14.922  0.00  0.00    +0.115 C 
ATOM     13  C   LIG    1       23.674 -30.471  13.587  0.00  0.00    +0.032 C 
ATOM     14  C   LIG    1       25.633 -31.543  14.341  0.00  0.00    +0.035 C 
ATOM     15  C   LIG    1       25.327 -30.457  12.517  0.00  0.00    +0.009 C 
ATOM     16  C   LIG    1       24.842 -32.569  12.983  0.00  0.00    +0.118 C 
ATOM     17  C   LIG    1       22.784 -32.850   9.442  0.00  0.00    +0.005 C 
ATOM     18  C   LIG    1       25.410 -30.583   9.194  0.00  0.00    +0.007 C 
ATOM     19  C   LIG    1       23.300 -33.398   8.119  0.00  0.00    +0.004 C 
ENDROOT
BRANCH   1  21
ATOM     20  C   LIG    1       24.473 -33.565   5.482  0.00  0.00    +0.008 C 
ATOM     21  C   LIG    1       25.357 -32.949   6.588  0.00  0.00    -0.010 C 
BRANCH  21  22
ATOM     22  C   LIG    1       26.234 -31.829   5.960  0.00  0.00    +0.012 C 
BRANCH  22  23
ATOM     23  C   LIG    1       25.483 -30.931   4.972  0.00  0.00    +0.096 C 
BRANCH  23  24
ATOM     24  C   LIG    1       24.839 -29.752   5.672  0.00  0.00    +0.213 C 
ATOM     25  N   LIG    1       25.680 -28.685   5.897  0.00  0.00    -0.314 N 
ATOM     26  H   LIG    1       26.652 -28.753   5.618  0.00  0.00    +0.149 HD
ATOM     27  O   LIG    1       23.659 -29.758   6.010  0.00  0.00    -0.276 OA
BRANCH  25  28
ATOM     28  C   LIG    1       25.206 -27.458   6.522  0.00  0.00    +0.129 C 
BRANCH  28  29
ATOM     29  C   LIG    1       24.647 -26.478   5.506  0.00  0.00    +0.216 C 
BRANCH  29  30
ATOM     30  S   LIG    1       24.584 -24.839   6.207  0.00  0.00    +0.081 S 
ATOM     31  O   LIG    1       25.709 -24.637   7.081  0.00  0.00    -0.147 OA
ATOM     32  O   LIG    1       23.226 -24.515   6.598  0.00  0.00    -0.147 OA
BRANCH  30  33
ATOM     33  O   LIG    1       24.846 -24.002   4.851  0.00  0.00    -0.254 OA
ATOM     34  H   LIG    1       24.128 -24.218   4.217  0.00  0.00    +0.244 HD
ENDBRANCH  30  33
ENDBRANCH  29  30
ENDBRANCH  28  29
ENDBRANCH  25  28
ENDBRANCH  23  24
ENDBRANCH  22  23
ENDBRANCH  21  22
ENDBRANCH   1  21
BRANCH  12  35
ATOM     35  O   LIG    1       22.533 -28.716  14.908  0.00  0.00    -0.392 OA
ATOM     36  H   LIG    1       21.908 -28.978  15.606  0.00  0.00    +0.210 HD
ENDBRANCH  12  35
BRANCH  16  37
ATOM     37  O   LIG    1       25.845 -33.457  12.490  0.00  0.00    -0.392 OA
ATOM     38  H   LIG    1       26.690 -32.980  12.488  0.00  0.00    +0.210 HD
ENDBRANCH  16  37
TORSDOF 10
ENDMDL
MODEL 5
REMARK VINA RESULT:      -6.4      3.944      6.560
REMARK  Name = *****
REMARK                            x       y       z     vdW  Elec       q    Type
REMARK                         _______ _______ _______ _____ _____    ______ ____
ROOT
ATOM      1  C   LIG    1       25.108 -25.931   6.670  0.00  0.00    -0.002 C 
ATOM      2  C   LIG    1       25.866 -27.324   6.645  0.00  0.00    -0.026 C 
ATOM      3  C   LIG    1       27.131 -27.335   5.760  0.00  0.00    +0.012 C 
ATOM      4  C   LIG    1       24.840 -28.324   5.972  0.00  0.00    +0.001 C 
ATOM      5  C   LIG    1       24.749 -29.790   6.475  0.00  0.00    +0.025 C 
ATOM      6  C   LIG    1       25.005 -29.885   8.342  0.00  0.00    +0.001 C 
ATOM      7  C   LIG    1       25.242 -28.464   8.891  0.00  0.00    +0.005 C 
ATOM      8  C   LIG    1       26.241 -31.152   8.858  0.00  0.00    -0.026 C 
ATOM      9  C   LIG    1       27.338 -30.605   9.758  0.00  0.00    +0.012 C 
ATOM     10  C   LIG    1       26.910 -32.608   7.922  0.00  0.00    +0.000 C 
ATOM     11  C   LIG    1       26.194 -33.823   8.414  0.00  0.00    +0.035 C 
ATOM     12  C   LIG    1       24.840 -33.564   7.860  0.00  0.00    +0.115 C 
ATOM     13  C   LIG    1       24.782 -32.081   7.354  0.00  0.00    +0.032 C 
ATOM     14  C   LIG    1       26.690 -32.450   6.019  0.00  0.00    +0.035 C 
ATOM     15  C   LIG    1       26.373 -30.930   7.500  0.00  0.00    +0.009 C 
ATOM     16  C   LIG    1       25.752 -30.958   5.372  0.00  0.00    +0.118 C 
ATOM     17  C   LIG    1       23.499 -27.587   6.013  0.00  0.00    +0.005 C 
ATOM     18  C   LIG    1       26.274 -27.662   8.108  0.00  0.00    +0.007 C 
ATOM     19  C   LIG    1       23.902 -26.145   5.741  0.00  0.00    +0.004 C 
ENDROOT
BRANCH   1  21
ATOM     20  C   LIG    1       25.149 -23.759   5.346  0.00  0.00    +0.008 C 
ATOM     21  C   LIG    1       25.905 -24.613   6.387  0.00  0.00    -0.010 C 
BRANCH  21  22
ATOM     22  C   LIG    1       26.146 -23.751   7.658  0.00  0.00    +0.012 C 
BRANCH  22  23
ATOM     23  C   LIG    1       25.564 -22.337   7.571  0.00  0.00    +0.096 C 
BRANCH  23  24
ATOM     24  C   LIG    1       26.519 -21.306   8.137  0.00  0.00    +0.213 C 
ATOM     25  N   LIG    1       27.706 -21.183   7.451  0.00  0.00    -0.314 N 
ATOM     26  H   LIG    1       27.882 -21.781   6.652  0.00  0.00    +0.149 HD
ATOM     27  O   LIG    1       26.247 -20.641   9.132  0.00  0.00    -0.276 OA
BRANCH  25  28
ATOM     28  C   LIG    1       28.715 -20.207   7.842  0.00  0.00    +0.129 C 
BRANCH  28  29
ATOM     29  C   LIG    1       30.083 -20.840   8.022  0.00  0.00    +0.216 C 
BRANCH  29  30
ATOM     30  S   LIG    1       31.203 -19.672   8.771  0.00  0.00    +0.081 S 
ATOM     31  O   LIG    1       30.564 -19.026   9.886  0.00  0.00    -0.147 OA
ATOM     32  O   LIG    1       31.914 -18.934   7.745  0.00  0.00    -0.147 OA
BRANCH  30  33
ATOM     33  O   LIG    1       32.277 -20.729   9.353  0.00  0.00    -0.254 OA
ATOM     34  H   LIG    1       33.160 -20.492   8.994  0.00  0.00    +0.244 HD
ENDBRANCH  30  33
ENDBRANCH  29  30
ENDBRANCH  28  29
ENDBRANCH  25  28
ENDBRANCH  23  24
ENDBRANCH  22  23
ENDBRANCH  21  22
ENDBRANCH   1  21
BRANCH  12  35
ATOM     35  O   LIG    1       23.848 -33.825   8.841  0.00  0.00    -0.392 OA
ATOM     36  H   LIG    1       23.839 -33.068   9.452  0.00  0.00    +0.210 HD
ENDBRANCH  12  35
BRANCH  16  37
ATOM     37  O   LIG    1       26.658 -30.217   4.553  0.00  0.00    -0.392 OA
ATOM     38  H   LIG    1       27.507 -30.165   5.021  0.00  0.00    +0.210 HD
ENDBRANCH  16  37
TORSDOF 10
ENDMDL
MODEL 6
REMARK VINA RESULT:      -6.3      2.825      4.494
REMARK  Name = *****
REMARK                            x       y       z     vdW  Elec       q    Type
REMARK                         _______ _______ _______ _____ _____    ______ ____
ROOT
ATOM      1  C   LIG    1       24.476 -32.367   9.513  0.00  0.00    -0.002 C 
ATOM      2  C   LIG    1       23.960 -31.864  10.926  0.00  0.00    -0.026 C 
ATOM      3  C   LIG    1       24.977 -32.060  12.072  0.00  0.00    +0.012 C 
ATOM      4  C   LIG    1       22.729 -32.802  11.257  0.00  0.00    +0.001 C 
ATOM      5  C   LIG    1       21.488 -32.217  11.985  0.00  0.00    +0.025 C 
ATOM      6  C   LIG    1       21.148 -30.446  11.429  0.00  0.00    +0.001 C 
ATOM      7  C   LIG    1       22.205 -30.033  10.386  0.00  0.00    +0.005 C 
ATOM      8  C   LIG    1       20.907 -29.264  12.824  0.00  0.00    -0.026 C 
ATOM      9  C   LIG    1       21.802 -28.038  12.749  0.00  0.00    +0.012 C 
ATOM     10  C   LIG    1       20.501 -29.596  14.605  0.00  0.00    +0.000 C 
ATOM     11  C   LIG    1       19.041 -29.339  14.786  0.00  0.00    +0.035 C 
ATOM     12  C   LIG    1       18.483 -30.481  14.016  0.00  0.00    +0.115 C 
ATOM     13  C   LIG    1       19.640 -31.140  13.188  0.00  0.00    +0.032 C 
ATOM     14  C   LIG    1       20.919 -31.390  15.153  0.00  0.00    +0.035 C 
ATOM     15  C   LIG    1       21.471 -30.425  13.319  0.00  0.00    +0.009 C 
ATOM     16  C   LIG    1       21.547 -32.578  13.843  0.00  0.00    +0.118 C 
ATOM     17  C   LIG    1       22.386 -33.475   9.926  0.00  0.00    +0.005 C 
ATOM     18  C   LIG    1       23.637 -30.348  10.796  0.00  0.00    +0.007 C 
ATOM     19  C   LIG    1       23.757 -33.711   9.309  0.00  0.00    +0.004 C 
ENDROOT
BRANCH   1  21
ATOM     20  C   LIG    1       26.407 -33.824   8.729  0.00  0.00    +0.008 C 
ATOM     21  C   LIG    1       26.014 -32.416   9.224  0.00  0.00    -0.010 C 
BRANCH  21  22
ATOM     22  C   LIG    1       26.480 -31.370   8.174  0.00  0.00    +0.012 C 
BRANCH  22  23
ATOM     23  C   LIG    1       26.003 -31.663   6.748  0.00  0.00    +0.096 C 
BRANCH  23  24
ATOM     24  C   LIG    1       24.946 -30.674   6.301  0.00  0.00    +0.213 C 
ATOM     25  N   LIG    1       25.440 -29.507   5.761  0.00  0.00    -0.314 N 
ATOM     26  H   LIG    1       26.443 -29.367   5.718  0.00  0.00    +0.149 HD
ATOM     27  O   LIG    1       23.746 -30.904   6.417  0.00  0.00    -0.276 OA
BRANCH  25  28
ATOM     28  C   LIG    1       24.556 -28.472   5.245  0.00  0.00    +0.129 C 
BRANCH  28  29
ATOM     29  C   LIG    1       24.489 -27.267   6.165  0.00  0.00    +0.216 C 
BRANCH  29  30
ATOM     30  S   LIG    1       25.751 -26.087   5.723  0.00  0.00    +0.081 S 
ATOM     31  O   LIG    1       26.832 -26.756   5.050  0.00  0.00    -0.147 OA
ATOM     32  O   LIG    1       25.970 -25.158   6.815  0.00  0.00    -0.147 OA
BRANCH  30  33
ATOM     33  O   LIG    1       24.912 -25.256   4.622  0.00  0.00    -0.254 OA
ATOM     34  H   LIG    1       24.248 -24.709   5.096  0.00  0.00    +0.244 HD
ENDBRANCH  30  33
ENDBRANCH  29  30
ENDBRANCH  28  29
ENDBRANCH  25  28
ENDBRANCH  23  24
ENDBRANCH  22  23
ENDBRANCH  21  22
ENDBRANCH   1  21
BRANCH  12  35
ATOM     35  O   LIG    1       17.423 -30.041  13.182  0.00  0.00    -0.392 OA
ATOM     36  H   LIG    1       17.794 -29.894  12.295  0.00  0.00    +0.210 HD
ENDBRANCH  12  35
BRANCH  16  37
ATOM     37  O   LIG    1       22.862 -32.975  14.233  0.00  0.00    -0.392 OA
ATOM     38  H   LIG    1       22.799 -33.396  15.105  0.00  0.00    +0.210 HD
ENDBRANCH  16  37
TORSDOF 10
ENDMDL
MODEL 7
REMARK VINA RESULT:      -6.3      1.159      1.512
REMARK  Name = *****
REMARK                            x       y       z     vdW  Elec       q    Type
REMARK                         _______ _______ _______ _____ _____    ______ ____
ROOT
ATOM      1  C   LIG    1       25.418 -30.528   7.544  0.00  0.00    -0.002 C 
ATOM      2  C   LIG    1       25.433 -29.861   8.984  0.00  0.00    -0.026 C 
ATOM      3  C   LIG    1       26.286 -28.577   9.072  0.00  0.00    +0.012 C 
ATOM      4  C   LIG    1       26.140 -30.931   9.911  0.00  0.00    +0.001 C 
ATOM      5  C   LIG    1       25.650 -31.130  11.371  0.00  0.00    +0.025 C 
ATOM      6  C   LIG    1       23.777 -30.929  11.493  0.00  0.00    +0.001 C 
ATOM      7  C   LIG    1       23.213 -30.615  10.093  0.00  0.00    +0.005 C 
ATOM      8  C   LIG    1       23.239 -29.792  12.839  0.00  0.00    -0.026 C 
ATOM      9  C   LIG    1       22.307 -28.685  12.370  0.00  0.00    +0.012 C 
ATOM     10  C   LIG    1       24.168 -29.193  14.331  0.00  0.00    +0.000 C 
ATOM     11  C   LIG    1       23.703 -29.999  15.500  0.00  0.00    +0.035 C 
ATOM     12  C   LIG    1       24.290 -31.319  15.150  0.00  0.00    +0.115 C 
ATOM     13  C   LIG    1       24.787 -31.268  13.664  0.00  0.00    +0.032 C 
ATOM     14  C   LIG    1       26.074 -29.353  14.148  0.00  0.00    +0.035 C 
ATOM     15  C   LIG    1       24.592 -29.609  12.619  0.00  0.00    +0.009 C 
ATOM     16  C   LIG    1       26.735 -30.175  12.595  0.00  0.00    +0.118 C 
ATOM     17  C   LIG    1       26.127 -32.223   9.089  0.00  0.00    +0.005 C 
ATOM     18  C   LIG    1       23.962 -29.514   9.355  0.00  0.00    +0.007 C 
ATOM     19  C   LIG    1       26.379 -31.721   7.675  0.00  0.00    +0.004 C 
ENDROOT
BRANCH   1  21
ATOM     20  C   LIG    1       25.317 -30.436   5.005  0.00  0.00    +0.008 C 
ATOM     21  C   LIG    1       25.671 -29.640   6.279  0.00  0.00    -0.010 C 
BRANCH  21  22
ATOM     22  C   LIG    1       24.859 -28.315   6.280  0.00  0.00    +0.012 C 
BRANCH  22  23
ATOM     23  C   LIG    1       25.608 -27.125   5.674  0.00  0.00    +0.096 C 
BRANCH  23  24
ATOM     24  C   LIG    1       24.893 -25.818   5.950  0.00  0.00    +0.213 C 
ATOM     25  N   LIG    1       25.713 -24.713   6.005  0.00  0.00    -0.314 N 
ATOM     26  H   LIG    1       26.712 -24.830   5.890  0.00  0.00    +0.149 HD
ATOM     27  O   LIG    1       23.678 -25.761   6.112  0.00  0.00    -0.276 OA
BRANCH  25  28
ATOM     28  C   LIG    1       25.176 -23.376   6.220  0.00  0.00    +0.129 C 
BRANCH  28  29
ATOM     29  C   LIG    1       25.282 -22.944   7.671  0.00  0.00    +0.216 C 
BRANCH  29  30
ATOM     30  S   LIG    1       25.281 -21.164   7.783  0.00  0.00    +0.081 S 
ATOM     31  O   LIG    1       25.647 -20.594   6.513  0.00  0.00    -0.147 OA
ATOM     32  O   LIG    1       25.889 -20.742   9.030  0.00  0.00    -0.147 OA
BRANCH  30  33
ATOM     33  O   LIG    1       23.694 -20.950   7.991  0.00  0.00    -0.254 OA
ATOM     34  H   LIG    1       23.549 -20.631   8.908  0.00  0.00    +0.244 HD
ENDBRANCH  30  33
ENDBRANCH  29  30
ENDBRANCH  28  29
ENDBRANCH  25  28
ENDBRANCH  23  24
ENDBRANCH  22  23
ENDBRANCH  21  22
ENDBRANCH   1  21
BRANCH  12  35
ATOM     35  O   LIG    1       23.337 -32.350  15.352  0.00  0.00    -0.392 OA
ATOM     36  H   LIG    1       23.039 -32.646  14.474  0.00  0.00    +0.210 HD
ENDBRANCH  12  35
BRANCH  16  37
ATOM     37  O   LIG    1       27.524 -29.203  11.910  0.00  0.00    -0.392 OA
ATOM     38  H   LIG    1       28.384 -29.606  11.707  0.00  0.00    +0.210 HD
ENDBRANCH  16  37
TORSDOF 10
ENDMDL
MODEL 8
REMARK VINA RESULT:      -6.0      3.152      4.255
REMARK  Name = *****
REMARK                            x       y       z     vdW  Elec       q    Type
REMARK                         _______ _______ _______ _____ _____    ______ ____
ROOT
ATOM      1  C   LIG    1       24.411 -31.290   9.637  0.00  0.00    -0.002 C 
ATOM      2  C   LIG    1       23.730 -31.429  11.063  0.00  0.00    -0.026 C 
ATOM      3  C   LIG    1       24.730 -31.424  12.240  0.00  0.00    +0.012 C 
ATOM      4  C   LIG    1       23.065 -32.865  11.049  0.00  0.00    +0.001 C 
ATOM      5  C   LIG    1       21.697 -33.089  11.750  0.00  0.00    +0.025 C 
ATOM      6  C   LIG    1       20.582 -31.578  11.561  0.00  0.00    +0.001 C 
ATOM      7  C   LIG    1       21.328 -30.499  10.751  0.00  0.00    +0.005 C 
ATOM      8  C   LIG    1       19.835 -31.005  13.146  0.00  0.00    -0.026 C 
ATOM      9  C   LIG    1       20.071 -29.531  13.436  0.00  0.00    +0.012 C 
ATOM     10  C   LIG    1       19.635 -31.903  14.758  0.00  0.00    +0.000 C 
ATOM     11  C   LIG    1       18.220 -32.375  14.834  0.00  0.00    +0.035 C 
ATOM     12  C   LIG    1       18.242 -33.421  13.779  0.00  0.00    +0.115 C 
ATOM     13  C   LIG    1       19.568 -33.274  12.955  0.00  0.00    +0.032 C 
ATOM     14  C   LIG    1       20.829 -33.398  14.943  0.00  0.00    +0.035 C 
ATOM     15  C   LIG    1       20.870 -31.875  13.433  0.00  0.00    +0.009 C 
ATOM     16  C   LIG    1       21.925 -33.825  13.480  0.00  0.00    +0.118 C 
ATOM     17  C   LIG    1       23.061 -33.274   9.574  0.00  0.00    +0.005 C 
ATOM     18  C   LIG    1       22.748 -30.234  11.233  0.00  0.00    +0.007 C 
ATOM     19  C   LIG    1       24.385 -32.719   9.070  0.00  0.00    +0.004 C 
ENDROOT
BRANCH   1  21
ATOM     20  C   LIG    1       26.819 -31.536   8.856  0.00  0.00    +0.008 C 
ATOM     21  C   LIG    1       25.800 -30.578   9.511  0.00  0.00    -0.010 C 
BRANCH  21  22
ATOM     22  C   LIG    1       25.748 -29.264   8.683  0.00  0.00    +0.012 C 
BRANCH  22  23
ATOM     23  C   LIG    1       24.782 -29.313   7.496  0.00  0.00    +0.096 C 
BRANCH  23  24
ATOM     24  C   LIG    1       24.951 -28.110   6.590  0.00  0.00    +0.213 C 
ATOM     25  N   LIG    1       26.018 -27.298   6.904  0.00  0.00    -0.314 N 
ATOM     26  H   LIG    1       26.595 -27.525   7.706  0.00  0.00    +0.149 HD
ATOM     27  O   LIG    1       24.189 -27.884   5.656  0.00  0.00    -0.276 OA
BRANCH  25  28
ATOM     28  C   LIG    1       26.343 -26.124   6.106  0.00  0.00    +0.129 C 
BRANCH  28  29
ATOM     29  C   LIG    1       25.974 -24.833   6.814  0.00  0.00    +0.216 C 
BRANCH  29  30
ATOM     30  S   LIG    1       24.512 -24.126   6.076  0.00  0.00    +0.081 S 
ATOM     31  O   LIG    1       24.630 -22.692   6.032  0.00  0.00    -0.147 OA
ATOM     32  O   LIG    1       23.327 -24.795   6.577  0.00  0.00    -0.147 OA
BRANCH  30  33
ATOM     33  O   LIG    1       24.717 -24.692   4.577  0.00  0.00    -0.254 OA
ATOM     34  H   LIG    1       24.567 -23.951   3.950  0.00  0.00    +0.244 HD
ENDBRANCH  30  33
ENDBRANCH  29  30
ENDBRANCH  28  29
ENDBRANCH  25  28
ENDBRANCH  23  24
ENDBRANCH  22  23
ENDBRANCH  21  22
ENDBRANCH   1  21
BRANCH  12  35
ATOM     35  O   LIG    1       17.094 -33.311  12.953  0.00  0.00    -0.392 OA
ATOM     36  H   LIG    1       16.631 -32.493  13.208  0.00  0.00    +0.210 HD
ENDBRANCH  12  35
BRANCH  16  37
ATOM     37  O   LIG    1       23.277 -33.677  13.911  0.00  0.00    -0.392 OA
ATOM     38  H   LIG    1       23.575 -34.534  14.256  0.00  0.00    +0.210 HD
ENDBRANCH  16  37
TORSDOF 10
ENDMDL
MODEL 9
REMARK VINA RESULT:      -5.7      3.408      5.608
REMARK  Name = *****
REMARK                            x       y       z     vdW  Elec       q    Type
REMARK                         _______ _______ _______ _____ _____    ______ ____
ROOT
ATOM      1  C   LIG    1       24.100 -29.252  11.871  0.00  0.00    -0.002 C 
ATOM      2  C   LIG    1       23.036 -29.493  13.022  0.00  0.00    -0.026 C 
ATOM      3  C   LIG    1       23.641 -30.053  14.328  0.00  0.00    +0.012 C 
ATOM      4  C   LIG    1       22.081 -30.620  12.453  0.00  0.00    +0.001 C 
ATOM      5  C   LIG    1       20.561 -30.570  12.763  0.00  0.00    +0.025 C 
ATOM      6  C   LIG    1       19.932 -28.791  12.800  0.00  0.00    +0.001 C 
ATOM      7  C   LIG    1       21.107 -27.836  12.511  0.00  0.00    +0.005 C 
ATOM      8  C   LIG    1       18.932 -28.388  14.295  0.00  0.00    -0.026 C 
ATOM      9  C   LIG    1       19.419 -27.159  15.044  0.00  0.00    +0.012 C 
ATOM     10  C   LIG    1       18.085 -29.521  15.497  0.00  0.00    +0.000 C 
ATOM     11  C   LIG    1       16.634 -29.547  15.141  0.00  0.00    +0.035 C 
ATOM     12  C   LIG    1       16.701 -30.287  13.854  0.00  0.00    +0.115 C 
ATOM     13  C   LIG    1       18.199 -30.368  13.399  0.00  0.00    +0.032 C 
ATOM     14  C   LIG    1       18.792 -31.308  15.478  0.00  0.00    +0.035 C 
ATOM     15  C   LIG    1       19.610 -29.572  14.520  0.00  0.00    +0.009 C 
ATOM     16  C   LIG    1       20.117 -31.708  14.210  0.00  0.00    +0.118 C 
ATOM     17  C   LIG    1       22.391 -30.668  10.955  0.00  0.00    +0.005 C 
ATOM     18  C   LIG    1       22.358 -28.127  13.329  0.00  0.00    +0.007 C 
ATOM     19  C   LIG    1       23.895 -30.441  10.918  0.00  0.00    +0.004 C 
ENDROOT
BRANCH   1  21
ATOM     20  C   LIG    1       26.342 -30.326  12.407  0.00  0.00    +0.008 C 
ATOM     21  C   LIG    1       25.596 -28.984  12.244  0.00  0.00    -0.010 C 
BRANCH  21  22
ATOM     22  C   LIG    1       26.350 -28.118  11.196  0.00  0.00    +0.012 C 
BRANCH  22  23
ATOM     23  C   LIG    1       27.045 -28.932  10.100  0.00  0.00    +0.096 C 
BRANCH  23  24
ATOM     24  C   LIG    1       26.304 -28.837   8.782  0.00  0.00    +0.213 C 
ATOM     25  N   LIG    1       26.452 -27.638   8.122  0.00  0.00    -0.314 N 
ATOM     26  H   LIG    1       27.005 -26.903   8.548  0.00  0.00    +0.149 HD
ATOM     27  O   LIG    1       25.625 -29.763   8.348  0.00  0.00    -0.276 OA
BRANCH  25  28
ATOM     28  C   LIG    1       25.838 -27.402   6.823  0.00  0.00    +0.129 C 
BRANCH  28  29
ATOM     29  C   LIG    1       26.129 -26.008   6.298  0.00  0.00    +0.216 C 
BRANCH  29  30
ATOM     30  S   LIG    1       24.629 -25.253   5.697  0.00  0.00    +0.081 S 
ATOM     31  O   LIG    1       24.875 -24.616   4.431  0.00  0.00    -0.147 OA
ATOM     32  O   LIG    1       23.936 -24.587   6.783  0.00  0.00    -0.147 OA
BRANCH  30  33
ATOM     33  O   LIG    1       23.788 -26.605   5.423  0.00  0.00    -0.254 OA
ATOM     34  H   LIG    1       22.874 -26.464   5.751  0.00  0.00    +0.244 HD
ENDBRANCH  30  33
ENDBRANCH  29  30
ENDBRANCH  28  29
ENDBRANCH  25  28
ENDBRANCH  23  24
ENDBRANCH  22  23
ENDBRANCH  21  22
ENDBRANCH   1  21
BRANCH  12  35
ATOM     35  O   LIG    1       15.888 -29.654  12.879  0.00  0.00    -0.392 OA
ATOM     36  H   LIG    1       16.069 -30.085  12.026  0.00  0.00    +0.210 HD
ENDBRANCH  12  35
BRANCH  16  37
ATOM     37  O   LIG    1       21.291 -32.076  14.934  0.00  0.00    -0.392 OA
ATOM     38  H   LIG    1       22.002 -31.466  14.679  0.00  0.00    +0.210 HD
ENDBRANCH  16  37
TORSDOF 10
ENDMDL
