MODEL 1
REMARK VINA RESULT:      -8.1      0.000      0.000
REMARK  Name = *****
REMARK                            x       y       z     vdW  Elec       q    Type
REMARK                         _______ _______ _______ _____ _____    ______ ____
ROOT
ATOM      1  C   LIG    1       25.295 -23.069   7.847  0.00  0.00    +0.112 C 
ATOM      2  C   LIG    1       24.275 -22.081   7.225  0.00  0.00    +0.111 C 
ATOM      3  N   LIG    1       24.774 -21.270   6.089  0.00  0.00    -0.296 NA
ATOM      4  C   LIG    1       24.958 -22.090   4.893  0.00  0.00    +0.105 C 
ATOM      5  C   LIG    1       25.989 -20.490   6.483  0.00  0.00    +0.091 C 
ATOM      6  C   LIG    1       26.995 -21.280   7.381  0.00  0.00    -0.024 C 
ATOM      7  C   LIG    1       28.365 -20.733   7.536  0.00  0.00    -0.011 C 
ATOM      8  C   LIG    1       28.734 -19.792   6.564  0.00  0.00    +0.010 C 
ATOM      9  C   LIG    1       30.008 -19.245   6.527  0.00  0.00    +0.047 C 
ATOM     10  N   LIG    1       30.040 -18.409   5.432  0.00  0.00    -0.360 NA
ATOM     11  H   LIG    1       30.850 -17.886   5.131  0.00  0.00    +0.165 HD
ATOM     12  C   LIG    1       28.818 -18.406   4.799  0.00  0.00    +0.087 C 
ATOM     13  C   LIG    1       30.979 -19.575   7.473  0.00  0.00    +0.026 C 
ATOM     14  C   LIG    1       30.605 -20.482   8.472  0.00  0.00    +0.003 C 
ATOM     15  C   LIG    1       27.988 -19.254   5.496  0.00  0.00    -0.020 C 
ATOM     16  C   LIG    1       29.325 -21.054   8.506  0.00  0.00    +0.009 C 
ATOM     17  C   LIG    1       26.586 -19.684   5.263  0.00  0.00    +0.060 C 
ATOM     18  C   LIG    1       26.649 -22.430   7.995  0.00  0.00    +0.002 C 
ENDROOT
BRANCH   1  21
ATOM     19  N   LIG    1       25.085 -26.166   5.808  0.00  0.00    -0.286 N 
ATOM     20  C   LIG    1       24.581 -25.095   6.560  0.00  0.00    +0.303 C 
ATOM     21  N   LIG    1       25.545 -24.241   7.030  0.00  0.00    -0.292 N 
ATOM     22  H   LIG    1       26.505 -24.400   6.797  0.00  0.00    +0.151 HD
ATOM     23  O   LIG    1       23.395 -24.934   6.806  0.00  0.00    -0.253 OA
BRANCH  19  25
ATOM     24  C   LIG    1       26.749 -27.488   4.491  0.00  0.00    +0.024 C 
ATOM     25  C   LIG    1       26.491 -26.343   5.458  0.00  0.00    +0.106 C 
ENDBRANCH  19  25
BRANCH  19  26
ATOM     26  C   LIG    1       24.167 -27.242   5.404  0.00  0.00    +0.106 C 
ATOM     27  C   LIG    1       24.157 -28.400   6.392  0.00  0.00    +0.024 C 
ENDBRANCH  19  26
ENDBRANCH   1  21
TORSDOF 3
ENDMDL
MODEL 2
REMARK VINA RESULT:      -7.2      4.009      7.595
REMARK  Name = *****
REMARK                            x       y       z     vdW  Elec       q    Type
REMARK                         _______ _______ _______ _____ _____    ______ ____
ROOT
ATOM      1  C   LIG    1       25.237 -18.519   2.978  0.00  0.00    +0.112 C 
ATOM      2  C   LIG    1       23.943 -19.374   2.949  0.00  0.00    +0.111 C 
ATOM      3  N   LIG    1       23.404 -19.772   4.271  0.00  0.00    -0.296 NA
ATOM      4  C   LIG    1       22.829 -18.628   4.975  0.00  0.00    +0.105 C 
ATOM      5  C   LIG    1       24.432 -20.518   5.064  0.00  0.00    +0.091 C 
ATOM      6  C   LIG    1       25.877 -19.933   4.953  0.00  0.00    -0.024 C 
ATOM      7  C   LIG    1       26.883 -20.374   5.949  0.00  0.00    -0.011 C 
ATOM      8  C   LIG    1       26.347 -20.955   7.107  0.00  0.00    +0.010 C 
ATOM      9  C   LIG    1       27.151 -21.350   8.165  0.00  0.00    +0.047 C 
ATOM     10  N   LIG    1       26.304 -21.826   9.141  0.00  0.00    -0.360 NA
ATOM     11  H   LIG    1       26.601 -22.164  10.047  0.00  0.00    +0.165 HD
ATOM     12  C   LIG    1       24.998 -21.758   8.714  0.00  0.00    +0.087 C 
ATOM     13  C   LIG    1       28.540 -21.220   8.121  0.00  0.00    +0.026 C 
ATOM     14  C   LIG    1       29.088 -20.679   6.951  0.00  0.00    +0.003 C 
ATOM     15  C   LIG    1       25.005 -21.228   7.444  0.00  0.00    -0.020 C 
ATOM     16  C   LIG    1       28.279 -20.261   5.885  0.00  0.00    +0.009 C 
ATOM     17  C   LIG    1       23.906 -20.879   6.509  0.00  0.00    +0.060 C 
ATOM     18  C   LIG    1       26.214 -19.047   3.993  0.00  0.00    +0.002 C 
ENDROOT
BRANCH   1  21
ATOM     19  N   LIG    1       25.515 -14.920   3.850  0.00  0.00    -0.286 N 
ATOM     20  C   LIG    1       25.978 -16.165   3.401  0.00  0.00    +0.303 C 
ATOM     21  N   LIG    1       25.018 -17.143   3.381  0.00  0.00    -0.292 N 
ATOM     22  H   LIG    1       24.078 -16.921   3.643  0.00  0.00    +0.151 HD
ATOM     23  O   LIG    1       27.136 -16.384   3.076  0.00  0.00    -0.253 OA
BRANCH  19  25
ATOM     24  C   LIG    1       23.480 -13.577   3.296  0.00  0.00    +0.024 C 
ATOM     25  C   LIG    1       24.126 -14.626   4.188  0.00  0.00    +0.106 C 
ENDBRANCH  19  25
BRANCH  19  26
ATOM     26  C   LIG    1       26.490 -13.844   4.085  0.00  0.00    +0.106 C 
ATOM     27  C   LIG    1       26.762 -13.617   5.565  0.00  0.00    +0.024 C 
ENDBRANCH  19  26
ENDBRANCH   1  21
TORSDOF 3
ENDMDL
MODEL 3
REMARK VINA RESULT:      -6.8      6.537     10.696
REMARK  Name = *****
REMARK                            x       y       z     vdW  Elec       q    Type
REMARK                         _______ _______ _______ _____ _____    ______ ____
ROOT
ATOM      1  C   LIG    1       25.395 -30.348  10.400  0.00  0.00    +0.112 C 
ATOM      2  C   LIG    1       25.025 -31.812  10.755  0.00  0.00    +0.111 C 
ATOM      3  N   LIG    1       23.576 -32.095  10.892  0.00  0.00    -0.296 NA
ATOM      4  C   LIG    1       22.906 -32.067   9.592  0.00  0.00    +0.105 C 
ATOM      5  C   LIG    1       22.952 -31.200  11.916  0.00  0.00    +0.091 C 
ATOM      6  C   LIG    1       23.458 -29.722  11.871  0.00  0.00    -0.024 C 
ATOM      7  C   LIG    1       22.669 -28.695  12.595  0.00  0.00    -0.011 C 
ATOM      8  C   LIG    1       21.358 -29.078  12.910  0.00  0.00    +0.010 C 
ATOM      9  C   LIG    1       20.470 -28.204  13.517  0.00  0.00    +0.047 C 
ATOM     10  N   LIG    1       19.275 -28.881  13.634  0.00  0.00    -0.360 NA
ATOM     11  H   LIG    1       18.427 -28.489  14.019  0.00  0.00    +0.165 HD
ATOM     12  C   LIG    1       19.401 -30.157  13.135  0.00  0.00    +0.087 C 
ATOM     13  C   LIG    1       20.843 -26.908  13.878  0.00  0.00    +0.026 C 
ATOM     14  C   LIG    1       22.164 -26.532  13.604  0.00  0.00    +0.003 C 
ATOM     15  C   LIG    1       20.694 -30.302  12.689  0.00  0.00    -0.020 C 
ATOM     16  C   LIG    1       23.062 -27.404  12.973  0.00  0.00    +0.009 C 
ATOM     17  C   LIG    1       21.391 -31.428  12.017  0.00  0.00    +0.060 C 
ATOM     18  C   LIG    1       24.571 -29.372  11.194  0.00  0.00    +0.002 C 
ENDROOT
BRANCH   1  21
ATOM     19  N   LIG    1       25.213 -28.781   7.037  0.00  0.00    -0.286 N 
ATOM     20  C   LIG    1       25.645 -28.910   8.365  0.00  0.00    +0.303 C 
ATOM     21  N   LIG    1       25.126 -29.997   9.018  0.00  0.00    -0.292 N 
ATOM     22  H   LIG    1       24.522 -30.628   8.529  0.00  0.00    +0.151 HD
ATOM     23  O   LIG    1       26.397 -28.119   8.916  0.00  0.00    -0.253 OA
BRANCH  19  25
ATOM     24  C   LIG    1       25.120 -30.715   5.455  0.00  0.00    +0.024 C 
ATOM     25  C   LIG    1       24.360 -29.745   6.347  0.00  0.00    +0.106 C 
ENDBRANCH  19  25
BRANCH  19  26
ATOM     26  C   LIG    1       25.559 -27.560   6.294  0.00  0.00    +0.106 C 
ATOM     27  C   LIG    1       24.383 -26.603   6.166  0.00  0.00    +0.024 C 
ENDBRANCH  19  26
ENDBRANCH   1  21
TORSDOF 3
ENDMDL
MODEL 4
REMARK VINA RESULT:      -6.6      7.668      9.364
REMARK  Name = *****
REMARK                            x       y       z     vdW  Elec       q    Type
REMARK                         _______ _______ _______ _____ _____    ______ ____
ROOT
ATOM      1  C   LIG    1       25.842 -31.136  10.107  0.00  0.00    +0.112 C 
ATOM      2  C   LIG    1       24.792 -31.992  10.863  0.00  0.00    +0.111 C 
ATOM      3  N   LIG    1       23.600 -31.263  11.357  0.00  0.00    -0.296 NA
ATOM      4  C   LIG    1       22.726 -30.868  10.253  0.00  0.00    +0.105 C 
ATOM      5  C   LIG    1       24.000 -30.130  12.249  0.00  0.00    +0.091 C 
ATOM      6  C   LIG    1       25.253 -29.337  11.758  0.00  0.00    -0.024 C 
ATOM      7  C   LIG    1       25.519 -28.011  12.368  0.00  0.00    -0.011 C 
ATOM      8  C   LIG    1       24.423 -27.438  13.027  0.00  0.00    +0.010 C 
ATOM      9  C   LIG    1       24.488 -26.170  13.584  0.00  0.00    +0.047 C 
ATOM     10  N   LIG    1       23.237 -25.906  14.098  0.00  0.00    -0.360 NA
ATOM     11  H   LIG    1       22.971 -25.040  14.547  0.00  0.00    +0.165 HD
ATOM     12  C   LIG    1       22.403 -26.981  13.896  0.00  0.00    +0.087 C 
ATOM     13  C   LIG    1       25.657 -25.410  13.547  0.00  0.00    +0.026 C 
ATOM     14  C   LIG    1       26.771 -25.992  12.927  0.00  0.00    +0.003 C 
ATOM     15  C   LIG    1       23.126 -27.949  13.239  0.00  0.00    -0.020 C 
ATOM     16  C   LIG    1       26.707 -27.266  12.346  0.00  0.00    +0.009 C 
ATOM     17  C   LIG    1       22.748 -29.288  12.720  0.00  0.00    +0.060 C 
ATOM     18  C   LIG    1       26.073 -29.822  10.803  0.00  0.00    +0.002 C 
ENDROOT
BRANCH   1  21
ATOM     19  N   LIG    1       25.361 -30.766   6.443  0.00  0.00    -0.286 N 
ATOM     20  C   LIG    1       25.901 -31.323   7.610  0.00  0.00    +0.303 C 
ATOM     21  N   LIG    1       25.432 -30.758   8.768  0.00  0.00    -0.292 N 
ATOM     22  H   LIG    1       24.739 -30.037   8.723  0.00  0.00    +0.151 HD
ATOM     23  O   LIG    1       26.736 -32.216   7.615  0.00  0.00    -0.253 OA
BRANCH  19  25
ATOM     24  C   LIG    1       24.517 -28.688   5.337  0.00  0.00    +0.024 C 
ATOM     25  C   LIG    1       24.323 -29.739   6.419  0.00  0.00    +0.106 C 
ENDBRANCH  19  25
BRANCH  19  26
ATOM     26  C   LIG    1       25.919 -31.165   5.142  0.00  0.00    +0.106 C 
ATOM     27  C   LIG    1       25.289 -32.441   4.604  0.00  0.00    +0.024 C 
ENDBRANCH  19  26
ENDBRANCH   1  21
TORSDOF 3
ENDMDL
MODEL 5
REMARK VINA RESULT:      -6.5      3.492      8.679
REMARK  Name = *****
REMARK                            x       y       z     vdW  Elec       q    Type
REMARK                         _______ _______ _______ _____ _____    ______ ____
ROOT
ATOM      1  C   LIG    1       26.393 -26.165   6.310  0.00  0.00    +0.112 C 
ATOM      2  C   LIG    1       26.207 -27.095   5.083  0.00  0.00    +0.111 C 
ATOM      3  N   LIG    1       25.177 -28.152   5.226  0.00  0.00    -0.296 NA
ATOM      4  C   LIG    1       23.830 -27.584   5.208  0.00  0.00    +0.105 C 
ATOM      5  C   LIG    1       25.457 -29.012   6.418  0.00  0.00    +0.091 C 
ATOM      6  C   LIG    1       25.950 -28.227   7.676  0.00  0.00    -0.024 C 
ATOM      7  C   LIG    1       25.922 -28.924   8.984  0.00  0.00    -0.011 C 
ATOM      8  C   LIG    1       25.103 -30.060   9.027  0.00  0.00    +0.010 C 
ATOM      9  C   LIG    1       24.911 -30.777  10.198  0.00  0.00    +0.047 C 
ATOM     10  N   LIG    1       24.022 -31.786   9.895  0.00  0.00    -0.360 NA
ATOM     11  H   LIG    1       23.670 -32.461  10.560  0.00  0.00    +0.165 HD
ATOM     12  C   LIG    1       23.672 -31.729   8.566  0.00  0.00    +0.087 C 
ATOM     13  C   LIG    1       25.549 -30.426  11.388  0.00  0.00    +0.026 C 
ATOM     14  C   LIG    1       26.403 -29.316  11.345  0.00  0.00    +0.003 C 
ATOM     15  C   LIG    1       24.343 -30.666   8.006  0.00  0.00    -0.020 C 
ATOM     16  C   LIG    1       26.587 -28.575  10.169  0.00  0.00    +0.009 C 
ATOM     17  C   LIG    1       24.325 -30.093   6.636  0.00  0.00    +0.060 C 
ATOM     18  C   LIG    1       26.381 -26.951   7.594  0.00  0.00    +0.002 C 
ENDROOT
BRANCH   1  21
ATOM     19  N   LIG    1       24.300 -23.167   6.962  0.00  0.00    -0.286 N 
ATOM     20  C   LIG    1       25.496 -23.891   6.852  0.00  0.00    +0.303 C 
ATOM     21  N   LIG    1       25.325 -25.198   6.478  0.00  0.00    -0.292 N 
ATOM     22  H   LIG    1       24.406 -25.542   6.280  0.00  0.00    +0.151 HD
ATOM     23  O   LIG    1       26.600 -23.422   7.090  0.00  0.00    -0.253 OA
BRANCH  19  25
ATOM     24  C   LIG    1       21.979 -22.632   6.202  0.00  0.00    +0.024 C 
ATOM     25  C   LIG    1       22.980 -23.694   6.629  0.00  0.00    +0.106 C 
ENDBRANCH  19  25
BRANCH  19  26
ATOM     26  C   LIG    1       24.342 -21.811   7.529  0.00  0.00    +0.106 C 
ATOM     27  C   LIG    1       24.849 -20.778   6.532  0.00  0.00    +0.024 C 
ENDBRANCH  19  26
ENDBRANCH   1  21
TORSDOF 3
ENDMDL
MODEL 6
REMARK VINA RESULT:      -6.4      7.916     10.884
REMARK  Name = *****
REMARK                            x       y       z     vdW  Elec       q    Type
REMARK                         _______ _______ _______ _____ _____    ______ ____
ROOT
ATOM      1  C   LIG    1       25.212 -30.789  10.315  0.00  0.00    +0.112 C 
ATOM      2  C   LIG    1       24.717 -32.197  10.740  0.00  0.00    +0.111 C 
ATOM      3  N   LIG    1       23.253 -32.335  10.930  0.00  0.00    -0.296 NA
ATOM      4  C   LIG    1       22.546 -32.291   9.651  0.00  0.00    +0.105 C 
ATOM      5  C   LIG    1       22.750 -31.347  11.935  0.00  0.00    +0.091 C 
ATOM      6  C   LIG    1       23.392 -29.927  11.817  0.00  0.00    -0.024 C 
ATOM      7  C   LIG    1       22.728 -28.803  12.521  0.00  0.00    -0.011 C 
ATOM      8  C   LIG    1       21.398 -29.047  12.890  0.00  0.00    +0.010 C 
ATOM      9  C   LIG    1       20.616 -28.070  13.488  0.00  0.00    +0.047 C 
ATOM     10  N   LIG    1       19.368 -28.625  13.666  0.00  0.00    -0.360 NA
ATOM     11  H   LIG    1       18.573 -28.140  14.060  0.00  0.00    +0.165 HD
ATOM     12  C   LIG    1       19.356 -29.925  13.215  0.00  0.00    +0.087 C 
ATOM     13  C   LIG    1       21.121 -26.804  13.784  0.00  0.00    +0.026 C 
ATOM     14  C   LIG    1       22.462 -26.565  13.457  0.00  0.00    +0.003 C 
ATOM     15  C   LIG    1       20.615 -30.209  12.737  0.00  0.00    -0.020 C 
ATOM     16  C   LIG    1       23.253 -27.542  12.836  0.00  0.00    +0.009 C 
ATOM     17  C   LIG    1       21.180 -31.421  12.091  0.00  0.00    +0.060 C 
ATOM     18  C   LIG    1       24.510 -29.710  11.093  0.00  0.00    +0.002 C 
ENDROOT
BRANCH   1  21
ATOM     19  N   LIG    1       25.148 -30.492   6.614  0.00  0.00    -0.286 N 
ATOM     20  C   LIG    1       25.598 -30.980   7.848  0.00  0.00    +0.303 C 
ATOM     21  N   LIG    1       24.931 -30.466   8.929  0.00  0.00    -0.292 N 
ATOM     22  H   LIG    1       24.174 -29.826   8.787  0.00  0.00    +0.151 HD
ATOM     23  O   LIG    1       26.519 -31.775   7.971  0.00  0.00    -0.253 OA
BRANCH  19  25
ATOM     24  C   LIG    1       24.369 -28.271   5.767  0.00  0.00    +0.024 C 
ATOM     25  C   LIG    1       24.015 -29.586   6.445  0.00  0.00    +0.106 C 
ENDBRANCH  19  25
BRANCH  19  26
ATOM     26  C   LIG    1       25.903 -30.832   5.398  0.00  0.00    +0.106 C 
ATOM     27  C   LIG    1       25.441 -32.141   4.773  0.00  0.00    +0.024 C 
ENDBRANCH  19  26
ENDBRANCH   1  21
TORSDOF 3
ENDMDL
MODEL 7
REMARK VINA RESULT:      -6.1      5.562     10.646
REMARK  Name = *****
REMARK                            x       y       z     vdW  Elec       q    Type
REMARK                         _______ _______ _______ _____ _____    ______ ____
ROOT
ATOM      1  C   LIG    1       26.019 -30.343   9.108  0.00  0.00    +0.112 C 
ATOM      2  C   LIG    1       25.783 -31.857   8.870  0.00  0.00    +0.111 C 
ATOM      3  N   LIG    1       24.369 -32.273   8.713  0.00  0.00    -0.296 NA
ATOM      4  C   LIG    1       23.822 -31.818   7.435  0.00  0.00    +0.105 C 
ATOM      5  C   LIG    1       23.557 -31.862   9.901  0.00  0.00    +0.091 C 
ATOM      6  C   LIG    1       23.897 -30.439  10.450  0.00  0.00    -0.024 C 
ATOM      7  C   LIG    1       22.935 -29.807  11.385  0.00  0.00    -0.011 C 
ATOM      8  C   LIG    1       21.651 -30.371  11.376  0.00  0.00    +0.010 C 
ATOM      9  C   LIG    1       20.619 -29.845  12.138  0.00  0.00    +0.047 C 
ATOM     10  N   LIG    1       19.502 -30.601  11.854  0.00  0.00    -0.360 NA
ATOM     11  H   LIG    1       18.583 -30.439  12.242  0.00  0.00    +0.165 HD
ATOM     12  C   LIG    1       19.815 -31.593  10.953  0.00  0.00    +0.087 C 
ATOM     13  C   LIG    1       20.810 -28.749  12.979  0.00  0.00    +0.026 C 
ATOM     14  C   LIG    1       22.100 -28.205  13.027  0.00  0.00    +0.003 C 
ATOM     15  C   LIG    1       21.152 -31.472  10.651  0.00  0.00    -0.020 C 
ATOM     16  C   LIG    1       23.145 -28.720  12.246  0.00  0.00    +0.009 C 
ATOM     17  C   LIG    1       22.030 -32.221   9.716  0.00  0.00    +0.060 C 
ATOM     18  C   LIG    1       25.021 -29.786  10.087  0.00  0.00    +0.002 C 
ENDROOT
BRANCH   1  21
ATOM     19  N   LIG    1       25.851 -27.634   6.573  0.00  0.00    -0.286 N 
ATOM     20  C   LIG    1       26.134 -28.195   7.826  0.00  0.00    +0.303 C 
ATOM     21  N   LIG    1       25.839 -29.530   7.920  0.00  0.00    -0.292 N 
ATOM     22  H   LIG    1       25.486 -30.018   7.121  0.00  0.00    +0.151 HD
ATOM     23  O   LIG    1       26.581 -27.560   8.771  0.00  0.00    -0.253 OA
BRANCH  19  25
ATOM     24  C   LIG    1       23.886 -28.719   5.470  0.00  0.00    +0.024 C 
ATOM     25  C   LIG    1       25.370 -28.388   5.418  0.00  0.00    +0.106 C 
ENDBRANCH  19  25
BRANCH  19  26
ATOM     26  C   LIG    1       25.956 -26.177   6.408  0.00  0.00    +0.106 C 
ATOM     27  C   LIG    1       24.596 -25.493   6.385  0.00  0.00    +0.024 C 
ENDBRANCH  19  26
ENDBRANCH   1  21
TORSDOF 3
ENDMDL
MODEL 8
REMARK VINA RESULT:      -5.8      8.205     11.119
REMARK  Name = *****
REMARK                            x       y       z     vdW  Elec       q    Type
REMARK                         _______ _______ _______ _____ _____    ______ ____
ROOT
ATOM      1  C   LIG    1       21.741 -30.717  13.650  0.00  0.00    +0.112 C 
ATOM      2  C   LIG    1       22.878 -30.950  14.679  0.00  0.00    +0.111 C 
ATOM      3  N   LIG    1       24.080 -30.098  14.515  0.00  0.00    -0.296 NA
ATOM      4  C   LIG    1       23.802 -28.712  14.888  0.00  0.00    +0.105 C 
ATOM      5  C   LIG    1       24.660 -30.252  13.144  0.00  0.00    +0.091 C 
ATOM      6  C   LIG    1       23.597 -30.332  12.002  0.00  0.00    -0.024 C 
ATOM      7  C   LIG    1       24.061 -30.139  10.606  0.00  0.00    -0.011 C 
ATOM      8  C   LIG    1       25.315 -29.524  10.485  0.00  0.00    +0.010 C 
ATOM      9  C   LIG    1       25.854 -29.206   9.248  0.00  0.00    +0.047 C 
ATOM     10  N   LIG    1       27.055 -28.578   9.497  0.00  0.00    -0.360 NA
ATOM     11  H   LIG    1       27.668 -28.205   8.785  0.00  0.00    +0.165 HD
ATOM     12  C   LIG    1       27.287 -28.514  10.851  0.00  0.00    +0.087 C 
ATOM     13  C   LIG    1       25.193 -29.509   8.057  0.00  0.00    +0.026 C 
ATOM     14  C   LIG    1       23.958 -30.161   8.168  0.00  0.00    +0.003 C 
ATOM     15  C   LIG    1       26.219 -29.108  11.483  0.00  0.00    -0.020 C 
ATOM     16  C   LIG    1       23.398 -30.470   9.416  0.00  0.00    +0.009 C 
ATOM     17  C   LIG    1       25.893 -29.290  12.920  0.00  0.00    +0.060 C 
ATOM     18  C   LIG    1       22.292 -30.558  12.259  0.00  0.00    +0.002 C 
ENDROOT
BRANCH   1  21
ATOM     19  N   LIG    1       19.160 -28.128  14.305  0.00  0.00    -0.286 N 
ATOM     20  C   LIG    1       19.650 -29.432  14.148  0.00  0.00    +0.303 C 
ATOM     21  N   LIG    1       20.992 -29.495  13.875  0.00  0.00    -0.292 N 
ATOM     22  H   LIG    1       21.531 -28.653  13.836  0.00  0.00    +0.151 HD
ATOM     23  O   LIG    1       18.953 -30.434  14.219  0.00  0.00    -0.253 OA
BRANCH  19  25
ATOM     24  C   LIG    1       20.522 -26.572  12.898  0.00  0.00    +0.024 C 
ATOM     25  C   LIG    1       19.986 -26.924  14.278  0.00  0.00    +0.106 C 
ENDBRANCH  19  25
BRANCH  19  26
ATOM     26  C   LIG    1       17.708 -27.925  14.421  0.00  0.00    +0.106 C 
ATOM     27  C   LIG    1       17.323 -26.452  14.412  0.00  0.00    +0.024 C 
ENDBRANCH  19  26
ENDBRANCH   1  21
TORSDOF 3
ENDMDL
MODEL 9
REMARK VINA RESULT:      -5.7      3.160      5.816
REMARK  Name = *****
REMARK                            x       y       z     vdW  Elec       q    Type
REMARK                         _______ _______ _______ _____ _____    ______ ____
ROOT
ATOM      1  C   LIG    1       24.404 -27.625   5.379  0.00  0.00    +0.112 C 
ATOM      2  C   LIG    1       25.867 -27.450   4.895  0.00  0.00    +0.111 C 
ATOM      3  N   LIG    1       26.718 -26.563   5.724  0.00  0.00    -0.296 NA
ATOM      4  C   LIG    1       27.042 -27.187   7.007  0.00  0.00    +0.105 C 
ATOM      5  C   LIG    1       26.109 -25.202   5.848  0.00  0.00    +0.091 C 
ATOM      6  C   LIG    1       24.559 -25.209   6.048  0.00  0.00    -0.024 C 
ATOM      7  C   LIG    1       23.914 -23.959   6.520  0.00  0.00    -0.011 C 
ATOM      8  C   LIG    1       24.789 -23.033   7.106  0.00  0.00    +0.010 C 
ATOM      9  C   LIG    1       24.330 -21.850   7.665  0.00  0.00    +0.047 C 
ATOM     10  N   LIG    1       25.435 -21.212   8.187  0.00  0.00    -0.360 NA
ATOM     11  H   LIG    1       25.410 -20.332   8.683  0.00  0.00    +0.165 HD
ATOM     12  C   LIG    1       26.568 -21.956   7.952  0.00  0.00    +0.087 C 
ATOM     13  C   LIG    1       22.979 -21.501   7.643  0.00  0.00    +0.026 C 
ATOM     14  C   LIG    1       22.104 -22.401   7.022  0.00  0.00    +0.003 C 
ATOM     15  C   LIG    1       26.188 -23.089   7.271  0.00  0.00    -0.020 C 
ATOM     16  C   LIG    1       22.557 -23.608   6.472  0.00  0.00    +0.009 C 
ATOM     17  C   LIG    1       26.957 -24.266   6.796  0.00  0.00    +0.060 C 
ATOM     18  C   LIG    1       23.816 -26.310   5.814  0.00  0.00    +0.002 C 
ENDROOT
BRANCH   1  21
ATOM     19  N   LIG    1       24.207 -30.429   7.805  0.00  0.00    -0.286 N 
ATOM     20  C   LIG    1       24.400 -29.839   6.548  0.00  0.00    +0.303 C 
ATOM     21  N   LIG    1       24.272 -28.474   6.547  0.00  0.00    -0.292 N 
ATOM     22  H   LIG    1       24.090 -27.992   7.405  0.00  0.00    +0.151 HD
ATOM     23  O   LIG    1       24.635 -30.470   5.528  0.00  0.00    -0.253 OA
BRANCH  19  25
ATOM     24  C   LIG    1       23.006 -30.362   9.997  0.00  0.00    +0.024 C 
ATOM     25  C   LIG    1       23.979 -29.688   9.042  0.00  0.00    +0.106 C 
ENDBRANCH  19  25
BRANCH  19  26
ATOM     26  C   LIG    1       24.141 -31.896   7.897  0.00  0.00    +0.106 C 
ATOM     27  C   LIG    1       25.489 -32.520   8.227  0.00  0.00    +0.024 C 
ENDBRANCH  19  26
ENDBRANCH   1  21
TORSDOF 3
ENDMDL
