MODEL 1
REMARK VINA RESULT:      -6.8      0.000      0.000
REMARK  Name = *****
REMARK                            x       y       z     vdW  Elec       q    Type
REMARK                         _______ _______ _______ _____ _____    ______ ____
ROOT
ATOM      1  C   LIG    1       25.197 -22.106   7.440  0.00  0.00    -0.014 A 
ATOM      2  C   LIG    1       23.823 -22.321   7.233  0.00  0.00    +0.055 A 
ATOM      3  C   LIG    1       23.372 -23.561   6.797  0.00  0.00    +0.159 A 
ATOM      4  C   LIG    1       24.258 -24.606   6.569  0.00  0.00    +0.158 A 
ATOM      5  C   LIG    1       25.620 -24.421   6.767  0.00  0.00    +0.049 A 
ATOM      6  C   LIG    1       26.083 -23.173   7.201  0.00  0.00    +0.010 A 
ENDROOT
BRANCH   3   7
ATOM      7  O   LIG    1       22.032 -23.748   6.602  0.00  0.00    -0.503 OA
ATOM      8  H   LIG    1       21.610 -23.193   7.290  0.00  0.00    +0.292 HD
ENDBRANCH   3   7
BRANCH   4   9
ATOM      9  O   LIG    1       23.742 -25.804   6.158  0.00  0.00    -0.503 OA
ATOM     10  H   LIG    1       23.492 -25.715   5.222  0.00  0.00    +0.292 HD
ENDBRANCH   4   9
BRANCH   1  11
ATOM     11  C   LIG    1       25.680 -20.762   7.955  0.00  0.00    +0.158 C 
BRANCH  11  12
ATOM     12  O   LIG    1       25.870 -20.785   9.377  0.00  0.00    -0.386 OA
ATOM     13  H   LIG    1       26.329 -19.944   9.575  0.00  0.00    +0.210 HD
ENDBRANCH  11  12
BRANCH  11  14
ATOM     14  C   LIG    1       27.005 -20.299   7.299  0.00  0.00    +0.116 C 
BRANCH  14  16
ATOM     15  C   LIG    1       29.229 -21.104   7.759  0.00  0.00    +0.101 C 
ATOM     16  N   LIG    1       28.108 -20.329   8.285  0.00  0.00    -0.316 NA
ATOM     17  H   LIG    1       28.429 -19.374   8.454  0.00  0.00    +0.122 HD
ENDBRANCH  14  16
ENDBRANCH  11  14
ENDBRANCH   1  11
TORSDOF 6
ENDMDL
MODEL 2
REMARK VINA RESULT:      -6.8      4.632      6.217
REMARK  Name = *****
REMARK                            x       y       z     vdW  Elec       q    Type
REMARK                         _______ _______ _______ _____ _____    ______ ____
ROOT
ATOM      1  C   LIG    1       30.143 -19.752   7.942  0.00  0.00    -0.014 A 
ATOM      2  C   LIG    1       30.085 -18.802   6.907  0.00  0.00    +0.055 A 
ATOM      3  C   LIG    1       29.169 -18.956   5.873  0.00  0.00    +0.159 A 
ATOM      4  C   LIG    1       28.292 -20.034   5.848  0.00  0.00    +0.158 A 
ATOM      5  C   LIG    1       28.327 -20.985   6.859  0.00  0.00    +0.049 A 
ATOM      6  C   LIG    1       29.251 -20.840   7.901  0.00  0.00    +0.010 A 
ENDROOT
BRANCH   3   7
ATOM      7  O   LIG    1       29.130 -18.021   4.877  0.00  0.00    -0.503 OA
ATOM      8  H   LIG    1       29.556 -18.465   4.115  0.00  0.00    +0.292 HD
ENDBRANCH   3   7
BRANCH   4   9
ATOM      9  O   LIG    1       27.405 -20.112   4.810  0.00  0.00    -0.503 OA
ATOM     10  H   LIG    1       26.913 -20.946   4.901  0.00  0.00    +0.292 HD
ENDBRANCH   4   9
BRANCH   1  11
ATOM     11  C   LIG    1       31.118 -19.557   9.089  0.00  0.00    +0.158 C 
BRANCH  11  12
ATOM     12  O   LIG    1       32.098 -20.604   9.125  0.00  0.00    -0.386 OA
ATOM     13  H   LIG    1       31.868 -21.125   9.921  0.00  0.00    +0.210 HD
ENDBRANCH  11  12
BRANCH  11  14
ATOM     14  C   LIG    1       31.863 -18.200   9.031  0.00  0.00    +0.116 C 
BRANCH  14  16
ATOM     15  C   LIG    1       31.002 -17.439  11.149  0.00  0.00    +0.101 C 
ATOM     16  N   LIG    1       32.215 -17.745  10.396  0.00  0.00    -0.316 NA
ATOM     17  H   LIG    1       32.713 -18.496  10.877  0.00  0.00    +0.122 HD
ENDBRANCH  14  16
ENDBRANCH  11  14
ENDBRANCH   1  11
TORSDOF 6
ENDMDL
MODEL 3
REMARK VINA RESULT:      -6.5      0.727      1.830
REMARK  Name = *****
REMARK                            x       y       z     vdW  Elec       q    Type
REMARK                         _______ _______ _______ _____ _____    ______ ____
ROOT
ATOM      1  C   LIG    1       25.014 -22.015   7.520  0.00  0.00    -0.014 A 
ATOM      2  C   LIG    1       25.859 -23.096   7.214  0.00  0.00    +0.055 A 
ATOM      3  C   LIG    1       25.323 -24.276   6.711  0.00  0.00    +0.159 A 
ATOM      4  C   LIG    1       23.957 -24.405   6.492  0.00  0.00    +0.158 A 
ATOM      5  C   LIG    1       23.100 -23.352   6.784  0.00  0.00    +0.049 A 
ATOM      6  C   LIG    1       23.632 -22.162   7.296  0.00  0.00    +0.010 A 
ENDROOT
BRANCH   3   7
ATOM      7  O   LIG    1       26.163 -25.314   6.420  0.00  0.00    -0.503 OA
ATOM      8  H   LIG    1       26.454 -25.639   7.296  0.00  0.00    +0.292 HD
ENDBRANCH   3   7
BRANCH   4   9
ATOM      9  O   LIG    1       23.502 -25.588   5.977  0.00  0.00    -0.503 OA
ATOM     10  H   LIG    1       22.636 -25.774   6.380  0.00  0.00    +0.292 HD
ENDBRANCH   4   9
BRANCH   1  11
ATOM     11  C   LIG    1       25.609 -20.715   8.031  0.00  0.00    +0.158 C 
BRANCH  11  12
ATOM     12  O   LIG    1       25.853 -20.772   9.444  0.00  0.00    -0.386 OA
ATOM     13  H   LIG    1       26.248 -21.656   9.587  0.00  0.00    +0.210 HD
ENDBRANCH  11  12
BRANCH  11  14
ATOM     14  C   LIG    1       26.935 -20.334   7.326  0.00  0.00    +0.116 C 
BRANCH  14  16
ATOM     15  C   LIG    1       29.191 -21.085   7.724  0.00  0.00    +0.101 C 
ATOM     16  N   LIG    1       28.058 -20.358   8.292  0.00  0.00    -0.316 NA
ATOM     17  H   LIG    1       28.354 -19.398   8.480  0.00  0.00    +0.122 HD
ENDBRANCH  14  16
ENDBRANCH  11  14
ENDBRANCH   1  11
TORSDOF 6
ENDMDL
MODEL 4
REMARK VINA RESULT:      -6.5      3.654      5.289
REMARK  Name = *****
REMARK                            x       y       z     vdW  Elec       q    Type
REMARK                         _______ _______ _______ _____ _____    ______ ____
ROOT
ATOM      1  C   LIG    1       23.552 -21.875   5.923  0.00  0.00    -0.014 A 
ATOM      2  C   LIG    1       24.844 -21.593   5.444  0.00  0.00    +0.055 A 
ATOM      3  C   LIG    1       25.059 -20.479   4.642  0.00  0.00    +0.159 A 
ATOM      4  C   LIG    1       24.017 -19.623   4.310  0.00  0.00    +0.158 A 
ATOM      5  C   LIG    1       22.731 -19.878   4.770  0.00  0.00    +0.049 A 
ATOM      6  C   LIG    1       22.505 -21.002   5.574  0.00  0.00    +0.010 A 
ENDROOT
BRANCH   3   7
ATOM      7  O   LIG    1       26.323 -20.224   4.187  0.00  0.00    -0.503 OA
ATOM      8  H   LIG    1       26.233 -20.230   3.213  0.00  0.00    +0.292 HD
ENDBRANCH   3   7
BRANCH   4   9
ATOM      9  O   LIG    1       24.305 -18.536   3.532  0.00  0.00    -0.503 OA
ATOM     10  H   LIG    1       25.182 -18.207   3.793  0.00  0.00    +0.292 HD
ENDBRANCH   4   9
BRANCH   1  11
ATOM     11  C   LIG    1       23.330 -23.071   6.831  0.00  0.00    +0.158 C 
BRANCH  11  12
ATOM     12  O   LIG    1       22.056 -23.683   6.587  0.00  0.00    -0.386 OA
ATOM     13  H   LIG    1       22.268 -24.494   6.083  0.00  0.00    +0.210 HD
ENDBRANCH  11  12
BRANCH  11  14
ATOM     14  C   LIG    1       24.424 -24.158   6.684  0.00  0.00    +0.116 C 
BRANCH  14  16
ATOM     15  C   LIG    1       25.108 -25.502   4.804  0.00  0.00    +0.101 C 
ATOM     16  N   LIG    1       24.003 -25.186   5.705  0.00  0.00    -0.316 NA
ATOM     17  H   LIG    1       23.744 -26.037   6.208  0.00  0.00    +0.122 HD
ENDBRANCH  14  16
ENDBRANCH  11  14
ENDBRANCH   1  11
TORSDOF 6
ENDMDL
MODEL 5
REMARK VINA RESULT:      -6.4      3.017      4.380
REMARK  Name = *****
REMARK                            x       y       z     vdW  Elec       q    Type
REMARK                         _______ _______ _______ _____ _____    ______ ____
ROOT
ATOM      1  C   LIG    1       28.379 -19.983   6.828  0.00  0.00    -0.014 A 
ATOM      2  C   LIG    1       27.784 -20.209   8.082  0.00  0.00    +0.055 A 
ATOM      3  C   LIG    1       26.430 -20.507   8.165  0.00  0.00    +0.159 A 
ATOM      4  C   LIG    1       25.646 -20.599   7.022  0.00  0.00    +0.158 A 
ATOM      5  C   LIG    1       26.208 -20.382   5.770  0.00  0.00    +0.049 A 
ATOM      6  C   LIG    1       27.571 -20.076   5.679  0.00  0.00    +0.010 A 
ENDROOT
BRANCH   3   7
ATOM      7  O   LIG    1       25.872 -20.722   9.394  0.00  0.00    -0.503 OA
ATOM      8  H   LIG    1       25.679 -19.824   9.731  0.00  0.00    +0.292 HD
ENDBRANCH   3   7
BRANCH   4   9
ATOM      9  O   LIG    1       24.324 -20.914   7.177  0.00  0.00    -0.503 OA
ATOM     10  H   LIG    1       23.951 -21.076   6.294  0.00  0.00    +0.292 HD
ENDBRANCH   4   9
BRANCH   1  11
ATOM     11  C   LIG    1       29.867 -19.697   6.740  0.00  0.00    +0.158 C 
BRANCH  11  12
ATOM     12  O   LIG    1       30.120 -18.415   6.149  0.00  0.00    -0.386 OA
ATOM     13  H   LIG    1       30.564 -18.621   5.301  0.00  0.00    +0.210 HD
ENDBRANCH  11  12
BRANCH  11  14
ATOM     14  C   LIG    1       30.578 -19.742   8.117  0.00  0.00    +0.116 C 
BRANCH  14  16
ATOM     15  C   LIG    1       31.089 -21.866   9.134  0.00  0.00    +0.101 C 
ATOM     16  N   LIG    1       31.538 -20.868   8.167  0.00  0.00    -0.316 NA
ATOM     17  H   LIG    1       31.580 -21.309   7.246  0.00  0.00    +0.122 HD
ENDBRANCH  14  16
ENDBRANCH  11  14
ENDBRANCH   1  11
TORSDOF 6
ENDMDL
MODEL 6
REMARK VINA RESULT:      -6.4      4.328      5.942
REMARK  Name = *****
REMARK                            x       y       z     vdW  Elec       q    Type
REMARK                         _______ _______ _______ _____ _____    ______ ____
ROOT
ATOM      1  C   LIG    1       30.113 -19.556   7.942  0.00  0.00    -0.014 A 
ATOM      2  C   LIG    1       29.222 -20.642   7.898  0.00  0.00    +0.055 A 
ATOM      3  C   LIG    1       28.340 -20.775   6.832  0.00  0.00    +0.159 A 
ATOM      4  C   LIG    1       28.329 -19.853   5.793  0.00  0.00    +0.158 A 
ATOM      5  C   LIG    1       29.200 -18.771   5.810  0.00  0.00    +0.049 A 
ATOM      6  C   LIG    1       30.088 -18.628   6.884  0.00  0.00    +0.010 A 
ENDROOT
BRANCH   3   7
ATOM      7  O   LIG    1       27.481 -21.838   6.811  0.00  0.00    -0.503 OA
ATOM      8  H   LIG    1       27.616 -22.237   5.927  0.00  0.00    +0.292 HD
ENDBRANCH   3   7
BRANCH   4   9
ATOM      9  O   LIG    1       27.447 -20.056   4.768  0.00  0.00    -0.503 OA
ATOM     10  H   LIG    1       26.939 -20.862   4.967  0.00  0.00    +0.292 HD
ENDBRANCH   4   9
BRANCH   1  11
ATOM     11  C   LIG    1       31.102 -19.438   9.088  0.00  0.00    +0.158 C 
BRANCH  11  12
ATOM     12  O   LIG    1       32.052 -20.513   9.071  0.00  0.00    -0.386 OA
ATOM     13  H   LIG    1       32.842 -20.132   8.634  0.00  0.00    +0.210 HD
ENDBRANCH  11  12
BRANCH  11  14
ATOM     14  C   LIG    1       31.885 -18.101   9.081  0.00  0.00    +0.116 C 
BRANCH  14  16
ATOM     15  C   LIG    1       30.941 -17.513  11.219  0.00  0.00    +0.101 C 
ATOM     16  N   LIG    1       32.183 -17.670  10.466  0.00  0.00    -0.316 NA
ATOM     17  H   LIG    1       32.748 -18.389  10.923  0.00  0.00    +0.122 HD
ENDBRANCH  14  16
ENDBRANCH  11  14
ENDBRANCH   1  11
TORSDOF 6
ENDMDL
MODEL 7
REMARK VINA RESULT:      -6.3      3.308      4.613
REMARK  Name = *****
REMARK                            x       y       z     vdW  Elec       q    Type
REMARK                         _______ _______ _______ _____ _____    ______ ____
ROOT
ATOM      1  C   LIG    1       28.764 -19.998   7.032  0.00  0.00    -0.014 A 
ATOM      2  C   LIG    1       28.177 -19.955   5.755  0.00  0.00    +0.055 A 
ATOM      3  C   LIG    1       26.819 -20.208   5.606  0.00  0.00    +0.159 A 
ATOM      4  C   LIG    1       26.019 -20.493   6.705  0.00  0.00    +0.158 A 
ATOM      5  C   LIG    1       26.572 -20.540   7.978  0.00  0.00    +0.049 A 
ATOM      6  C   LIG    1       27.941 -20.292   8.136  0.00  0.00    +0.010 A 
ENDROOT
BRANCH   3   7
ATOM      7  O   LIG    1       26.270 -20.162   4.355  0.00  0.00    -0.503 OA
ATOM      8  H   LIG    1       26.975 -20.507   3.770  0.00  0.00    +0.292 HD
ENDBRANCH   3   7
BRANCH   4   9
ATOM      9  O   LIG    1       24.687 -20.713   6.485  0.00  0.00    -0.503 OA
ATOM     10  H   LIG    1       24.343 -21.229   7.236  0.00  0.00    +0.292 HD
ENDBRANCH   4   9
BRANCH   1  11
ATOM     11  C   LIG    1       30.239 -19.681   7.194  0.00  0.00    +0.158 C 
BRANCH  11  12
ATOM     12  O   LIG    1       30.602 -18.496   6.472  0.00  0.00    -0.386 OA
ATOM     13  H   LIG    1       29.894 -18.391   5.804  0.00  0.00    +0.210 HD
ENDBRANCH  11  12
BRANCH  11  14
ATOM     14  C   LIG    1       30.663 -19.494   8.673  0.00  0.00    +0.116 C 
BRANCH  14  16
ATOM     15  C   LIG    1       31.303 -21.777   9.106  0.00  0.00    +0.101 C 
ATOM     16  N   LIG    1       31.785 -20.401   9.008  0.00  0.00    -0.316 NA
ATOM     17  H   LIG    1       32.481 -20.357   8.262  0.00  0.00    +0.122 HD
ENDBRANCH  14  16
ENDBRANCH  11  14
ENDBRANCH   1  11
TORSDOF 6
ENDMDL
MODEL 8
REMARK VINA RESULT:      -6.2      3.454      6.489
REMARK  Name = *****
REMARK                            x       y       z     vdW  Elec       q    Type
REMARK                         _______ _______ _______ _____ _____    ______ ____
ROOT
ATOM      1  C   LIG    1       28.714 -20.049   7.063  0.00  0.00    -0.014 A 
ATOM      2  C   LIG    1       29.709 -19.057   7.113  0.00  0.00    +0.055 A 
ATOM      3  C   LIG    1       30.858 -19.263   7.868  0.00  0.00    +0.159 A 
ATOM      4  C   LIG    1       31.050 -20.445   8.571  0.00  0.00    +0.158 A 
ATOM      5  C   LIG    1       30.084 -21.442   8.538  0.00  0.00    +0.049 A 
ATOM      6  C   LIG    1       28.921 -21.240   7.785  0.00  0.00    +0.010 A 
ENDROOT
BRANCH   3   7
ATOM      7  O   LIG    1       31.812 -18.285   7.902  0.00  0.00    -0.503 OA
ATOM      8  H   LIG    1       32.657 -18.776   7.956  0.00  0.00    +0.292 HD
ENDBRANCH   3   7
BRANCH   4   9
ATOM      9  O   LIG    1       32.213 -20.586   9.278  0.00  0.00    -0.503 OA
ATOM     10  H   LIG    1       32.952 -20.538   8.647  0.00  0.00    +0.292 HD
ENDBRANCH   4   9
BRANCH   1  11
ATOM     11  C   LIG    1       27.480 -19.836   6.206  0.00  0.00    +0.158 C 
BRANCH  11  12
ATOM     12  O   LIG    1       27.708 -20.247   4.850  0.00  0.00    -0.386 OA
ATOM     13  H   LIG    1       26.825 -20.518   4.526  0.00  0.00    +0.210 HD
ENDBRANCH  11  12
BRANCH  11  14
ATOM     14  C   LIG    1       26.233 -20.589   6.735  0.00  0.00    +0.116 C 
BRANCH  14  16
ATOM     15  C   LIG    1       25.692 -22.935   6.619  0.00  0.00    +0.101 C 
ATOM     16  N   LIG    1       25.892 -21.717   5.838  0.00  0.00    -0.316 NA
ATOM     17  H   LIG    1       25.020 -21.501   5.350  0.00  0.00    +0.122 HD
ENDBRANCH  14  16
ENDBRANCH  11  14
ENDBRANCH   1  11
TORSDOF 6
ENDMDL
MODEL 9
REMARK VINA RESULT:      -6.2      3.283      5.286
REMARK  Name = *****
REMARK                            x       y       z     vdW  Elec       q    Type
REMARK                         _______ _______ _______ _____ _____    ______ ____
ROOT
ATOM      1  C   LIG    1       25.303 -25.267   6.045  0.00  0.00    -0.014 A 
ATOM      2  C   LIG    1       23.911 -25.070   6.075  0.00  0.00    +0.055 A 
ATOM      3  C   LIG    1       23.384 -23.933   6.675  0.00  0.00    +0.159 A 
ATOM      4  C   LIG    1       24.212 -22.972   7.240  0.00  0.00    +0.158 A 
ATOM      5  C   LIG    1       25.591 -23.140   7.223  0.00  0.00    +0.049 A 
ATOM      6  C   LIG    1       26.130 -24.286   6.625  0.00  0.00    +0.010 A 
ENDROOT
BRANCH   3   7
ATOM      7  O   LIG    1       22.028 -23.762   6.694  0.00  0.00    -0.503 OA
ATOM      8  H   LIG    1       21.908 -22.791   6.722  0.00  0.00    +0.292 HD
ENDBRANCH   3   7
BRANCH   4   9
ATOM      9  O   LIG    1       23.624 -21.869   7.797  0.00  0.00    -0.503 OA
ATOM     10  H   LIG    1       23.724 -21.934   8.763  0.00  0.00    +0.292 HD
ENDBRANCH   4   9
BRANCH   1  11
ATOM     11  C   LIG    1       25.876 -26.491   5.353  0.00  0.00    +0.158 C 
BRANCH  11  12
ATOM     12  O   LIG    1       27.230 -26.735   5.758  0.00  0.00    -0.386 OA
ATOM     13  H   LIG    1       27.452 -27.601   5.359  0.00  0.00    +0.210 HD
ENDBRANCH  11  12
BRANCH  11  14
ATOM     14  C   LIG    1       25.054 -27.778   5.615  0.00  0.00    +0.116 C 
BRANCH  14  16
ATOM     15  C   LIG    1       24.534 -29.315   7.397  0.00  0.00    +0.101 C 
ATOM     16  N   LIG    1       25.585 -28.498   6.795  0.00  0.00    -0.316 NA
ATOM     17  H   LIG    1       26.341 -29.117   6.494  0.00  0.00    +0.122 HD
ENDBRANCH  14  16
ENDBRANCH  11  14
ENDBRANCH   1  11
TORSDOF 6
ENDMDL
