MODEL 1
REMARK VINA RESULT:      -4.5      0.000      0.000
REMARK  Name = *****
REMARK                            x       y       z     vdW  Elec       q    Type
REMARK                         _______ _______ _______ _____ _____    ______ ____
ROOT
ATOM      1  C   LIG    1       25.611 -14.032   4.086  0.00  0.00    +0.072 C 
ATOM      2  C   LIG    1       26.652 -13.958   2.942  0.00  0.00    +0.230 C 
ATOM      3  O   LIG    1       26.471 -14.408   1.812  0.00  0.00    -0.274 OA
ATOM      4  N   LIG    1       27.823 -13.282   3.194  0.00  0.00    -0.256 N 
ATOM      5  H   LIG    1       28.460 -13.218   2.411  0.00  0.00    +0.158 HD
ATOM      6  C   LIG    1       28.279 -12.760   4.374  0.00  0.00    +0.219 C 
ATOM      7  O   LIG    1       29.367 -12.180   4.429  0.00  0.00    -0.275 OA
ATOM      8  C   LIG    1       27.366 -12.869   5.564  0.00  0.00    +0.097 C 
ATOM      9  C   LIG    1       26.402 -14.045   5.428  0.00  0.00    +0.030 C 
ENDROOT
BRANCH   1  10
ATOM     10  C   LIG    1       24.771 -15.334   4.046  0.00  0.00    -0.032 A 
ATOM     11  C   LIG    1       23.429 -15.368   4.459  0.00  0.00    +0.006 A 
ATOM     12  C   LIG    1       22.681 -16.557   4.430  0.00  0.00    +0.023 A 
ATOM     13  C   LIG    1       23.237 -17.745   3.960  0.00  0.00    +0.025 A 
ATOM     14  C   LIG    1       24.590 -17.748   3.636  0.00  0.00    +0.023 A 
ATOM     15  C   LIG    1       25.343 -16.565   3.671  0.00  0.00    +0.006 A 
BRANCH  13  16
ATOM     16  N   LIG    1       22.524 -18.947   4.045  0.00  0.00    -0.358 N 
ATOM     17  H   LIG    1       22.281 -19.342   3.142  0.00  0.00    +0.142 HD
ATOM     18  H   LIG    1       22.960 -19.634   4.653  0.00  0.00    +0.142 HD
ENDBRANCH  13  16
ENDBRANCH   1  10
BRANCH   1  20
ATOM     19  C   LIG    1       24.243 -12.334   2.628  0.00  0.00    +0.005 C 
ATOM     20  C   LIG    1       24.759 -12.722   4.010  0.00  0.00    +0.017 C 
ENDBRANCH   1  20
TORSDOF 3
ENDMDL
MODEL 2
REMARK VINA RESULT:      -3.3      1.157      1.256
REMARK  Name = *****
REMARK                            x       y       z     vdW  Elec       q    Type
REMARK                         _______ _______ _______ _____ _____    ______ ____
ROOT
ATOM      1  C   LIG    1       25.462 -14.841   3.647  0.00  0.00    +0.072 C 
ATOM      2  C   LIG    1       26.941 -15.303   3.656  0.00  0.00    +0.230 C 
ATOM      3  O   LIG    1       27.331 -16.382   3.215  0.00  0.00    -0.274 OA
ATOM      4  N   LIG    1       27.878 -14.412   4.124  0.00  0.00    -0.256 N 
ATOM      5  H   LIG    1       28.836 -14.732   4.077  0.00  0.00    +0.158 HD
ATOM      6  C   LIG    1       27.688 -13.196   4.722  0.00  0.00    +0.219 C 
ATOM      7  O   LIG    1       28.649 -12.517   5.092  0.00  0.00    -0.275 OA
ATOM      8  C   LIG    1       26.270 -12.709   4.837  0.00  0.00    +0.097 C 
ATOM      9  C   LIG    1       25.275 -13.868   4.848  0.00  0.00    +0.030 C 
ENDROOT
BRANCH   1  10
ATOM     10  C   LIG    1       24.470 -16.013   3.858  0.00  0.00    -0.032 A 
ATOM     11  C   LIG    1       23.194 -15.819   4.413  0.00  0.00    +0.006 A 
ATOM     12  C   LIG    1       22.308 -16.891   4.612  0.00  0.00    +0.023 A 
ATOM     13  C   LIG    1       22.653 -18.189   4.237  0.00  0.00    +0.025 A 
ATOM     14  C   LIG    1       23.946 -18.411   3.774  0.00  0.00    +0.023 A 
ATOM     15  C   LIG    1       24.836 -17.345   3.582  0.00  0.00    +0.006 A 
BRANCH  13  16
ATOM     16  N   LIG    1       21.813 -19.266   4.547  0.00  0.00    -0.358 N 
ATOM     17  H   LIG    1       20.992 -19.325   3.954  0.00  0.00    +0.142 HD
ATOM     18  H   LIG    1       22.302 -20.154   4.607  0.00  0.00    +0.142 HD
ENDBRANCH  13  16
ENDBRANCH   1  10
BRANCH   1  20
ATOM     19  C   LIG    1       24.199 -12.940   2.354  0.00  0.00    +0.005 C 
ATOM     20  C   LIG    1       25.241 -14.053   2.313  0.00  0.00    +0.017 C 
ENDBRANCH   1  20
TORSDOF 3
ENDMDL
MODEL 3
REMARK VINA RESULT:      -2.7      2.528      3.725
REMARK  Name = *****
REMARK                            x       y       z     vdW  Elec       q    Type
REMARK                         _______ _______ _______ _____ _____    ______ ____
ROOT
ATOM      1  C   LIG    1       26.398 -14.648   3.446  0.00  0.00    +0.072 C 
ATOM      2  C   LIG    1       26.025 -13.820   4.701  0.00  0.00    +0.230 C 
ATOM      3  O   LIG    1       26.510 -13.999   5.817  0.00  0.00    -0.274 OA
ATOM      4  N   LIG    1       25.148 -12.775   4.532  0.00  0.00    -0.256 N 
ATOM      5  H   LIG    1       24.960 -12.231   5.364  0.00  0.00    +0.158 HD
ATOM      6  C   LIG    1       24.432 -12.422   3.420  0.00  0.00    +0.219 C 
ATOM      7  O   LIG    1       23.677 -11.447   3.438  0.00  0.00    -0.275 OA
ATOM      8  C   LIG    1       24.666 -13.233   2.176  0.00  0.00    +0.097 C 
ATOM      9  C   LIG    1       25.157 -14.641   2.505  0.00  0.00    +0.030 C 
ENDROOT
BRANCH   1  10
ATOM     10  C   LIG    1       26.703 -16.131   3.779  0.00  0.00    -0.032 A 
ATOM     11  C   LIG    1       25.814 -17.167   3.447  0.00  0.00    +0.006 A 
ATOM     12  C   LIG    1       26.096 -18.506   3.765  0.00  0.00    +0.023 A 
ATOM     13  C   LIG    1       27.286 -18.861   4.398  0.00  0.00    +0.025 A 
ATOM     14  C   LIG    1       28.131 -17.838   4.816  0.00  0.00    +0.023 A 
ATOM     15  C   LIG    1       27.850 -16.499   4.507  0.00  0.00    +0.006 A 
BRANCH  13  16
ATOM     16  N   LIG    1       27.505 -20.179   4.816  0.00  0.00    -0.358 N 
ATOM     17  H   LIG    1       28.425 -20.333   5.213  0.00  0.00    +0.142 HD
ATOM     18  H   LIG    1       26.768 -20.541   5.414  0.00  0.00    +0.142 HD
ENDBRANCH  13  16
ENDBRANCH   1  10
BRANCH   1  20
ATOM     19  C   LIG    1       28.484 -13.070   3.646  0.00  0.00    +0.005 C 
ATOM     20  C   LIG    1       27.577 -13.898   2.742  0.00  0.00    +0.017 C 
ENDBRANCH   1  20
TORSDOF 3
ENDMDL
MODEL 4
REMARK VINA RESULT:      -2.6      5.762      7.416
REMARK  Name = *****
REMARK                            x       y       z     vdW  Elec       q    Type
REMARK                         _______ _______ _______ _____ _____    ______ ____
ROOT
ATOM      1  C   LIG    1       24.001 -20.394   5.144  0.00  0.00    +0.072 C 
ATOM      2  C   LIG    1       23.890 -20.289   3.603  0.00  0.00    +0.230 C 
ATOM      3  O   LIG    1       24.630 -20.875   2.815  0.00  0.00    -0.274 OA
ATOM      4  N   LIG    1       22.850 -19.548   3.093  0.00  0.00    -0.256 N 
ATOM      5  H   LIG    1       22.784 -19.536   2.084  0.00  0.00    +0.158 HD
ATOM      6  C   LIG    1       21.948 -18.760   3.755  0.00  0.00    +0.219 C 
ATOM      7  O   LIG    1       21.069 -18.152   3.138  0.00  0.00    -0.275 OA
ATOM      8  C   LIG    1       22.042 -18.732   5.255  0.00  0.00    +0.097 C 
ATOM      9  C   LIG    1       23.452 -19.063   5.737  0.00  0.00    +0.030 C 
ENDROOT
BRANCH   1  10
ATOM     10  C   LIG    1       25.467 -20.532   5.629  0.00  0.00    -0.032 A 
ATOM     11  C   LIG    1       25.843 -21.464   6.611  0.00  0.00    +0.006 A 
ATOM     12  C   LIG    1       27.173 -21.571   7.051  0.00  0.00    +0.023 A 
ATOM     13  C   LIG    1       28.178 -20.774   6.506  0.00  0.00    +0.025 A 
ATOM     14  C   LIG    1       27.806 -19.784   5.602  0.00  0.00    +0.023 A 
ATOM     15  C   LIG    1       26.478 -19.668   5.165  0.00  0.00    +0.006 A 
BRANCH  13  16
ATOM     16  N   LIG    1       29.475 -20.805   7.033  0.00  0.00    -0.358 N 
ATOM     17  H   LIG    1       30.085 -20.086   6.656  0.00  0.00    +0.142 HD
ATOM     18  H   LIG    1       29.498 -20.827   8.048  0.00  0.00    +0.142 HD
ENDBRANCH  13  16
ENDBRANCH   1  10
BRANCH   1  20
ATOM     19  C   LIG    1       22.619 -21.561   7.044  0.00  0.00    +0.005 C 
ATOM     20  C   LIG    1       23.071 -21.572   5.587  0.00  0.00    +0.017 C 
ENDBRANCH   1  20
TORSDOF 3
ENDMDL
MODEL 5
REMARK VINA RESULT:      -1.7      3.304      6.569
REMARK  Name = *****
REMARK                            x       y       z     vdW  Elec       q    Type
REMARK                         _______ _______ _______ _____ _____    ______ ____
ROOT
ATOM      1  C   LIG    1       24.117 -18.652   4.011  0.00  0.00    +0.072 C 
ATOM      2  C   LIG    1       22.717 -18.614   4.674  0.00  0.00    +0.230 C 
ATOM      3  O   LIG    1       21.877 -17.741   4.464  0.00  0.00    -0.274 OA
ATOM      4  N   LIG    1       22.376 -19.665   5.492  0.00  0.00    -0.256 N 
ATOM      5  H   LIG    1       21.440 -19.626   5.873  0.00  0.00    +0.158 HD
ATOM      6  C   LIG    1       23.151 -20.705   5.927  0.00  0.00    +0.219 C 
ATOM      7  O   LIG    1       22.685 -21.572   6.671  0.00  0.00    -0.275 OA
ATOM      8  C   LIG    1       24.559 -20.769   5.403  0.00  0.00    +0.097 C 
ATOM      9  C   LIG    1       25.072 -19.390   4.995  0.00  0.00    +0.030 C 
ENDROOT
BRANCH   1  10
ATOM     10  C   LIG    1       24.709 -17.238   3.785  0.00  0.00    -0.032 A 
ATOM     11  C   LIG    1       26.028 -17.043   3.340  0.00  0.00    +0.006 A 
ATOM     12  C   LIG    1       26.557 -15.756   3.151  0.00  0.00    +0.023 A 
ATOM     13  C   LIG    1       25.782 -14.619   3.370  0.00  0.00    +0.025 A 
ATOM     14  C   LIG    1       24.507 -14.793   3.899  0.00  0.00    +0.023 A 
ATOM     15  C   LIG    1       23.976 -16.076   4.098  0.00  0.00    +0.006 A 
BRANCH  13  16
ATOM     16  N   LIG    1       26.352 -13.343   3.293  0.00  0.00    -0.358 N 
ATOM     17  H   LIG    1       25.916 -12.664   3.909  0.00  0.00    +0.142 HD
ATOM     18  H   LIG    1       27.363 -13.345   3.389  0.00  0.00    +0.142 HD
ENDBRANCH  13  16
ENDBRANCH   1  10
BRANCH   1  20
ATOM     19  C   LIG    1       24.944 -20.670   2.554  0.00  0.00    +0.005 C 
ATOM     20  C   LIG    1       23.978 -19.500   2.704  0.00  0.00    +0.017 C 
ENDBRANCH   1  20
TORSDOF 3
ENDMDL
MODEL 6
REMARK VINA RESULT:      -1.6      3.293      6.440
REMARK  Name = *****
REMARK                            x       y       z     vdW  Elec       q    Type
REMARK                         _______ _______ _______ _____ _____    ______ ____
ROOT
ATOM      1  C   LIG    1       24.100 -18.604   4.045  0.00  0.00    +0.072 C 
ATOM      2  C   LIG    1       22.725 -18.565   4.758  0.00  0.00    +0.230 C 
ATOM      3  O   LIG    1       21.889 -17.677   4.601  0.00  0.00    -0.274 OA
ATOM      4  N   LIG    1       22.399 -19.632   5.562  0.00  0.00    -0.256 N 
ATOM      5  H   LIG    1       21.478 -19.592   5.978  0.00  0.00    +0.158 HD
ATOM      6  C   LIG    1       23.176 -20.692   5.944  0.00  0.00    +0.219 C 
ATOM      7  O   LIG    1       22.725 -21.572   6.682  0.00  0.00    -0.275 OA
ATOM      8  C   LIG    1       24.563 -20.761   5.368  0.00  0.00    +0.097 C 
ATOM      9  C   LIG    1       25.079 -19.378   4.976  0.00  0.00    +0.030 C 
ENDROOT
BRANCH   1  10
ATOM     10  C   LIG    1       24.702 -17.192   3.833  0.00  0.00    -0.032 A 
ATOM     11  C   LIG    1       23.958 -16.022   4.062  0.00  0.00    +0.006 A 
ATOM     12  C   LIG    1       24.511 -14.747   3.854  0.00  0.00    +0.023 A 
ATOM     13  C   LIG    1       25.832 -14.595   3.439  0.00  0.00    +0.025 A 
ATOM     14  C   LIG    1       26.551 -15.742   3.118  0.00  0.00    +0.023 A 
ATOM     15  C   LIG    1       26.000 -17.017   3.317  0.00  0.00    +0.006 A 
BRANCH  13  16
ATOM     16  N   LIG    1       26.337 -13.328   3.121  0.00  0.00    -0.358 N 
ATOM     17  H   LIG    1       26.394 -13.151   2.123  0.00  0.00    +0.142 HD
ATOM     18  H   LIG    1       25.871 -12.572   3.614  0.00  0.00    +0.142 HD
ENDBRANCH  13  16
ENDBRANCH   1  10
BRANCH   1  20
ATOM     19  C   LIG    1       24.980 -20.447   2.399  0.00  0.00    +0.005 C 
ATOM     20  C   LIG    1       23.903 -19.417   2.723  0.00  0.00    +0.017 C 
ENDBRANCH   1  20
TORSDOF 3
ENDMDL
MODEL 7
REMARK VINA RESULT:      -1.6      1.934      2.878
REMARK  Name = *****
REMARK                            x       y       z     vdW  Elec       q    Type
REMARK                         _______ _______ _______ _____ _____    ______ ____
ROOT
ATOM      1  C   LIG    1       25.148 -15.062   3.693  0.00  0.00    +0.072 C 
ATOM      2  C   LIG    1       26.270 -14.579   4.645  0.00  0.00    +0.230 C 
ATOM      3  O   LIG    1       27.317 -15.193   4.847  0.00  0.00    -0.274 OA
ATOM      4  N   LIG    1       26.109 -13.352   5.244  0.00  0.00    -0.256 N 
ATOM      5  H   LIG    1       26.879 -13.052   5.826  0.00  0.00    +0.158 HD
ATOM      6  C   LIG    1       25.019 -12.524   5.231  0.00  0.00    +0.219 C 
ATOM      7  O   LIG    1       25.038 -11.447   5.831  0.00  0.00    -0.275 OA
ATOM      8  C   LIG    1       23.844 -12.961   4.400  0.00  0.00    +0.097 C 
ATOM      9  C   LIG    1       23.807 -14.477   4.229  0.00  0.00    +0.030 C 
ENDROOT
BRANCH   1  10
ATOM     10  C   LIG    1       24.995 -16.604   3.683  0.00  0.00    -0.032 A 
ATOM     11  C   LIG    1       26.049 -17.456   3.313  0.00  0.00    +0.006 A 
ATOM     12  C   LIG    1       25.894 -18.851   3.295  0.00  0.00    +0.023 A 
ATOM     13  C   LIG    1       24.693 -19.448   3.675  0.00  0.00    +0.025 A 
ATOM     14  C   LIG    1       23.613 -18.616   3.955  0.00  0.00    +0.023 A 
ATOM     15  C   LIG    1       23.761 -17.221   3.966  0.00  0.00    +0.006 A 
BRANCH  13  16
ATOM     16  N   LIG    1       24.511 -20.829   3.542  0.00  0.00    -0.358 N 
ATOM     17  H   LIG    1       23.537 -21.114   3.549  0.00  0.00    +0.142 HD
ATOM     18  H   LIG    1       25.017 -21.230   2.759  0.00  0.00    +0.142 HD
ENDBRANCH  13  16
ENDBRANCH   1  10
BRANCH   1  20
ATOM     19  C   LIG    1       26.742 -13.645   2.166  0.00  0.00    +0.005 C 
ATOM     20  C   LIG    1       25.448 -14.443   2.288  0.00  0.00    +0.017 C 
ENDBRANCH   1  20
TORSDOF 3
ENDMDL
