MODEL 1
REMARK VINA RESULT:      -7.8      0.000      0.000
REMARK  Name = *****
REMARK                            x       y       z     vdW  Elec       q    Type
REMARK                         _______ _______ _______ _____ _____    ______ ____
ROOT
ATOM      1  C   LIG    1       25.254 -31.248   7.793  0.00  0.00    +0.249 C 
ATOM      2  N   LIG    1       24.746 -30.354   6.821  0.00  0.00    -0.293 N 
ATOM      3  C   LIG    1       25.192 -30.416   5.405  0.00  0.00    +0.075 C 
ATOM      4  C   LIG    1       25.735 -31.754   4.884  0.00  0.00    +0.028 C 
ATOM      5  C   LIG    1       26.225 -29.304   5.109  0.00  0.00    +0.041 C 
ATOM      6  C   LIG    1       25.595 -27.924   4.890  0.00  0.00    +0.111 C 
ATOM      7  N   LIG    1       25.193 -27.212   6.100  0.00  0.00    -0.283 N 
ATOM      8  C   LIG    1       24.885 -27.909   7.346  0.00  0.00    +0.128 C 
ATOM      9  C   LIG    1       23.995 -29.131   7.125  0.00  0.00    +0.127 C 
ATOM     10  O   LIG    1       25.787 -32.314   7.502  0.00  0.00    -0.270 OA
ENDROOT
BRANCH   7  11
ATOM     11  C   LIG    1       24.888 -25.893   6.023  0.00  0.00    +0.291 A 
ATOM     12  O   LIG    1       23.756 -25.471   6.676  0.00  0.00    -0.424 OA
ATOM     13  C   LIG    1       23.660 -24.149   6.365  0.00  0.00    +0.157 A 
ATOM     14  C   LIG    1       24.749 -23.821   5.577  0.00  0.00    +0.113 A 
ATOM     15  C   LIG    1       24.890 -22.503   5.123  0.00  0.00    +0.051 A 
ATOM     16  C   LIG    1       23.894 -21.585   5.482  0.00  0.00    +0.043 A 
ATOM     17  C   LIG    1       22.798 -21.957   6.271  0.00  0.00    +0.023 A 
ATOM     18 CL   LIG    1       24.017 -19.957   4.930  0.00  0.00    -0.084 Cl
ATOM     19  C   LIG    1       22.658 -23.267   6.745  0.00  0.00    +0.050 A 
ATOM     20  N   LIG    1       25.520 -24.935   5.373  0.00  0.00    -0.195 NA
ENDBRANCH   7  11
BRANCH   1  24
ATOM     21  C   LIG    1       28.371 -29.430  11.196  0.00  0.00    +0.044 C 
ATOM     22  C   LIG    1       26.982 -29.880  10.851  0.00  0.00    -0.050 A 
ATOM     23  C   LIG    1       26.672 -30.357   9.567  0.00  0.00    +0.018 A 
ATOM     24  C   LIG    1       25.391 -30.867   9.239  0.00  0.00    +0.064 A 
ATOM     25  C   LIG    1       24.442 -30.942  10.266  0.00  0.00    +0.098 A 
ATOM     26  C   LIG    1       24.707 -30.329  11.511  0.00  0.00    +0.030 A 
ATOM     27  C   LIG    1       25.965 -29.805  11.798  0.00  0.00    +0.005 A 
BRANCH  25  28
ATOM     28  N   LIG    1       23.255 -31.702  10.174  0.00  0.00    -0.150 N 
ATOM     29  N   LIG    1       22.047 -31.095   9.978  0.00  0.00    -0.156 NA
ATOM     30  C   LIG    1       21.207 -32.130   9.964  0.00  0.00    +0.156 A 
ATOM     31  C   LIG    1       21.913 -33.312  10.192  0.00  0.00    +0.156 A 
ATOM     32  N   LIG    1       23.219 -33.053  10.286  0.00  0.00    -0.156 NA
ENDBRANCH  25  28
ENDBRANCH   1  24
TORSDOF 3
ENDMDL
MODEL 2
REMARK VINA RESULT:      -6.4      1.714      3.417
REMARK  Name = *****
REMARK                            x       y       z     vdW  Elec       q    Type
REMARK                         _______ _______ _______ _____ _____    ______ ____
ROOT
ATOM      1  C   LIG    1       24.106 -32.749   7.274  0.00  0.00    +0.249 C 
ATOM      2  N   LIG    1       24.152 -31.688   6.338  0.00  0.00    -0.293 N 
ATOM      3  C   LIG    1       25.207 -31.625   5.293  0.00  0.00    +0.075 C 
ATOM      4  C   LIG    1       25.870 -32.941   4.866  0.00  0.00    +0.028 C 
ATOM      5  C   LIG    1       26.305 -30.611   5.687  0.00  0.00    +0.041 C 
ATOM      6  C   LIG    1       25.912 -29.151   5.434  0.00  0.00    +0.111 C 
ATOM      7  N   LIG    1       25.023 -28.553   6.425  0.00  0.00    -0.283 N 
ATOM      8  C   LIG    1       24.137 -29.360   7.261  0.00  0.00    +0.128 C 
ATOM      9  C   LIG    1       23.401 -30.434   6.463  0.00  0.00    +0.127 C 
ATOM     10  O   LIG    1       24.666 -33.825   7.088  0.00  0.00    -0.270 OA
ENDROOT
BRANCH   7  11
ATOM     11  C   LIG    1       24.848 -27.209   6.435  0.00  0.00    +0.291 A 
ATOM     12  O   LIG    1       25.955 -26.432   6.667  0.00  0.00    -0.424 OA
ATOM     13  C   LIG    1       25.475 -25.159   6.698  0.00  0.00    +0.157 A 
ATOM     14  C   LIG    1       24.115 -25.215   6.446  0.00  0.00    +0.113 A 
ATOM     15  C   LIG    1       23.377 -24.025   6.417  0.00  0.00    +0.051 A 
ATOM     16  C   LIG    1       24.065 -22.830   6.668  0.00  0.00    +0.043 A 
ATOM     17  C   LIG    1       25.441 -22.813   6.932  0.00  0.00    +0.023 A 
ATOM     18 CL   LIG    1       23.194 -21.344   6.661  0.00  0.00    -0.084 Cl
ATOM     19  C   LIG    1       26.190 -23.995   6.945  0.00  0.00    +0.050 A 
ATOM     20  N   LIG    1       23.734 -26.520   6.277  0.00  0.00    -0.195 NA
ENDBRANCH   7  11
BRANCH   1  24
ATOM     21  C   LIG    1       20.068 -33.233  10.114  0.00  0.00    +0.044 C 
ATOM     22  C   LIG    1       21.533 -32.917  10.023  0.00  0.00    -0.050 A 
ATOM     23  C   LIG    1       22.205 -32.944   8.791  0.00  0.00    +0.018 A 
ATOM     24  C   LIG    1       23.566 -32.569   8.664  0.00  0.00    +0.064 A 
ATOM     25  C   LIG    1       24.217 -32.100   9.811  0.00  0.00    +0.098 A 
ATOM     26  C   LIG    1       23.587 -32.212  11.070  0.00  0.00    +0.030 A 
ATOM     27  C   LIG    1       22.257 -32.616  11.173  0.00  0.00    +0.005 A 
BRANCH  25  28
ATOM     28  N   LIG    1       25.447 -31.407   9.779  0.00  0.00    -0.150 N 
ATOM     29  N   LIG    1       25.518 -30.086  10.119  0.00  0.00    -0.156 NA
ATOM     30  C   LIG    1       26.812 -29.816   9.949  0.00  0.00    +0.156 A 
ATOM     31  C   LIG    1       27.471 -30.951   9.477  0.00  0.00    +0.156 A 
ATOM     32  N   LIG    1       26.619 -31.978   9.406  0.00  0.00    -0.156 NA
ENDBRANCH  25  28
ENDBRANCH   1  24
TORSDOF 3
ENDMDL
MODEL 3
REMARK VINA RESULT:      -6.3      4.861      7.763
REMARK  Name = *****
REMARK                            x       y       z     vdW  Elec       q    Type
REMARK                         _______ _______ _______ _____ _____    ______ ____
ROOT
ATOM      1  C   LIG    1       20.243 -30.096  13.231  0.00  0.00    +0.249 C 
ATOM      2  N   LIG    1       20.270 -30.838  12.026  0.00  0.00    -0.293 N 
ATOM      3  C   LIG    1       20.099 -32.314  12.023  0.00  0.00    +0.075 C 
ATOM      4  C   LIG    1       19.343 -32.948  13.198  0.00  0.00    +0.028 C 
ATOM      5  C   LIG    1       21.464 -33.021  11.860  0.00  0.00    +0.041 C 
ATOM      6  C   LIG    1       21.977 -33.039  10.416  0.00  0.00    +0.111 C 
ATOM      7  N   LIG    1       22.579 -31.797   9.942  0.00  0.00    -0.283 N 
ATOM      8  C   LIG    1       22.250 -30.500  10.530  0.00  0.00    +0.128 C 
ATOM      9  C   LIG    1       20.748 -30.320  10.739  0.00  0.00    +0.127 C 
ATOM     10  O   LIG    1       19.742 -30.525  14.265  0.00  0.00    -0.270 OA
ENDROOT
BRANCH   7  11
ATOM     11  C   LIG    1       23.299 -31.803   8.793  0.00  0.00    +0.291 A 
ATOM     12  O   LIG    1       23.728 -30.591   8.313  0.00  0.00    -0.424 OA
ATOM     13  C   LIG    1       24.340 -30.892   7.135  0.00  0.00    +0.157 A 
ATOM     14  C   LIG    1       24.291 -32.265   6.972  0.00  0.00    +0.113 A 
ATOM     15  C   LIG    1       24.864 -32.838   5.829  0.00  0.00    +0.051 A 
ATOM     16  C   LIG    1       25.444 -31.972   4.893  0.00  0.00    +0.043 A 
ATOM     17  C   LIG    1       25.464 -30.584   5.085  0.00  0.00    +0.023 A 
ATOM     18 CL   LIG    1       26.144 -32.630   3.463  0.00  0.00    -0.084 Cl
ATOM     19  C   LIG    1       24.910 -30.004   6.232  0.00  0.00    +0.050 A 
ATOM     20  N   LIG    1       23.633 -32.828   8.034  0.00  0.00    -0.195 NA
ENDBRANCH   7  11
BRANCH   1  24
ATOM     21  C   LIG    1       24.810 -28.165  13.355  0.00  0.00    +0.044 C 
ATOM     22  C   LIG    1       23.328 -27.934  13.374  0.00  0.00    -0.050 A 
ATOM     23  C   LIG    1       22.426 -29.008  13.307  0.00  0.00    +0.018 A 
ATOM     24  C   LIG    1       21.024 -28.825  13.407  0.00  0.00    +0.064 A 
ATOM     25  C   LIG    1       20.556 -27.527  13.642  0.00  0.00    +0.098 A 
ATOM     26  C   LIG    1       21.449 -26.434  13.561  0.00  0.00    +0.030 A 
ATOM     27  C   LIG    1       22.821 -26.639  13.429  0.00  0.00    +0.005 A 
BRANCH  25  28
ATOM     28  N   LIG    1       19.242 -27.238  14.071  0.00  0.00    -0.150 N 
ATOM     29  N   LIG    1       18.538 -26.200  13.530  0.00  0.00    -0.156 NA
ATOM     30  C   LIG    1       17.385 -26.259  14.197  0.00  0.00    +0.156 A 
ATOM     31  C   LIG    1       17.438 -27.287  15.138  0.00  0.00    +0.156 A 
ATOM     32  N   LIG    1       18.599 -27.940  15.037  0.00  0.00    -0.156 NA
ENDBRANCH  25  28
ENDBRANCH   1  24
TORSDOF 3
ENDMDL
MODEL 4
REMARK VINA RESULT:      -6.1      4.745      7.431
REMARK  Name = *****
REMARK                            x       y       z     vdW  Elec       q    Type
REMARK                         _______ _______ _______ _____ _____    ______ ____
ROOT
ATOM      1  C   LIG    1       22.316 -30.475  14.296  0.00  0.00    +0.249 C 
ATOM      2  N   LIG    1       22.658 -31.436  13.315  0.00  0.00    -0.293 N 
ATOM      3  C   LIG    1       23.565 -32.571  13.629  0.00  0.00    +0.075 C 
ATOM      4  C   LIG    1       23.664 -33.023  15.092  0.00  0.00    +0.028 C 
ATOM      5  C   LIG    1       24.986 -32.299  13.087  0.00  0.00    +0.041 C 
ATOM      6  C   LIG    1       25.128 -32.551  11.582  0.00  0.00    +0.111 C 
ATOM      7  N   LIG    1       24.610 -31.500  10.712  0.00  0.00    -0.283 N 
ATOM      8  C   LIG    1       23.571 -30.571  11.150  0.00  0.00    +0.128 C 
ATOM      9  C   LIG    1       22.427 -31.276  11.875  0.00  0.00    +0.127 C 
ATOM     10  O   LIG    1       22.428 -30.683  15.500  0.00  0.00    -0.270 OA
ENDROOT
BRANCH   7  11
ATOM     11  C   LIG    1       24.935 -31.507   9.395  0.00  0.00    +0.291 A 
ATOM     12  O   LIG    1       24.808 -30.325   8.710  0.00  0.00    -0.424 OA
ATOM     13  C   LIG    1       25.120 -30.644   7.424  0.00  0.00    +0.157 A 
ATOM     14  C   LIG    1       25.458 -31.986   7.393  0.00  0.00    +0.113 A 
ATOM     15  C   LIG    1       25.828 -32.568   6.174  0.00  0.00    +0.051 A 
ATOM     16  C   LIG    1       25.816 -31.750   5.036  0.00  0.00    +0.043 A 
ATOM     17  C   LIG    1       25.455 -30.398   5.104  0.00  0.00    +0.023 A 
ATOM     18 CL   LIG    1       26.247 -32.428   3.512  0.00  0.00    -0.084 Cl
ATOM     19  C   LIG    1       25.100 -29.803   6.320  0.00  0.00    +0.050 A 
ATOM     20  N   LIG    1       25.341 -32.517   8.650  0.00  0.00    -0.195 NA
ENDBRANCH   7  11
BRANCH   1  24
ATOM     21  C   LIG    1       24.266 -25.942  13.796  0.00  0.00    +0.044 C 
ATOM     22  C   LIG    1       23.075 -26.841  13.642  0.00  0.00    -0.050 A 
ATOM     23  C   LIG    1       23.138 -28.197  14.001  0.00  0.00    +0.018 A 
ATOM     24  C   LIG    1       22.006 -29.047  13.946  0.00  0.00    +0.064 A 
ATOM     25  C   LIG    1       20.784 -28.474  13.577  0.00  0.00    +0.098 A 
ATOM     26  C   LIG    1       20.752 -27.152  13.077  0.00  0.00    +0.030 A 
ATOM     27  C   LIG    1       21.887 -26.346  13.112  0.00  0.00    +0.005 A 
BRANCH  25  28
ATOM     28  N   LIG    1       19.536 -29.104  13.777  0.00  0.00    -0.150 N 
ATOM     29  N   LIG    1       18.652 -28.633  14.707  0.00  0.00    -0.156 NA
ATOM     30  C   LIG    1       17.637 -29.489  14.594  0.00  0.00    +0.156 A 
ATOM     31  C   LIG    1       17.947 -30.465  13.646  0.00  0.00    +0.156 A 
ATOM     32  N   LIG    1       19.134 -30.203  13.093  0.00  0.00    -0.156 NA
ENDBRANCH  25  28
ENDBRANCH   1  24
TORSDOF 3
ENDMDL
MODEL 5
REMARK VINA RESULT:      -6.0      4.950      7.623
REMARK  Name = *****
REMARK                            x       y       z     vdW  Elec       q    Type
REMARK                         _______ _______ _______ _____ _____    ______ ____
ROOT
ATOM      1  C   LIG    1       22.877 -30.581  13.880  0.00  0.00    +0.249 C 
ATOM      2  N   LIG    1       23.023 -31.563  12.871  0.00  0.00    -0.293 N 
ATOM      3  C   LIG    1       23.643 -32.882  13.160  0.00  0.00    +0.075 C 
ATOM      4  C   LIG    1       23.596 -33.392  14.607  0.00  0.00    +0.028 C 
ATOM      5  C   LIG    1       25.104 -32.920  12.659  0.00  0.00    +0.041 C 
ATOM      6  C   LIG    1       25.229 -33.149  11.149  0.00  0.00    +0.111 C 
ATOM      7  N   LIG    1       24.985 -31.981  10.308  0.00  0.00    -0.283 N 
ATOM      8  C   LIG    1       24.169 -30.856  10.759  0.00  0.00    +0.128 C 
ATOM      9  C   LIG    1       22.875 -31.309  11.434  0.00  0.00    +0.127 C 
ATOM     10  O   LIG    1       22.905 -30.848  15.077  0.00  0.00    -0.270 OA
ENDROOT
BRANCH   7  11
ATOM     11  C   LIG    1       25.338 -32.019   9.000  0.00  0.00    +0.291 A 
ATOM     12  O   LIG    1       24.921 -30.980   8.206  0.00  0.00    -0.424 OA
ATOM     13  C   LIG    1       25.344 -31.318   6.957  0.00  0.00    +0.157 A 
ATOM     14  C   LIG    1       26.026 -32.518   7.053  0.00  0.00    +0.113 A 
ATOM     15  C   LIG    1       26.573 -33.087   5.895  0.00  0.00    +0.051 A 
ATOM     16  C   LIG    1       26.376 -32.407   4.685  0.00  0.00    +0.043 A 
ATOM     17  C   LIG    1       25.668 -31.200   4.625  0.00  0.00    +0.023 A 
ATOM     18 CL   LIG    1       27.015 -33.079   3.233  0.00  0.00    -0.084 Cl
ATOM     19  C   LIG    1       25.133 -30.615   5.778  0.00  0.00    +0.050 A 
ATOM     20  N   LIG    1       26.018 -32.946   8.354  0.00  0.00    -0.195 NA
ENDBRANCH   7  11
BRANCH   1  24
ATOM     21  C   LIG    1       20.052 -26.612  12.947  0.00  0.00    +0.044 C 
ATOM     22  C   LIG    1       21.421 -27.171  13.201  0.00  0.00    -0.050 A 
ATOM     23  C   LIG    1       21.615 -28.544  13.419  0.00  0.00    +0.018 A 
ATOM     24  C   LIG    1       22.905 -29.110  13.577  0.00  0.00    +0.064 A 
ATOM     25  C   LIG    1       24.006 -28.256  13.444  0.00  0.00    +0.098 A 
ATOM     26  C   LIG    1       23.806 -26.860  13.372  0.00  0.00    +0.030 A 
ATOM     27  C   LIG    1       22.525 -26.325  13.250  0.00  0.00    +0.005 A 
BRANCH  25  28
ATOM     28  N   LIG    1       25.329 -28.716  13.263  0.00  0.00    -0.150 N 
ATOM     29  N   LIG    1       26.066 -28.327  12.181  0.00  0.00    -0.156 NA
ATOM     30  C   LIG    1       27.217 -28.972  12.372  0.00  0.00    +0.156 A 
ATOM     31  C   LIG    1       27.131 -29.755  13.523  0.00  0.00    +0.156 A 
ATOM     32  N   LIG    1       25.950 -29.566  14.118  0.00  0.00    -0.156 NA
ENDBRANCH  25  28
ENDBRANCH   1  24
TORSDOF 3
ENDMDL
MODEL 6
REMARK VINA RESULT:      -6.0      4.945      7.216
REMARK  Name = *****
REMARK                            x       y       z     vdW  Elec       q    Type
REMARK                         _______ _______ _______ _____ _____    ______ ____
ROOT
ATOM      1  C   LIG    1       24.629 -28.755  13.725  0.00  0.00    +0.249 C 
ATOM      2  N   LIG    1       25.598 -29.335  12.871  0.00  0.00    -0.293 N 
ATOM      3  C   LIG    1       26.886 -28.651  12.587  0.00  0.00    +0.075 C 
ATOM      4  C   LIG    1       27.404 -27.643  13.622  0.00  0.00    +0.028 C 
ATOM      5  C   LIG    1       26.849 -27.974  11.198  0.00  0.00    +0.041 C 
ATOM      6  C   LIG    1       27.065 -28.947  10.034  0.00  0.00    +0.111 C 
ATOM      7  N   LIG    1       25.906 -29.751   9.658  0.00  0.00    -0.283 N 
ATOM      8  C   LIG    1       24.826 -30.044  10.597  0.00  0.00    +0.128 C 
ATOM      9  C   LIG    1       25.345 -30.465  11.970  0.00  0.00    +0.127 C 
ATOM     10  O   LIG    1       24.900 -27.880  14.541  0.00  0.00    -0.270 OA
ENDROOT
BRANCH   7  11
ATOM     11  C   LIG    1       25.921 -30.427   8.483  0.00  0.00    +0.291 A 
ATOM     12  O   LIG    1       26.762 -31.508   8.389  0.00  0.00    -0.424 OA
ATOM     13  C   LIG    1       26.627 -31.931   7.103  0.00  0.00    +0.157 A 
ATOM     14  C   LIG    1       25.689 -31.120   6.488  0.00  0.00    +0.113 A 
ATOM     15  C   LIG    1       25.361 -31.352   5.146  0.00  0.00    +0.051 A 
ATOM     16  C   LIG    1       26.026 -32.395   4.488  0.00  0.00    +0.043 A 
ATOM     17  C   LIG    1       26.980 -33.187   5.140  0.00  0.00    +0.023 A 
ATOM     18 CL   LIG    1       25.668 -32.705   2.832  0.00  0.00    -0.084 Cl
ATOM     19  C   LIG    1       27.303 -32.975   6.485  0.00  0.00    +0.050 A 
ATOM     20  N   LIG    1       25.248 -30.175   7.377  0.00  0.00    -0.195 NA
ENDBRANCH   7  11
BRANCH   1  24
ATOM     21  C   LIG    1       20.273 -26.559  12.827  0.00  0.00    +0.044 C 
ATOM     22  C   LIG    1       21.043 -27.833  13.017  0.00  0.00    -0.050 A 
ATOM     23  C   LIG    1       22.422 -27.814  13.282  0.00  0.00    +0.018 A 
ATOM     24  C   LIG    1       23.157 -28.997  13.548  0.00  0.00    +0.064 A 
ATOM     25  C   LIG    1       22.446 -30.201  13.602  0.00  0.00    +0.098 A 
ATOM     26  C   LIG    1       21.095 -30.237  13.192  0.00  0.00    +0.030 A 
ATOM     27  C   LIG    1       20.402 -29.063  12.904  0.00  0.00    +0.005 A 
BRANCH  25  28
ATOM     28  N   LIG    1       22.971 -31.390  14.156  0.00  0.00    -0.150 N 
ATOM     29  N   LIG    1       22.938 -32.564  13.458  0.00  0.00    -0.156 NA
ATOM     30  C   LIG    1       23.502 -33.419  14.312  0.00  0.00    +0.156 A 
ATOM     31  C   LIG    1       23.816 -32.759  15.500  0.00  0.00    +0.156 A 
ATOM     32  N   LIG    1       23.519 -31.461  15.394  0.00  0.00    -0.156 NA
ENDBRANCH  25  28
ENDBRANCH   1  24
TORSDOF 3
ENDMDL
MODEL 7
REMARK VINA RESULT:      -5.4      1.371      1.614
REMARK  Name = *****
REMARK                            x       y       z     vdW  Elec       q    Type
REMARK                         _______ _______ _______ _____ _____    ______ ____
ROOT
ATOM      1  C   LIG    1       25.076 -31.615   6.863  0.00  0.00    +0.249 C 
ATOM      2  N   LIG    1       24.684 -30.523   6.052  0.00  0.00    -0.293 N 
ATOM      3  C   LIG    1       25.263 -30.318   4.699  0.00  0.00    +0.075 C 
ATOM      4  C   LIG    1       25.823 -31.545   3.967  0.00  0.00    +0.028 C 
ATOM      5  C   LIG    1       26.344 -29.213   4.731  0.00  0.00    +0.041 C 
ATOM      6  C   LIG    1       25.769 -27.792   4.742  0.00  0.00    +0.111 C 
ATOM      7  N   LIG    1       25.270 -27.321   6.030  0.00  0.00    -0.283 N 
ATOM      8  C   LIG    1       24.827 -28.242   7.076  0.00  0.00    +0.128 C 
ATOM      9  C   LIG    1       23.936 -29.356   6.532  0.00  0.00    +0.127 C 
ATOM     10  O   LIG    1       25.611 -32.622   6.409  0.00  0.00    -0.270 OA
ENDROOT
BRANCH   7  11
ATOM     11  C   LIG    1       25.003 -26.003   6.198  0.00  0.00    +0.291 A 
ATOM     12  O   LIG    1       25.988 -25.228   6.758  0.00  0.00    -0.424 OA
ATOM     13  C   LIG    1       25.424 -23.995   6.873  0.00  0.00    +0.157 A 
ATOM     14  C   LIG    1       24.146 -24.065   6.348  0.00  0.00    +0.113 A 
ATOM     15  C   LIG    1       23.346 -22.914   6.342  0.00  0.00    +0.051 A 
ATOM     16  C   LIG    1       23.888 -21.747   6.896  0.00  0.00    +0.043 A 
ATOM     17  C   LIG    1       25.182 -21.717   7.431  0.00  0.00    +0.023 A 
ATOM     18 CL   LIG    1       22.934 -20.313   6.927  0.00  0.00    -0.084 Cl
ATOM     19  C   LIG    1       25.995 -22.857   7.426  0.00  0.00    +0.050 A 
ATOM     20  N   LIG    1       23.896 -25.342   5.919  0.00  0.00    -0.195 NA
ENDBRANCH   7  11
BRANCH   1  24
ATOM     21  C   LIG    1       27.800 -30.369  10.816  0.00  0.00    +0.044 C 
ATOM     22  C   LIG    1       26.477 -30.819  10.271  0.00  0.00    -0.050 A 
ATOM     23  C   LIG    1       26.295 -31.034   8.895  0.00  0.00    +0.018 A 
ATOM     24  C   LIG    1       25.082 -31.538   8.363  0.00  0.00    +0.064 A 
ATOM     25  C   LIG    1       24.072 -31.883   9.269  0.00  0.00    +0.098 A 
ATOM     26  C   LIG    1       24.201 -31.531  10.631  0.00  0.00    +0.030 A 
ATOM     27  C   LIG    1       25.393 -31.005  11.124  0.00  0.00    +0.005 A 
BRANCH  25  28
ATOM     28  N   LIG    1       22.955 -32.676   8.924  0.00  0.00    -0.150 N 
ATOM     29  N   LIG    1       22.086 -33.119   9.881  0.00  0.00    -0.156 NA
ATOM     30  C   LIG    1       21.207 -33.821   9.165  0.00  0.00    +0.156 A 
ATOM     31  C   LIG    1       21.587 -33.820   7.823  0.00  0.00    +0.156 A 
ATOM     32  N   LIG    1       22.673 -33.061   7.655  0.00  0.00    -0.156 NA
ENDBRANCH  25  28
ENDBRANCH   1  24
TORSDOF 3
ENDMDL
MODEL 8
REMARK VINA RESULT:      -5.2      4.961      7.540
REMARK  Name = *****
REMARK                            x       y       z     vdW  Elec       q    Type
REMARK                         _______ _______ _______ _____ _____    ______ ____
ROOT
ATOM      1  C   LIG    1       20.252 -30.880  12.961  0.00  0.00    +0.249 C 
ATOM      2  N   LIG    1       20.331 -31.555  11.719  0.00  0.00    -0.293 N 
ATOM      3  C   LIG    1       20.217 -33.034  11.635  0.00  0.00    +0.075 C 
ATOM      4  C   LIG    1       19.465 -33.759  12.759  0.00  0.00    +0.028 C 
ATOM      5  C   LIG    1       21.612 -33.679  11.463  0.00  0.00    +0.041 C 
ATOM      6  C   LIG    1       22.153 -33.600  10.032  0.00  0.00    +0.111 C 
ATOM      7  N   LIG    1       22.715 -32.312   9.637  0.00  0.00    -0.283 N 
ATOM      8  C   LIG    1       22.324 -31.062  10.285  0.00  0.00    +0.128 C 
ATOM      9  C   LIG    1       20.812 -30.951  10.472  0.00  0.00    +0.127 C 
ATOM     10  O   LIG    1       19.748 -31.383  13.960  0.00  0.00    -0.270 OA
ENDROOT
BRANCH   7  11
ATOM     11  C   LIG    1       23.456 -32.230   8.504  0.00  0.00    +0.291 A 
ATOM     12  O   LIG    1       23.734 -30.974   8.025  0.00  0.00    -0.424 OA
ATOM     13  C   LIG    1       24.407 -31.198   6.864  0.00  0.00    +0.157 A 
ATOM     14  C   LIG    1       24.542 -32.566   6.710  0.00  0.00    +0.113 A 
ATOM     15  C   LIG    1       25.211 -33.064   5.585  0.00  0.00    +0.051 A 
ATOM     16  C   LIG    1       25.695 -32.134   4.655  0.00  0.00    +0.043 A 
ATOM     17  C   LIG    1       25.528 -30.755   4.837  0.00  0.00    +0.023 A 
ATOM     18 CL   LIG    1       26.508 -32.702   3.246  0.00  0.00    -0.084 Cl
ATOM     19  C   LIG    1       24.877 -30.247   5.967  0.00  0.00    +0.050 A 
ATOM     20  N   LIG    1       23.938 -33.206   7.760  0.00  0.00    -0.195 NA
ENDBRANCH   7  11
BRANCH   1  24
ATOM     21  C   LIG    1       19.815 -25.940  12.924  0.00  0.00    +0.044 C 
ATOM     22  C   LIG    1       20.650 -27.143  13.252  0.00  0.00    -0.050 A 
ATOM     23  C   LIG    1       20.179 -28.442  12.999  0.00  0.00    +0.018 A 
ATOM     24  C   LIG    1       20.978 -29.592  13.220  0.00  0.00    +0.064 A 
ATOM     25  C   LIG    1       22.297 -29.391  13.646  0.00  0.00    +0.098 A 
ATOM     26  C   LIG    1       22.718 -28.100  14.038  0.00  0.00    +0.030 A 
ATOM     27  C   LIG    1       21.901 -26.989  13.841  0.00  0.00    +0.005 A 
BRANCH  25  28
ATOM     28  N   LIG    1       23.289 -30.395  13.605  0.00  0.00    -0.150 N 
ATOM     29  N   LIG    1       23.126 -31.571  14.280  0.00  0.00    -0.156 NA
ATOM     30  C   LIG    1       24.258 -32.219  14.002  0.00  0.00    +0.156 A 
ATOM     31  C   LIG    1       25.080 -31.412  13.215  0.00  0.00    +0.156 A 
ATOM     32  N   LIG    1       24.455 -30.268  12.924  0.00  0.00    -0.156 NA
ENDBRANCH  25  28
ENDBRANCH   1  24
TORSDOF 3
ENDMDL
