MODEL 1
REMARK VINA RESULT:      -1.8      0.000      0.000
REMARK  Name = *****
REMARK                            x       y       z     vdW  Elec       q    Type
REMARK                         _______ _______ _______ _____ _____    ______ ____
ROOT
ATOM      1  N   LIG    1       26.194 -19.317   4.550  0.00  0.00    -0.313 NA
ATOM      2  H   LIG    1       25.448 -19.054   3.904  0.00  0.00    +0.122 HD
ENDROOT
BRANCH   1   3
ATOM      3  C   LIG    1       26.211 -20.783   4.700  0.00  0.00    +0.081 C 
BRANCH   3   4
ATOM      4  C   LIG    1       26.065 -21.286   6.146  0.00  0.00    +0.015 C 
BRANCH   4   5
ATOM      5  C   LIG    1       25.144 -20.394   6.994  0.00  0.00    +0.001 C 
BRANCH   5   6
ATOM      6  C   LIG    1       23.723 -20.972   7.062  0.00  0.00    +0.002 C 
BRANCH   6   7
ATOM      7  C   LIG    1       23.220 -21.570   5.739  0.00  0.00    +0.028 C 
BRANCH   7   8
ATOM      8  C   LIG    1       22.564 -20.560   4.799  0.00  0.00    +0.160 C 
BRANCH   8   9
ATOM      9  O   LIG    1       22.211 -19.377   5.520  0.00  0.00    -0.380 OA
BRANCH   9  10
ATOM     10  C   LIG    1       22.089 -18.249   4.649  0.00  0.00    +0.160 C 
BRANCH  10  11
ATOM     11  C   LIG    1       23.340 -18.142   3.775  0.00  0.00    +0.028 C 
BRANCH  11  12
ATOM     12  C   LIG    1       23.956 -16.734   3.745  0.00  0.00    +0.007 C 
BRANCH  12  13
ATOM     13  C   LIG    1       23.056 -15.692   4.416  0.00  0.00    +0.035 C 
BRANCH  13  14
ATOM     14  C   LIG    1       23.522 -14.269   4.228  0.00  0.00    -0.047 A 
ATOM     15  C   LIG    1       23.381 -13.625   2.990  0.00  0.00    +0.003 A 
ATOM     16  C   LIG    1       23.857 -12.324   2.812  0.00  0.00    +0.000 A 
ATOM     17  C   LIG    1       24.474 -11.654   3.864  0.00  0.00    +0.000 A 
ATOM     18  C   LIG    1       24.614 -12.283   5.102  0.00  0.00    +0.000 A 
ATOM     19  C   LIG    1       24.139 -13.583   5.281  0.00  0.00    +0.003 A 
ENDBRANCH  13  14
ENDBRANCH  12  13
ENDBRANCH  11  12
ENDBRANCH  10  11
ENDBRANCH   9  10
ENDBRANCH   8   9
ENDBRANCH   7   8
ENDBRANCH   6   7
ENDBRANCH   5   6
ENDBRANCH   4   5
ENDBRANCH   3   4
ENDBRANCH   1   3
BRANCH   1  20
ATOM     20  C   LIG    1       27.480 -18.765   4.066  0.00  0.00    +0.117 C 
BRANCH  20  21
ATOM     21  C   LIG    1       27.956 -17.557   4.926  0.00  0.00    +0.158 C 
BRANCH  21  26
ATOM     22  C   LIG    1       28.148 -13.838   3.937  0.00  0.00    +0.019 A 
ATOM     23  C   LIG    1       27.221 -13.808   2.885  0.00  0.00    +0.122 A 
ATOM     24  C   LIG    1       26.519 -14.953   2.521  0.00  0.00    +0.046 A 
ATOM     25  C   LIG    1       26.733 -16.157   3.197  0.00  0.00    +0.010 A 
ATOM     26  C   LIG    1       27.670 -16.230   4.245  0.00  0.00    -0.017 A 
ATOM     27  C   LIG    1       28.355 -15.059   4.602  0.00  0.00    +0.015 A 
BRANCH  23  28
ATOM     28  O   LIG    1       27.018 -12.635   2.216  0.00  0.00    -0.506 OA
ATOM     29  H   LIG    1       26.074 -12.404   2.276  0.00  0.00    +0.292 HD
ENDBRANCH  23  28
BRANCH  22  30
ATOM     30  C   LIG    1       28.897 -12.611   4.370  0.00  0.00    +0.194 C 
BRANCH  30  31
ATOM     31  O   LIG    1       28.411 -12.179   5.638  0.00  0.00    -0.390 OA
ATOM     32  H   LIG    1       27.616 -12.707   5.817  0.00  0.00    +0.210 HD
ENDBRANCH  30  31
ENDBRANCH  22  30
ENDBRANCH  21  26
BRANCH  21  33
ATOM     33  O   LIG    1       29.358 -17.671   5.196  0.00  0.00    -0.386 OA
ATOM     34  H   LIG    1       29.423 -18.113   6.064  0.00  0.00    +0.210 HD
ENDBRANCH  21  33
ENDBRANCH  20  21
ENDBRANCH   1  20
TORSDOF 19
ENDMDL
MODEL 2
REMARK VINA RESULT:      -1.2      1.908      5.262
REMARK  Name = *****
REMARK                            x       y       z     vdW  Elec       q    Type
REMARK                         _______ _______ _______ _____ _____    ______ ____
ROOT
ATOM      1  N   LIG    1       22.681 -14.031   3.268  0.00  0.00    -0.313 NA
ATOM      2  H   LIG    1       21.865 -14.550   2.941  0.00  0.00    +0.122 HD
ENDROOT
BRANCH   1   3
ATOM      3  C   LIG    1       23.515 -14.915   4.102  0.00  0.00    +0.081 C 
BRANCH   3   4
ATOM      4  C   LIG    1       22.749 -16.037   4.821  0.00  0.00    +0.015 C 
BRANCH   4   5
ATOM      5  C   LIG    1       22.737 -17.351   4.025  0.00  0.00    +0.001 C 
BRANCH   5   6
ATOM      6  C   LIG    1       22.813 -18.567   4.961  0.00  0.00    +0.002 C 
BRANCH   6   7
ATOM      7  C   LIG    1       21.674 -19.580   4.775  0.00  0.00    +0.028 C 
BRANCH   7   8
ATOM      8  C   LIG    1       22.118 -21.042   4.802  0.00  0.00    +0.160 C 
BRANCH   8   9
ATOM      9  O   LIG    1       22.453 -21.427   6.138  0.00  0.00    -0.380 OA
BRANCH   9  10
ATOM     10  C   LIG    1       23.372 -20.507   6.735  0.00  0.00    +0.160 C 
BRANCH  10  11
ATOM     11  C   LIG    1       24.679 -21.233   7.062  0.00  0.00    +0.028 C 
BRANCH  11  12
ATOM     12  C   LIG    1       25.526 -21.570   5.825  0.00  0.00    +0.007 C 
BRANCH  12  13
ATOM     13  C   LIG    1       25.748 -20.352   4.923  0.00  0.00    +0.035 C 
BRANCH  13  14
ATOM     14  C   LIG    1       27.031 -19.609   5.201  0.00  0.00    -0.047 A 
ATOM     15  C   LIG    1       27.324 -18.409   4.536  0.00  0.00    +0.003 A 
ATOM     16  C   LIG    1       28.536 -17.752   4.765  0.00  0.00    +0.000 A 
ATOM     17  C   LIG    1       29.461 -18.283   5.659  0.00  0.00    +0.000 A 
ATOM     18  C   LIG    1       29.177 -19.472   6.330  0.00  0.00    +0.000 A 
ATOM     19  C   LIG    1       27.967 -20.129   6.102  0.00  0.00    +0.003 A 
ENDBRANCH  13  14
ENDBRANCH  12  13
ENDBRANCH  11  12
ENDBRANCH  10  11
ENDBRANCH   9  10
ENDBRANCH   8   9
ENDBRANCH   7   8
ENDBRANCH   6   7
ENDBRANCH   5   6
ENDBRANCH   4   5
ENDBRANCH   3   4
ENDBRANCH   1   3
BRANCH   1  20
ATOM     20  C   LIG    1       23.406 -13.469   2.106  0.00  0.00    +0.117 C 
BRANCH  20  21
ATOM     21  C   LIG    1       24.348 -12.299   2.516  0.00  0.00    +0.158 C 
BRANCH  21  26
ATOM     22  C   LIG    1       27.492 -13.038   4.618  0.00  0.00    +0.019 A 
ATOM     23  C   LIG    1       28.214 -13.836   3.720  0.00  0.00    +0.122 A 
ATOM     24  C   LIG    1       27.718 -14.105   2.448  0.00  0.00    +0.046 A 
ATOM     25  C   LIG    1       26.486 -13.586   2.046  0.00  0.00    +0.010 A 
ATOM     26  C   LIG    1       25.722 -12.798   2.927  0.00  0.00    -0.017 A 
ATOM     27  C   LIG    1       26.249 -12.530   4.200  0.00  0.00    +0.015 A 
BRANCH  23  28
ATOM     28  O   LIG    1       29.415 -14.353   4.114  0.00  0.00    -0.506 OA
ATOM     29  H   LIG    1       30.118 -13.943   3.580  0.00  0.00    +0.292 HD
ENDBRANCH  23  28
BRANCH  22  30
ATOM     30  C   LIG    1       28.015 -12.707   5.985  0.00  0.00    +0.194 C 
BRANCH  30  31
ATOM     31  O   LIG    1       29.064 -11.750   5.875  0.00  0.00    -0.390 OA
ATOM     32  H   LIG    1       29.818 -12.118   6.364  0.00  0.00    +0.210 HD
ENDBRANCH  30  31
ENDBRANCH  22  30
ENDBRANCH  21  26
BRANCH  21  33
ATOM     33  O   LIG    1       23.762 -11.552   3.588  0.00  0.00    -0.386 OA
ATOM     34  H   LIG    1       23.050 -11.024   3.180  0.00  0.00    +0.210 HD
ENDBRANCH  21  33
ENDBRANCH  20  21
ENDBRANCH   1  20
TORSDOF 19
ENDMDL
MODEL 3
REMARK VINA RESULT:      -1.0      1.890      5.883
REMARK  Name = *****
REMARK                            x       y       z     vdW  Elec       q    Type
REMARK                         _______ _______ _______ _____ _____    ______ ____
ROOT
ATOM      1  N   LIG    1       23.874 -12.042   4.470  0.00  0.00    -0.313 NA
ATOM      2  H   LIG    1       23.559 -11.080   4.601  0.00  0.00    +0.122 HD
ENDROOT
BRANCH   1   3
ATOM      3  C   LIG    1       23.345 -12.879   5.562  0.00  0.00    +0.081 C 
BRANCH   3   4
ATOM      4  C   LIG    1       23.773 -14.355   5.510  0.00  0.00    +0.015 C 
BRANCH   4   5
ATOM      5  C   LIG    1       22.655 -15.279   5.004  0.00  0.00    +0.001 C 
BRANCH   5   6
ATOM      6  C   LIG    1       23.211 -16.355   4.059  0.00  0.00    +0.002 C 
BRANCH   6   7
ATOM      7  C   LIG    1       23.308 -17.755   4.683  0.00  0.00    +0.028 C 
BRANCH   7   8
ATOM      8  C   LIG    1       23.581 -18.875   3.680  0.00  0.00    +0.160 C 
BRANCH   8   9
ATOM      9  O   LIG    1       22.487 -19.797   3.665  0.00  0.00    -0.380 OA
BRANCH   9  10
ATOM     10  C   LIG    1       22.215 -20.310   4.972  0.00  0.00    +0.160 C 
BRANCH  10  11
ATOM     11  C   LIG    1       23.067 -21.557   5.217  0.00  0.00    +0.028 C 
BRANCH  11  12
ATOM     12  C   LIG    1       23.855 -21.520   6.536  0.00  0.00    +0.007 C 
BRANCH  12  13
ATOM     13  C   LIG    1       24.648 -20.220   6.702  0.00  0.00    +0.035 C 
BRANCH  13  14
ATOM     14  C   LIG    1       26.133 -20.377   6.491  0.00  0.00    -0.047 A 
ATOM     15  C   LIG    1       26.828 -21.459   7.052  0.00  0.00    +0.003 A 
ATOM     16  C   LIG    1       28.211 -21.570   6.891  0.00  0.00    +0.000 A 
ATOM     17  C   LIG    1       28.910 -20.609   6.167  0.00  0.00    +0.000 A 
ATOM     18  C   LIG    1       28.229 -19.533   5.599  0.00  0.00    +0.000 A 
ATOM     19  C   LIG    1       26.847 -19.420   5.761  0.00  0.00    +0.003 A 
ENDBRANCH  13  14
ENDBRANCH  12  13
ENDBRANCH  11  12
ENDBRANCH  10  11
ENDBRANCH   9  10
ENDBRANCH   8   9
ENDBRANCH   7   8
ENDBRANCH   6   7
ENDBRANCH   5   6
ENDBRANCH   4   5
ENDBRANCH   3   4
ENDBRANCH   1   3
BRANCH   1  20
ATOM     20  C   LIG    1       23.470 -12.513   3.126  0.00  0.00    +0.117 C 
BRANCH  20  21
ATOM     21  C   LIG    1       24.696 -12.719   2.187  0.00  0.00    +0.158 C 
BRANCH  21  26
ATOM     22  C   LIG    1       27.833 -13.761   4.168  0.00  0.00    +0.019 A 
ATOM     23  C   LIG    1       27.687 -15.156   4.157  0.00  0.00    +0.122 A 
ATOM     24  C   LIG    1       26.619 -15.755   3.496  0.00  0.00    +0.046 A 
ATOM     25  C   LIG    1       25.669 -14.973   2.835  0.00  0.00    +0.010 A 
ATOM     26  C   LIG    1       25.772 -13.569   2.841  0.00  0.00    -0.017 A 
ATOM     27  C   LIG    1       26.864 -12.989   3.503  0.00  0.00    +0.015 A 
BRANCH  23  28
ATOM     28  O   LIG    1       28.608 -15.922   4.811  0.00  0.00    -0.506 OA
ATOM     29  H   LIG    1       29.130 -16.410   4.150  0.00  0.00    +0.292 HD
ENDBRANCH  23  28
BRANCH  22  30
ATOM     30  C   LIG    1       28.991 -13.089   4.847  0.00  0.00    +0.194 C 
BRANCH  30  31
ATOM     31  O   LIG    1       28.505 -12.099   5.749  0.00  0.00    -0.390 OA
ATOM     32  H   LIG    1       27.697 -11.740   5.346  0.00  0.00    +0.210 HD
ENDBRANCH  30  31
ENDBRANCH  22  30
ENDBRANCH  21  26
BRANCH  21  33
ATOM     33  O   LIG    1       25.243 -11.449   1.812  0.00  0.00    -0.386 OA
ATOM     34  H   LIG    1       24.488 -10.830   1.808  0.00  0.00    +0.210 HD
ENDBRANCH  21  33
ENDBRANCH  20  21
ENDBRANCH   1  20
TORSDOF 19
ENDMDL
MODEL 4
REMARK VINA RESULT:      -1.0      1.697      4.115
REMARK  Name = *****
REMARK                            x       y       z     vdW  Elec       q    Type
REMARK                         _______ _______ _______ _____ _____    ______ ____
ROOT
ATOM      1  N   LIG    1       22.614 -18.438   4.122  0.00  0.00    -0.313 NA
ATOM      2  H   LIG    1       23.133 -19.023   3.466  0.00  0.00    +0.122 HD
ENDROOT
BRANCH   1   3
ATOM      3  C   LIG    1       22.282 -19.230   5.320  0.00  0.00    +0.081 C 
BRANCH   3   4
ATOM      4  C   LIG    1       22.324 -20.754   5.119  0.00  0.00    +0.015 C 
BRANCH   4   5
ATOM      5  C   LIG    1       23.757 -21.302   5.038  0.00  0.00    +0.001 C 
BRANCH   5   6
ATOM      6  C   LIG    1       24.515 -21.065   6.353  0.00  0.00    +0.002 C 
BRANCH   6   7
ATOM      7  C   LIG    1       26.018 -21.373   6.279  0.00  0.00    +0.028 C 
BRANCH   7   8
ATOM      8  C   LIG    1       26.919 -20.237   6.762  0.00  0.00    +0.160 C 
BRANCH   8   9
ATOM      9  O   LIG    1       27.380 -19.469   5.648  0.00  0.00    -0.380 OA
BRANCH   9  10
ATOM     10  C   LIG    1       26.772 -19.899   4.427  0.00  0.00    +0.160 C 
BRANCH  10  11
ATOM     11  C   LIG    1       26.349 -18.675   3.611  0.00  0.00    +0.028 C 
BRANCH  11  12
ATOM     12  C   LIG    1       27.019 -17.368   4.062  0.00  0.00    +0.007 C 
BRANCH  12  13
ATOM     13  C   LIG    1       26.430 -16.140   3.360  0.00  0.00    +0.035 C 
BRANCH  13  14
ATOM     14  C   LIG    1       27.099 -14.841   3.733  0.00  0.00    -0.047 A 
ATOM     15  C   LIG    1       27.688 -14.029   2.752  0.00  0.00    +0.003 A 
ATOM     16  C   LIG    1       28.346 -12.851   3.113  0.00  0.00    +0.000 A 
ATOM     17  C   LIG    1       28.419 -12.471   4.450  0.00  0.00    +0.000 A 
ATOM     18  C   LIG    1       27.830 -13.267   5.432  0.00  0.00    +0.000 A 
ATOM     19  C   LIG    1       27.174 -14.445   5.074  0.00  0.00    +0.003 A 
ENDBRANCH  13  14
ENDBRANCH  12  13
ENDBRANCH  11  12
ENDBRANCH  10  11
ENDBRANCH   9  10
ENDBRANCH   8   9
ENDBRANCH   7   8
ENDBRANCH   6   7
ENDBRANCH   5   6
ENDBRANCH   4   5
ENDBRANCH   3   4
ENDBRANCH   1   3
BRANCH   1  20
ATOM     20  C   LIG    1       23.403 -17.223   4.426  0.00  0.00    +0.117 C 
BRANCH  20  21
ATOM     21  C   LIG    1       22.500 -15.961   4.565  0.00  0.00    +0.158 C 
BRANCH  21  26
ATOM     22  C   LIG    1       24.274 -12.558   4.223  0.00  0.00    +0.019 A 
ATOM     23  C   LIG    1       24.473 -12.515   2.835  0.00  0.00    +0.122 A 
ATOM     24  C   LIG    1       24.014 -13.544   2.018  0.00  0.00    +0.046 A 
ATOM     25  C   LIG    1       23.351 -14.642   2.570  0.00  0.00    +0.010 A 
ATOM     26  C   LIG    1       23.151 -14.730   3.960  0.00  0.00    -0.017 A 
ATOM     27  C   LIG    1       23.611 -13.675   4.762  0.00  0.00    +0.015 A 
BRANCH  23  28
ATOM     28  O   LIG    1       25.129 -11.447   2.294  0.00  0.00    -0.506 OA
ATOM     29  H   LIG    1       25.816 -11.157   2.921  0.00  0.00    +0.292 HD
ENDBRANCH  23  28
BRANCH  22  30
ATOM     30  C   LIG    1       24.732 -11.449   5.125  0.00  0.00    +0.194 C 
BRANCH  30  31
ATOM     31  O   LIG    1       23.973 -11.472   6.331  0.00  0.00    -0.390 OA
ATOM     32  H   LIG    1       23.070 -11.212   6.086  0.00  0.00    +0.210 HD
ENDBRANCH  30  31
ENDBRANCH  22  30
ENDBRANCH  21  26
BRANCH  21  33
ATOM     33  O   LIG    1       22.201 -15.724   5.946  0.00  0.00    -0.386 OA
ATOM     34  H   LIG    1       21.427 -15.130   5.948  0.00  0.00    +0.210 HD
ENDBRANCH  21  33
ENDBRANCH  20  21
ENDBRANCH   1  20
TORSDOF 19
ENDMDL
MODEL 5
REMARK VINA RESULT:      -0.8      1.827      5.294
REMARK  Name = *****
REMARK                            x       y       z     vdW  Elec       q    Type
REMARK                         _______ _______ _______ _____ _____    ______ ____
ROOT
ATOM      1  N   LIG    1       24.364 -21.572   7.062  0.00  0.00    -0.313 NA
ATOM      2  H   LIG    1       24.590 -22.564   6.983  0.00  0.00    +0.122 HD
ENDROOT
BRANCH   1   3
ATOM      3  C   LIG    1       25.338 -20.789   6.280  0.00  0.00    +0.081 C 
BRANCH   3   4
ATOM      4  C   LIG    1       26.778 -20.826   6.819  0.00  0.00    +0.015 C 
BRANCH   4   5
ATOM      5  C   LIG    1       27.827 -20.917   5.699  0.00  0.00    +0.001 C 
BRANCH   5   6
ATOM      6  C   LIG    1       29.158 -20.288   6.136  0.00  0.00    +0.002 C 
BRANCH   6   7
ATOM      7  C   LIG    1       29.452 -18.924   5.495  0.00  0.00    +0.028 C 
BRANCH   7   8
ATOM      8  C   LIG    1       29.457 -17.753   6.476  0.00  0.00    +0.160 C 
BRANCH   8   9
ATOM      9  O   LIG    1       28.721 -16.654   5.931  0.00  0.00    -0.380 OA
BRANCH   9  10
ATOM     10  C   LIG    1       28.335 -16.901   4.576  0.00  0.00    +0.160 C 
BRANCH  10  11
ATOM     11  C   LIG    1       27.683 -15.645   3.995  0.00  0.00    +0.028 C 
BRANCH  11  12
ATOM     12  C   LIG    1       28.634 -14.442   3.898  0.00  0.00    +0.007 C 
BRANCH  12  13
ATOM     13  C   LIG    1       27.914 -13.110   4.133  0.00  0.00    +0.035 C 
BRANCH  13  14
ATOM     14  C   LIG    1       26.449 -13.135   3.774  0.00  0.00    -0.047 A 
ATOM     15  C   LIG    1       25.471 -13.335   4.760  0.00  0.00    +0.003 A 
ATOM     16  C   LIG    1       24.120 -13.402   4.411  0.00  0.00    +0.000 A 
ATOM     17  C   LIG    1       23.733 -13.268   3.081  0.00  0.00    +0.000 A 
ATOM     18  C   LIG    1       24.697 -13.062   2.094  0.00  0.00    +0.000 A 
ATOM     19  C   LIG    1       26.047 -12.996   2.440  0.00  0.00    +0.003 A 
ENDBRANCH  13  14
ENDBRANCH  12  13
ENDBRANCH  11  12
ENDBRANCH  10  11
ENDBRANCH   9  10
ENDBRANCH   8   9
ENDBRANCH   7   8
ENDBRANCH   6   7
ENDBRANCH   5   6
ENDBRANCH   4   5
ENDBRANCH   3   4
ENDBRANCH   1   3
BRANCH   1  20
ATOM     20  C   LIG    1       22.963 -21.352   6.637  0.00  0.00    +0.117 C 
BRANCH  20  21
ATOM     21  C   LIG    1       22.822 -21.318   5.087  0.00  0.00    +0.158 C 
BRANCH  21  26
ATOM     22  C   LIG    1       23.368 -17.617   4.163  0.00  0.00    +0.019 A 
ATOM     23  C   LIG    1       24.599 -17.702   3.497  0.00  0.00    +0.122 A 
ATOM     24  C   LIG    1       25.228 -18.930   3.316  0.00  0.00    +0.046 A 
ATOM     25  C   LIG    1       24.642 -20.102   3.801  0.00  0.00    +0.010 A 
ATOM     26  C   LIG    1       23.417 -20.053   4.492  0.00  0.00    -0.017 A 
ATOM     27  C   LIG    1       22.797 -18.805   4.651  0.00  0.00    +0.015 A 
BRANCH  23  28
ATOM     28  O   LIG    1       25.178 -16.557   3.030  0.00  0.00    -0.506 OA
ATOM     29  H   LIG    1       25.867 -16.279   3.661  0.00  0.00    +0.292 HD
ENDBRANCH  23  28
BRANCH  22  30
ATOM     30  C   LIG    1       22.653 -16.310   4.346  0.00  0.00    +0.194 C 
BRANCH  30  31
ATOM     31  O   LIG    1       22.005 -16.295   5.615  0.00  0.00    -0.390 OA
ATOM     32  H   LIG    1       22.220 -15.438   6.018  0.00  0.00    +0.210 HD
ENDBRANCH  30  31
ENDBRANCH  22  30
ENDBRANCH  21  26
BRANCH  21  33
ATOM     33  O   LIG    1       21.441 -21.423   4.719  0.00  0.00    -0.386 OA
ATOM     34  H   LIG    1       21.297 -20.734   4.043  0.00  0.00    +0.210 HD
ENDBRANCH  21  33
ENDBRANCH  20  21
ENDBRANCH   1  20
TORSDOF 19
ENDMDL
MODEL 6
REMARK VINA RESULT:      -0.5      2.153      4.669
REMARK  Name = *****
REMARK                            x       y       z     vdW  Elec       q    Type
REMARK                         _______ _______ _______ _____ _____    ______ ____
ROOT
ATOM      1  N   LIG    1       27.997 -16.111   4.948  0.00  0.00    -0.313 NA
ATOM      2  H   LIG    1       27.345 -15.490   5.429  0.00  0.00    +0.122 HD
ENDROOT
BRANCH   1   3
ATOM      3  C   LIG    1       27.321 -17.384   4.644  0.00  0.00    +0.081 C 
BRANCH   3   4
ATOM      4  C   LIG    1       28.200 -18.637   4.803  0.00  0.00    +0.015 C 
BRANCH   4   5
ATOM      5  C   LIG    1       29.474 -18.367   5.619  0.00  0.00    +0.001 C 
BRANCH   5   6
ATOM      6  C   LIG    1       29.363 -18.965   7.030  0.00  0.00    +0.002 C 
BRANCH   6   7
ATOM      7  C   LIG    1       29.264 -20.497   7.060  0.00  0.00    +0.028 C 
BRANCH   7   8
ATOM      8  C   LIG    1       28.150 -21.075   6.187  0.00  0.00    +0.160 C 
BRANCH   8   9
ATOM      9  O   LIG    1       26.988 -21.329   6.980  0.00  0.00    -0.380 OA
BRANCH   9  10
ATOM     10  C   LIG    1       25.924 -20.430   6.655  0.00  0.00    +0.160 C 
BRANCH  10  11
ATOM     11  C   LIG    1       24.653 -21.231   6.363  0.00  0.00    +0.028 C 
BRANCH  11  12
ATOM     12  C   LIG    1       24.459 -21.565   4.876  0.00  0.00    +0.007 C 
BRANCH  12  13
ATOM     13  C   LIG    1       24.799 -20.381   3.965  0.00  0.00    +0.035 C 
BRANCH  13  14
ATOM     14  C   LIG    1       23.930 -19.169   4.187  0.00  0.00    -0.047 A 
ATOM     15  C   LIG    1       22.622 -19.302   4.677  0.00  0.00    +0.003 A 
ATOM     16  C   LIG    1       21.809 -18.177   4.836  0.00  0.00    +0.000 A 
ATOM     17  C   LIG    1       22.292 -16.913   4.511  0.00  0.00    +0.000 A 
ATOM     18  C   LIG    1       23.593 -16.768   4.029  0.00  0.00    +0.000 A 
ATOM     19  C   LIG    1       24.406 -17.891   3.869  0.00  0.00    +0.003 A 
ENDBRANCH  13  14
ENDBRANCH  12  13
ENDBRANCH  11  12
ENDBRANCH  10  11
ENDBRANCH   9  10
ENDBRANCH   8   9
ENDBRANCH   7   8
ENDBRANCH   6   7
ENDBRANCH   5   6
ENDBRANCH   4   5
ENDBRANCH   3   4
ENDBRANCH   1   3
BRANCH   1  20
ATOM     20  C   LIG    1       28.527 -15.430   3.745  0.00  0.00    +0.117 C 
BRANCH  20  21
ATOM     21  C   LIG    1       28.420 -13.880   3.857  0.00  0.00    +0.158 C 
BRANCH  21  26
ATOM     22  C   LIG    1       24.742 -12.800   4.249  0.00  0.00    +0.019 A 
ATOM     23  C   LIG    1       24.472 -12.347   2.950  0.00  0.00    +0.122 A 
ATOM     24  C   LIG    1       25.442 -12.418   1.954  0.00  0.00    +0.046 A 
ATOM     25  C   LIG    1       26.706 -12.940   2.237  0.00  0.00    +0.010 A 
ATOM     26  C   LIG    1       27.021 -13.386   3.534  0.00  0.00    -0.017 A 
ATOM     27  C   LIG    1       26.022 -13.315   4.517  0.00  0.00    +0.015 A 
BRANCH  23  28
ATOM     28  O   LIG    1       23.240 -11.827   2.674  0.00  0.00    -0.506 OA
ATOM     29  H   LIG    1       22.831 -11.540   3.510  0.00  0.00    +0.292 HD
ENDBRANCH  23  28
BRANCH  22  30
ATOM     30  C   LIG    1       23.706 -12.763   5.334  0.00  0.00    +0.194 C 
BRANCH  30  31
ATOM     31  O   LIG    1       23.130 -11.461   5.400  0.00  0.00    -0.390 OA
ATOM     32  H   LIG    1       23.865 -10.836   5.289  0.00  0.00    +0.210 HD
ENDBRANCH  30  31
ENDBRANCH  22  30
ENDBRANCH  21  26
BRANCH  21  33
ATOM     33  O   LIG    1       29.368 -13.260   2.982  0.00  0.00    -0.386 OA
ATOM     34  H   LIG    1       28.859 -12.990   2.194  0.00  0.00    +0.210 HD
ENDBRANCH  21  33
ENDBRANCH  20  21
ENDBRANCH   1  20
TORSDOF 19
ENDMDL
MODEL 7
REMARK VINA RESULT:      -0.1      2.032      6.711
REMARK  Name = *****
REMARK                            x       y       z     vdW  Elec       q    Type
REMARK                         _______ _______ _______ _____ _____    ______ ____
ROOT
ATOM      1  N   LIG    1       26.494 -15.019   4.406  0.00  0.00    -0.313 NA
ATOM      2  H   LIG    1       27.242 -15.120   5.095  0.00  0.00    +0.122 HD
ENDROOT
BRANCH   1   3
ATOM      3  C   LIG    1       27.070 -14.567   3.127  0.00  0.00    +0.081 C 
BRANCH   3   4
ATOM      4  C   LIG    1       27.300 -13.050   3.022  0.00  0.00    +0.015 C 
BRANCH   4   5
ATOM      5  C   LIG    1       26.266 -12.356   2.122  0.00  0.00    +0.001 C 
BRANCH   5   6
ATOM      6  C   LIG    1       24.932 -13.118   2.121  0.00  0.00    +0.002 C 
BRANCH   6   7
ATOM      7  C   LIG    1       23.821 -12.448   2.942  0.00  0.00    +0.028 C 
BRANCH   7   8
ATOM      8  C   LIG    1       24.118 -12.342   4.438  0.00  0.00    +0.160 C 
BRANCH   8   9
ATOM      9  O   LIG    1       24.130 -13.645   5.028  0.00  0.00    -0.380 OA
BRANCH   9  10
ATOM     10  C   LIG    1       22.821 -14.218   5.063  0.00  0.00    +0.160 C 
BRANCH  10  11
ATOM     11  C   LIG    1       22.840 -15.574   4.354  0.00  0.00    +0.028 C 
BRANCH  11  12
ATOM     12  C   LIG    1       22.242 -16.718   5.188  0.00  0.00    +0.007 C 
BRANCH  12  13
ATOM     13  C   LIG    1       21.667 -17.837   4.314  0.00  0.00    +0.035 C 
BRANCH  13  14
ATOM     14  C   LIG    1       22.578 -19.030   4.170  0.00  0.00    -0.047 A 
ATOM     15  C   LIG    1       23.559 -19.069   3.167  0.00  0.00    +0.003 A 
ATOM     16  C   LIG    1       24.366 -20.198   3.011  0.00  0.00    +0.000 A 
ATOM     17  C   LIG    1       24.207 -21.294   3.854  0.00  0.00    +0.000 A 
ATOM     18  C   LIG    1       23.240 -21.264   4.859  0.00  0.00    +0.000 A 
ATOM     19  C   LIG    1       22.431 -20.137   5.014  0.00  0.00    +0.003 A 
ENDBRANCH  13  14
ENDBRANCH  12  13
ENDBRANCH  11  12
ENDBRANCH  10  11
ENDBRANCH   9  10
ENDBRANCH   8   9
ENDBRANCH   7   8
ENDBRANCH   6   7
ENDBRANCH   5   6
ENDBRANCH   4   5
ENDBRANCH   3   4
ENDBRANCH   1   3
BRANCH   1  20
ATOM     20  C   LIG    1       25.754 -16.296   4.295  0.00  0.00    +0.117 C 
BRANCH  20  21
ATOM     21  C   LIG    1       26.579 -17.385   3.547  0.00  0.00    +0.158 C 
BRANCH  21  26
ATOM     22  C   LIG    1       27.401 -20.230   6.013  0.00  0.00    +0.019 A 
ATOM     23  C   LIG    1       28.775 -20.017   6.195  0.00  0.00    +0.122 A 
ATOM     24  C   LIG    1       29.421 -18.957   5.566  0.00  0.00    +0.046 A 
ATOM     25  C   LIG    1       28.710 -18.089   4.735  0.00  0.00    +0.010 A 
ATOM     26  C   LIG    1       27.334 -18.283   4.511  0.00  0.00    -0.017 A 
ATOM     27  C   LIG    1       26.702 -19.351   5.167  0.00  0.00    +0.015 A 
BRANCH  23  28
ATOM     28  O   LIG    1       29.475 -20.870   6.999  0.00  0.00    -0.506 OA
ATOM     29  H   LIG    1       30.043 -20.343   7.589  0.00  0.00    +0.292 HD
ENDBRANCH  23  28
BRANCH  22  30
ATOM     30  C   LIG    1       26.672 -21.346   6.702  0.00  0.00    +0.194 C 
BRANCH  30  31
ATOM     31  O   LIG    1       25.305 -20.986   6.879  0.00  0.00    -0.390 OA
ATOM     32  H   LIG    1       25.131 -21.052   7.832  0.00  0.00    +0.210 HD
ENDBRANCH  30  31
ENDBRANCH  22  30
ENDBRANCH  21  26
BRANCH  21  33
ATOM     33  O   LIG    1       27.498 -16.765   2.641  0.00  0.00    -0.386 OA
ATOM     34  H   LIG    1       27.704 -17.444   1.971  0.00  0.00    +0.210 HD
ENDBRANCH  21  33
ENDBRANCH  20  21
ENDBRANCH   1  20
TORSDOF 19
ENDMDL
MODEL 8
REMARK VINA RESULT:       0.5      1.832      6.214
REMARK  Name = *****
REMARK                            x       y       z     vdW  Elec       q    Type
REMARK                         _______ _______ _______ _____ _____    ______ ____
ROOT
ATOM      1  N   LIG    1       21.965 -17.381   5.287  0.00  0.00    -0.313 NA
ATOM      2  H   LIG    1       22.819 -17.922   5.424  0.00  0.00    +0.122 HD
ENDROOT
BRANCH   1   3
ATOM      3  C   LIG    1       22.289 -15.944   5.329  0.00  0.00    +0.081 C 
BRANCH   3   4
ATOM      4  C   LIG    1       23.198 -15.452   4.190  0.00  0.00    +0.015 C 
BRANCH   4   5
ATOM      5  C   LIG    1       24.683 -15.754   4.445  0.00  0.00    +0.001 C 
BRANCH   5   6
ATOM      6  C   LIG    1       25.465 -15.835   3.125  0.00  0.00    +0.002 C 
BRANCH   6   7
ATOM      7  C   LIG    1       26.633 -16.831   3.145  0.00  0.00    +0.028 C 
BRANCH   7   8
ATOM      8  C   LIG    1       27.722 -16.508   4.168  0.00  0.00    +0.160 C 
BRANCH   8   9
ATOM      9  O   LIG    1       27.735 -15.105   4.443  0.00  0.00    -0.380 OA
BRANCH   9  10
ATOM     10  C   LIG    1       28.195 -14.353   3.316  0.00  0.00    +0.160 C 
BRANCH  10  11
ATOM     11  C   LIG    1       28.943 -13.111   3.804  0.00  0.00    +0.028 C 
BRANCH  11  12
ATOM     12  C   LIG    1       28.260 -12.399   4.983  0.00  0.00    +0.007 C 
BRANCH  12  13
ATOM     13  C   LIG    1       26.910 -13.031   5.339  0.00  0.00    +0.035 C 
BRANCH  13  14
ATOM     14  C   LIG    1       25.743 -12.448   4.583  0.00  0.00    -0.047 A 
ATOM     15  C   LIG    1       24.598 -12.001   5.261  0.00  0.00    +0.003 A 
ATOM     16  C   LIG    1       23.503 -11.506   4.549  0.00  0.00    +0.000 A 
ATOM     17  C   LIG    1       23.540 -11.448   3.159  0.00  0.00    +0.000 A 
ATOM     18  C   LIG    1       24.675 -11.883   2.475  0.00  0.00    +0.000 A 
ATOM     19  C   LIG    1       25.770 -12.379   3.184  0.00  0.00    +0.003 A 
ENDBRANCH  13  14
ENDBRANCH  12  13
ENDBRANCH  11  12
ENDBRANCH  10  11
ENDBRANCH   9  10
ENDBRANCH   8   9
ENDBRANCH   7   8
ENDBRANCH   6   7
ENDBRANCH   5   6
ENDBRANCH   4   5
ENDBRANCH   3   4
ENDBRANCH   1   3
BRANCH   1  20
ATOM     20  C   LIG    1       21.317 -17.796   4.022  0.00  0.00    +0.117 C 
BRANCH  20  21
ATOM     21  C   LIG    1       21.899 -19.136   3.481  0.00  0.00    +0.158 C 
BRANCH  21  26
ATOM     22  C   LIG    1       25.316 -20.152   4.943  0.00  0.00    +0.019 A 
ATOM     23  C   LIG    1       24.919 -20.652   6.191  0.00  0.00    +0.122 A 
ATOM     24  C   LIG    1       23.573 -20.695   6.546  0.00  0.00    +0.046 A 
ATOM     25  C   LIG    1       22.595 -20.234   5.662  0.00  0.00    +0.010 A 
ATOM     26  C   LIG    1       22.957 -19.707   4.408  0.00  0.00    -0.017 A 
ATOM     27  C   LIG    1       24.319 -19.686   4.069  0.00  0.00    +0.015 A 
BRANCH  23  28
ATOM     28  O   LIG    1       25.874 -21.093   7.061  0.00  0.00    -0.506 OA
ATOM     29  H   LIG    1       26.583 -21.523   6.549  0.00  0.00    +0.292 HD
ENDBRANCH  23  28
BRANCH  22  30
ATOM     30  C   LIG    1       26.757 -20.121   4.522  0.00  0.00    +0.194 C 
BRANCH  30  31
ATOM     31  O   LIG    1       27.542 -19.528   5.552  0.00  0.00    -0.390 OA
ATOM     32  H   LIG    1       28.014 -20.257   5.985  0.00  0.00    +0.210 HD
ENDBRANCH  30  31
ENDBRANCH  22  30
ENDBRANCH  21  26
BRANCH  21  33
ATOM     33  O   LIG    1       22.453 -18.936   2.176  0.00  0.00    -0.386 OA
ATOM     34  H   LIG    1       22.584 -17.973   2.092  0.00  0.00    +0.210 HD
ENDBRANCH  21  33
ENDBRANCH  20  21
ENDBRANCH   1  20
TORSDOF 19
ENDMDL
MODEL 9
REMARK VINA RESULT:       0.5      2.081      5.114
REMARK  Name = *****
REMARK                            x       y       z     vdW  Elec       q    Type
REMARK                         _______ _______ _______ _____ _____    ______ ____
ROOT
ATOM      1  N   LIG    1       22.113 -14.803   4.881  0.00  0.00    -0.313 NA
ATOM      2  H   LIG    1       21.139 -14.571   4.678  0.00  0.00    +0.122 HD
ENDROOT
BRANCH   1   3
ATOM      3  C   LIG    1       22.478 -16.036   4.163  0.00  0.00    +0.081 C 
BRANCH   3   4
ATOM      4  C   LIG    1       22.557 -17.296   5.042  0.00  0.00    +0.015 C 
BRANCH   4   5
ATOM      5  C   LIG    1       22.127 -18.568   4.294  0.00  0.00    +0.001 C 
BRANCH   5   6
ATOM      6  C   LIG    1       23.328 -19.247   3.620  0.00  0.00    +0.002 C 
BRANCH   6   7
ATOM      7  C   LIG    1       23.467 -20.743   3.936  0.00  0.00    +0.028 C 
BRANCH   7   8
ATOM      8  C   LIG    1       23.666 -21.060   5.417  0.00  0.00    +0.160 C 
BRANCH   8   9
ATOM      9  O   LIG    1       24.983 -21.571   5.637  0.00  0.00    -0.380 OA
BRANCH   9  10
ATOM     10  C   LIG    1       25.397 -21.391   6.994  0.00  0.00    +0.160 C 
BRANCH  10  11
ATOM     11  C   LIG    1       26.467 -20.299   7.059  0.00  0.00    +0.028 C 
BRANCH  11  12
ATOM     12  C   LIG    1       27.905 -20.835   6.994  0.00  0.00    +0.007 C 
BRANCH  12  13
ATOM     13  C   LIG    1       28.564 -20.567   5.638  0.00  0.00    +0.035 C 
BRANCH  13  14
ATOM     14  C   LIG    1       28.118 -19.284   4.983  0.00  0.00    -0.047 A 
ATOM     15  C   LIG    1       28.905 -18.125   5.062  0.00  0.00    +0.003 A 
ATOM     16  C   LIG    1       28.462 -16.929   4.492  0.00  0.00    +0.000 A 
ATOM     17  C   LIG    1       27.235 -16.878   3.838  0.00  0.00    +0.000 A 
ATOM     18  C   LIG    1       26.447 -18.025   3.748  0.00  0.00    +0.000 A 
ATOM     19  C   LIG    1       26.888 -19.221   4.317  0.00  0.00    +0.003 A 
ENDBRANCH  13  14
ENDBRANCH  12  13
ENDBRANCH  11  12
ENDBRANCH  10  11
ENDBRANCH   9  10
ENDBRANCH   8   9
ENDBRANCH   7   8
ENDBRANCH   6   7
ENDBRANCH   5   6
ENDBRANCH   4   5
ENDBRANCH   3   4
ENDBRANCH   1   3
BRANCH   1  20
ATOM     20  C   LIG    1       22.975 -13.650   4.537  0.00  0.00    +0.117 C 
BRANCH  20  21
ATOM     21  C   LIG    1       24.211 -14.078   3.692  0.00  0.00    +0.158 C 
BRANCH  21  26
ATOM     22  C   LIG    1       27.924 -13.178   4.197  0.00  0.00    +0.019 A 
ATOM     23  C   LIG    1       27.899 -12.745   5.531  0.00  0.00    +0.122 A 
ATOM     24  C   LIG    1       26.719 -12.773   6.268  0.00  0.00    +0.046 A 
ATOM     25  C   LIG    1       25.535 -13.230   5.686  0.00  0.00    +0.010 A 
ATOM     26  C   LIG    1       25.516 -13.654   4.345  0.00  0.00    -0.017 A 
ATOM     27  C   LIG    1       26.721 -13.628   3.626  0.00  0.00    +0.015 A 
BRANCH  23  28
ATOM     28  O   LIG    1       29.054 -12.287   6.098  0.00  0.00    -0.506 OA
ATOM     29  H   LIG    1       29.656 -12.001   5.388  0.00  0.00    +0.292 HD
ENDBRANCH  23  28
BRANCH  22  30
ATOM     30  C   LIG    1       29.188 -13.186   3.388  0.00  0.00    +0.194 C 
BRANCH  30  31
ATOM     31  O   LIG    1       29.415 -11.889   2.844  0.00  0.00    -0.390 OA
ATOM     32  H   LIG    1       30.373 -11.818   2.707  0.00  0.00    +0.210 HD
ENDBRANCH  30  31
ENDBRANCH  22  30
ENDBRANCH  21  26
BRANCH  21  33
ATOM     33  O   LIG    1       24.122 -13.517   2.377  0.00  0.00    -0.386 OA
ATOM     34  H   LIG    1       24.957 -13.757   1.933  0.00  0.00    +0.210 HD
ENDBRANCH  21  33
ENDBRANCH  20  21
ENDBRANCH   1  20
TORSDOF 19
ENDMDL
