MODEL 1
REMARK VINA RESULT:       2.3      0.000      0.000
REMARK  Name = *****
REMARK                            x       y       z     vdW  Elec       q    Type
REMARK                         _______ _______ _______ _____ _____    ______ ____
ROOT
ATOM      1  C   LIG    1       26.758 -13.528   3.238  0.00  0.00    +0.132 C 
ATOM      2  C   LIG    1       26.438 -14.676   4.252  0.00  0.00    +0.014 C 
ATOM      3  C   LIG    1       24.873 -14.663   4.298  0.00  0.00    +0.002 C 
ATOM      4  C   LIG    1       24.133 -15.625   3.323  0.00  0.00    -0.003 C 
ATOM      5  C   LIG    1       24.784 -17.029   3.234  0.00  0.00    -0.000 C 
ATOM      6  C   LIG    1       26.240 -16.856   2.808  0.00  0.00    +0.005 C 
ATOM      7  C   LIG    1       24.560 -17.828   4.547  0.00  0.00    +0.019 C 
ATOM      8  C   LIG    1       23.060 -17.948   4.752  0.00  0.00    -0.064 C 
ATOM      9  C   LIG    1       22.380 -19.107   4.713  0.00  0.00    +0.026 C 
ATOM     10  C   LIG    1       23.075 -20.383   4.366  0.00  0.00    +0.080 C 
ATOM     11  C   LIG    1       24.495 -20.270   3.846  0.00  0.00    +0.059 C 
ATOM     12  N   LIG    1       22.554 -21.572   4.418  0.00  0.00    -0.092 NA
ATOM     13  C   LIG    1       22.358 -16.626   4.909  0.00  0.00    +0.031 C 
ATOM     14  C   LIG    1       25.246 -19.202   4.622  0.00  0.00    +0.014 C 
ATOM     15  C   LIG    1       22.629 -15.753   3.680  0.00  0.00    +0.008 C 
ATOM     16  C   LIG    1       24.466 -13.198   4.001  0.00  0.00    +0.008 C 
ATOM     17  C   LIG    1       27.044 -16.046   3.813  0.00  0.00    +0.011 C 
ATOM     18  C   LIG    1       25.707 -12.451   3.514  0.00  0.00    +0.049 C 
ENDROOT
BRANCH   1  20
ATOM     19  C   LIG    1       29.222 -12.611   3.392  0.00  0.00    +0.007 C 
ATOM     20  C   LIG    1       28.109 -13.025   3.323  0.00  0.00    -0.070 C 
ENDBRANCH   1  20
BRANCH  12  21
ATOM     21  O   LIG    1       21.238 -21.552   4.893  0.00  0.00    -0.409 OA
ATOM     22  H   LIG    1       20.809 -20.922   4.285  0.00  0.00    +0.328 HD
ENDBRANCH  12  21
BRANCH   2  23
ATOM     23  C   LIG    1       27.023 -14.443   5.701  0.00  0.00    +0.007 C 
ATOM     24  C   LIG    1       26.486 -13.317   6.572  0.00  0.00    +0.004 C 
ENDBRANCH   2  23
BRANCH   1  25
ATOM     25  O   LIG    1       26.535 -13.978   1.900  0.00  0.00    -0.376 OA
ATOM     26  H   LIG    1       26.250 -14.905   1.955  0.00  0.00    +0.211 HD
ENDBRANCH   1  25
TORSDOF 4
ENDMDL
MODEL 2
REMARK VINA RESULT:       5.2      2.682      7.082
REMARK  Name = *****
REMARK                            x       y       z     vdW  Elec       q    Type
REMARK                         _______ _______ _______ _____ _____    ______ ____
ROOT
ATOM      1  C   LIG    1       23.213 -20.609   4.023  0.00  0.00    +0.132 C 
ATOM      2  C   LIG    1       23.600 -19.275   4.744  0.00  0.00    +0.014 C 
ATOM      3  C   LIG    1       25.152 -19.220   4.546  0.00  0.00    +0.002 C 
ATOM      4  C   LIG    1       25.676 -18.437   3.306  0.00  0.00    -0.003 C 
ATOM      5  C   LIG    1       24.927 -17.102   3.062  0.00  0.00    -0.000 C 
ATOM      6  C   LIG    1       23.439 -17.409   2.909  0.00  0.00    +0.005 C 
ATOM      7  C   LIG    1       25.286 -16.057   4.153  0.00  0.00    +0.019 C 
ATOM      8  C   LIG    1       26.789 -15.843   4.095  0.00  0.00    -0.064 C 
ATOM      9  C   LIG    1       27.376 -14.689   3.736  0.00  0.00    +0.026 C 
ATOM     10  C   LIG    1       26.555 -13.531   3.273  0.00  0.00    +0.080 C 
ATOM     11  C   LIG    1       25.084 -13.795   3.012  0.00  0.00    +0.059 C 
ATOM     12  N   LIG    1       26.996 -12.335   3.022  0.00  0.00    -0.092 NA
ATOM     13  C   LIG    1       27.593 -17.083   4.382  0.00  0.00    +0.031 C 
ATOM     14  C   LIG    1       24.528 -14.721   4.079  0.00  0.00    +0.014 C 
ATOM     15  C   LIG    1       27.203 -18.186   3.393  0.00  0.00    +0.008 C 
ATOM     16  C   LIG    1       25.609 -20.699   4.465  0.00  0.00    +0.008 C 
ATOM     17  C   LIG    1       22.846 -18.040   4.159  0.00  0.00    +0.011 C 
ATOM     18  C   LIG    1       24.362 -21.572   4.325  0.00  0.00    +0.049 C 
ENDROOT
BRANCH   1  20
ATOM     19  C   LIG    1       20.864 -21.572   4.727  0.00  0.00    +0.007 C 
ATOM     20  C   LIG    1       21.925 -21.137   4.409  0.00  0.00    -0.070 C 
ENDBRANCH   1  20
BRANCH  12  21
ATOM     21  O   LIG    1       28.367 -12.213   3.281  0.00  0.00    -0.409 OA
ATOM     22  H   LIG    1       28.376 -11.946   4.219  0.00  0.00    +0.328 HD
ENDBRANCH  12  21
BRANCH   2  23
ATOM     23  C   LIG    1       23.251 -19.247   6.284  0.00  0.00    +0.007 C 
ATOM     24  C   LIG    1       23.106 -20.546   7.062  0.00  0.00    +0.004 C 
ENDBRANCH   2  23
BRANCH   1  25
ATOM     25  O   LIG    1       23.207 -20.418   2.606  0.00  0.00    -0.376 OA
ATOM     26  H   LIG    1       22.377 -19.964   2.383  0.00  0.00    +0.211 HD
ENDBRANCH   1  25
TORSDOF 4
ENDMDL
