MODEL 1
REMARK VINA RESULT:      -5.7      0.000      0.000
REMARK  Name = *****
REMARK                            x       y       z     vdW  Elec       q    Type
REMARK                         _______ _______ _______ _____ _____    ______ ____
ROOT
ATOM      1  O   LIG    1       26.650 -20.460   5.794  0.00  0.00    -0.489 OA
ENDROOT
BRANCH   1   4
ATOM      2  C   LIG    1       25.217 -19.409   3.555  0.00  0.00    +0.048 C 
ATOM      3  C   LIG    1       24.557 -20.127   4.698  0.00  0.00    -0.009 A 
ATOM      4  C   LIG    1       25.278 -20.614   5.810  0.00  0.00    +0.123 A 
ATOM      5  C   LIG    1       24.565 -21.228   6.848  0.00  0.00    +0.046 A 
ATOM      6  C   LIG    1       23.182 -21.415   6.775  0.00  0.00    +0.004 A 
ATOM      7  C   LIG    1       22.483 -20.988   5.648  0.00  0.00    +0.001 A 
ATOM      8  C   LIG    1       23.167 -20.345   4.625  0.00  0.00    +0.007 A 
ENDBRANCH   1   4
BRANCH   1   9
ATOM      9  C   LIG    1       27.261 -20.159   7.061  0.00  0.00    +0.262 C 
BRANCH   9  10
ATOM     10  C   LIG    1       28.796 -20.172   6.984  0.00  0.00    +0.177 C 
BRANCH  10  11
ATOM     11  O   LIG    1       29.281 -21.368   6.353  0.00  0.00    -0.386 OA
ATOM     12  H   LIG    1       28.834 -21.432   5.488  0.00  0.00    +0.210 HD
ENDBRANCH  10  11
BRANCH  10  13
ATOM     13  C   LIG    1       29.380 -18.968   6.245  0.00  0.00    +0.190 C 
BRANCH  13  14
ATOM     14  O   LIG    1       28.638 -18.750   5.041  0.00  0.00    -0.392 OA
ATOM     15  H   LIG    1       28.249 -19.615   4.804  0.00  0.00    +0.209 HD
ENDBRANCH  13  14
ENDBRANCH  10  13
ENDBRANCH   9  10
ENDBRANCH   1   9
TORSDOF 6
ENDMDL
MODEL 2
REMARK VINA RESULT:      -4.8      1.028      2.473
REMARK  Name = *****
REMARK                            x       y       z     vdW  Elec       q    Type
REMARK                         _______ _______ _______ _____ _____    ______ ____
ROOT
ATOM      1  O   LIG    1       26.635 -20.245   5.080  0.00  0.00    -0.489 OA
ENDROOT
BRANCH   1   4
ATOM      2  C   LIG    1       25.044 -21.555   7.061  0.00  0.00    +0.048 C 
ATOM      3  C   LIG    1       24.463 -20.778   5.914  0.00  0.00    -0.009 A 
ATOM      4  C   LIG    1       25.264 -20.161   4.928  0.00  0.00    +0.123 A 
ATOM      5  C   LIG    1       24.627 -19.500   3.871  0.00  0.00    +0.046 A 
ATOM      6  C   LIG    1       23.235 -19.391   3.808  0.00  0.00    +0.004 A 
ATOM      7  C   LIG    1       22.451 -19.948   4.815  0.00  0.00    +0.001 A 
ATOM      8  C   LIG    1       23.063 -20.639   5.853  0.00  0.00    +0.007 A 
ENDBRANCH   1   4
BRANCH   1   9
ATOM      9  C   LIG    1       27.333 -18.991   5.166  0.00  0.00    +0.262 C 
BRANCH   9  10
ATOM     10  C   LIG    1       28.826 -19.176   5.478  0.00  0.00    +0.177 C 
BRANCH  10  11
ATOM     11  O   LIG    1       29.475 -17.916   5.714  0.00  0.00    -0.386 OA
ATOM     12  H   LIG    1       30.388 -18.002   5.381  0.00  0.00    +0.210 HD
ENDBRANCH  10  11
BRANCH  10  13
ATOM     13  C   LIG    1       29.090 -20.084   6.678  0.00  0.00    +0.190 C 
BRANCH  13  14
ATOM     14  O   LIG    1       28.688 -21.419   6.356  0.00  0.00    -0.392 OA
ATOM     15  H   LIG    1       29.496 -21.966   6.420  0.00  0.00    +0.209 HD
ENDBRANCH  13  14
ENDBRANCH  10  13
ENDBRANCH   9  10
ENDBRANCH   1   9
TORSDOF 6
ENDMDL
MODEL 3
REMARK VINA RESULT:      -4.8      3.207      4.282
REMARK  Name = *****
REMARK                            x       y       z     vdW  Elec       q    Type
REMARK                         _______ _______ _______ _____ _____    ______ ____
ROOT
ATOM      1  O   LIG    1       24.720 -17.914   3.276  0.00  0.00    -0.489 OA
ENDROOT
BRANCH   1   4
ATOM      2  C   LIG    1       22.086 -18.162   4.359  0.00  0.00    +0.048 C 
ATOM      3  C   LIG    1       23.172 -19.178   4.579  0.00  0.00    -0.009 A 
ATOM      4  C   LIG    1       24.476 -19.024   4.060  0.00  0.00    +0.123 A 
ATOM      5  C   LIG    1       25.431 -20.004   4.361  0.00  0.00    +0.046 A 
ATOM      6  C   LIG    1       25.104 -21.141   5.104  0.00  0.00    +0.004 A 
ATOM      7  C   LIG    1       23.801 -21.319   5.562  0.00  0.00    +0.001 A 
ATOM      8  C   LIG    1       22.849 -20.342   5.305  0.00  0.00    +0.007 A 
ENDBRANCH   1   4
BRANCH   1   9
ATOM      9  C   LIG    1       26.020 -17.317   3.425  0.00  0.00    +0.262 C 
BRANCH   9  10
ATOM     10  C   LIG    1       25.993 -15.798   3.192  0.00  0.00    +0.177 C 
BRANCH  10  11
ATOM     11  O   LIG    1       24.882 -15.183   3.865  0.00  0.00    -0.386 OA
ATOM     12  H   LIG    1       25.090 -14.233   3.943  0.00  0.00    +0.210 HD
ENDBRANCH  10  11
BRANCH  10  13
ATOM     13  C   LIG    1       27.274 -15.091   3.633  0.00  0.00    +0.190 C 
BRANCH  13  14
ATOM     14  O   LIG    1       27.533 -13.994   2.752  0.00  0.00    -0.392 OA
ATOM     15  H   LIG    1       28.435 -13.683   2.967  0.00  0.00    +0.209 HD
ENDBRANCH  13  14
ENDBRANCH  10  13
ENDBRANCH   9  10
ENDBRANCH   1   9
TORSDOF 6
ENDMDL
MODEL 4
REMARK VINA RESULT:      -4.7      4.301      6.316
REMARK  Name = *****
REMARK                            x       y       z     vdW  Elec       q    Type
REMARK                         _______ _______ _______ _____ _____    ______ ____
ROOT
ATOM      1  O   LIG    1       25.401 -16.669   3.085  0.00  0.00    -0.489 OA
ENDROOT
BRANCH   1   4
ATOM      2  C   LIG    1       23.552 -14.782   4.177  0.00  0.00    +0.048 C 
ATOM      3  C   LIG    1       25.037 -14.556   4.131  0.00  0.00    -0.009 A 
ATOM      4  C   LIG    1       25.933 -15.487   3.562  0.00  0.00    +0.123 A 
ATOM      5  C   LIG    1       27.295 -15.162   3.524  0.00  0.00    +0.046 A 
ATOM      6  C   LIG    1       27.781 -13.978   4.086  0.00  0.00    +0.004 A 
ATOM      7  C   LIG    1       26.901 -13.091   4.701  0.00  0.00    +0.001 A 
ATOM      8  C   LIG    1       25.543 -13.378   4.716  0.00  0.00    +0.007 A 
ENDBRANCH   1   4
BRANCH   1   9
ATOM      9  C   LIG    1       26.143 -17.861   3.399  0.00  0.00    +0.262 C 
BRANCH   9  10
ATOM     10  C   LIG    1       25.267 -19.122   3.346  0.00  0.00    +0.177 C 
BRANCH  10  11
ATOM     11  O   LIG    1       25.854 -20.202   4.091  0.00  0.00    -0.386 OA
ATOM     12  H   LIG    1       26.520 -20.615   3.511  0.00  0.00    +0.210 HD
ENDBRANCH  10  11
BRANCH  10  13
ATOM     13  C   LIG    1       23.846 -18.899   3.863  0.00  0.00    +0.190 C 
BRANCH  13  14
ATOM     14  O   LIG    1       23.356 -20.116   4.434  0.00  0.00    -0.392 OA
ATOM     15  H   LIG    1       24.134 -20.700   4.531  0.00  0.00    +0.209 HD
ENDBRANCH  13  14
ENDBRANCH  10  13
ENDBRANCH   9  10
ENDBRANCH   1   9
TORSDOF 6
ENDMDL
MODEL 5
REMARK VINA RESULT:      -4.5      2.162      3.481
REMARK  Name = *****
REMARK                            x       y       z     vdW  Elec       q    Type
REMARK                         _______ _______ _______ _____ _____    ______ ____
ROOT
ATOM      1  O   LIG    1       25.890 -19.224   3.651  0.00  0.00    -0.489 OA
ENDROOT
BRANCH   1   4
ATOM      2  C   LIG    1       26.795 -20.480   6.055  0.00  0.00    +0.048 C 
ATOM      3  C   LIG    1       25.344 -20.323   5.697  0.00  0.00    -0.009 A 
ATOM      4  C   LIG    1       24.916 -19.726   4.492  0.00  0.00    +0.123 A 
ATOM      5  C   LIG    1       23.541 -19.670   4.228  0.00  0.00    +0.046 A 
ATOM      6  C   LIG    1       22.600 -20.134   5.150  0.00  0.00    +0.004 A 
ATOM      7  C   LIG    1       23.024 -20.667   6.365  0.00  0.00    +0.001 A 
ATOM      8  C   LIG    1       24.383 -20.764   6.629  0.00  0.00    +0.007 A 
ENDBRANCH   1   4
BRANCH   1   9
ATOM      9  C   LIG    1       25.709 -17.862   3.224  0.00  0.00    +0.262 C 
BRANCH   9  10
ATOM     10  C   LIG    1       26.672 -16.898   3.933  0.00  0.00    +0.177 C 
BRANCH  10  11
ATOM     11  O   LIG    1       28.005 -17.432   3.988  0.00  0.00    -0.386 OA
ATOM     12  H   LIG    1       28.067 -18.110   3.289  0.00  0.00    +0.210 HD
ENDBRANCH  10  11
BRANCH  10  13
ATOM     13  C   LIG    1       26.735 -15.515   3.286  0.00  0.00    +0.190 C 
BRANCH  13  14
ATOM     14  O   LIG    1       27.850 -14.795   3.822  0.00  0.00    -0.392 OA
ATOM     15  H   LIG    1       27.505 -13.915   4.076  0.00  0.00    +0.209 HD
ENDBRANCH  13  14
ENDBRANCH  10  13
ENDBRANCH   9  10
ENDBRANCH   1   9
TORSDOF 6
ENDMDL
MODEL 6
REMARK VINA RESULT:      -4.5      3.456      4.690
REMARK  Name = *****
REMARK                            x       y       z     vdW  Elec       q    Type
REMARK                         _______ _______ _______ _____ _____    ______ ____
ROOT
ATOM      1  O   LIG    1       24.642 -17.447   3.306  0.00  0.00    -0.489 OA
ENDROOT
BRANCH   1   4
ATOM      2  C   LIG    1       22.042 -17.779   4.448  0.00  0.00    +0.048 C 
ATOM      3  C   LIG    1       23.084 -18.861   4.433  0.00  0.00    -0.009 A 
ATOM      4  C   LIG    1       24.373 -18.670   3.890  0.00  0.00    +0.123 A 
ATOM      5  C   LIG    1       25.291 -19.726   3.966  0.00  0.00    +0.046 A 
ATOM      6  C   LIG    1       24.937 -20.965   4.508  0.00  0.00    +0.004 A 
ATOM      7  C   LIG    1       23.645 -21.169   4.987  0.00  0.00    +0.001 A 
ATOM      8  C   LIG    1       22.733 -20.123   4.953  0.00  0.00    +0.007 A 
ENDBRANCH   1   4
BRANCH   1   9
ATOM      9  C   LIG    1       26.018 -17.030   3.333  0.00  0.00    +0.262 C 
BRANCH   9  10
ATOM     10  C   LIG    1       26.161 -15.510   3.501  0.00  0.00    +0.177 C 
BRANCH  10  11
ATOM     11  O   LIG    1       26.654 -14.892   2.301  0.00  0.00    -0.386 OA
ATOM     12  H   LIG    1       25.927 -14.917   1.651  0.00  0.00    +0.210 HD
ENDBRANCH  10  11
BRANCH  10  13
ATOM     13  C   LIG    1       24.860 -14.815   3.899  0.00  0.00    +0.190 C 
BRANCH  13  14
ATOM     14  O   LIG    1       24.849 -13.490   3.358  0.00  0.00    -0.392 OA
ATOM     15  H   LIG    1       24.607 -13.585   2.416  0.00  0.00    +0.209 HD
ENDBRANCH  13  14
ENDBRANCH  10  13
ENDBRANCH   9  10
ENDBRANCH   1   9
TORSDOF 6
ENDMDL
MODEL 7
REMARK VINA RESULT:      -4.3      3.005      4.330
REMARK  Name = *****
REMARK                            x       y       z     vdW  Elec       q    Type
REMARK                         _______ _______ _______ _____ _____    ______ ____
ROOT
ATOM      1  O   LIG    1       26.243 -17.826   3.410  0.00  0.00    -0.489 OA
ENDROOT
BRANCH   1   4
ATOM      2  C   LIG    1       27.439 -19.735   5.170  0.00  0.00    +0.048 C 
ATOM      3  C   LIG    1       25.983 -19.748   4.800  0.00  0.00    -0.009 A 
ATOM      4  C   LIG    1       25.415 -18.814   3.907  0.00  0.00    +0.123 A 
ATOM      5  C   LIG    1       24.057 -18.939   3.588  0.00  0.00    +0.046 A 
ATOM      6  C   LIG    1       23.255 -19.920   4.177  0.00  0.00    +0.004 A 
ATOM      7  C   LIG    1       23.805 -20.801   5.105  0.00  0.00    +0.001 A 
ATOM      8  C   LIG    1       25.158 -20.716   5.406  0.00  0.00    +0.007 A 
ENDBRANCH   1   4
BRANCH   1   9
ATOM      9  C   LIG    1       25.636 -16.535   3.225  0.00  0.00    +0.262 C 
BRANCH   9  10
ATOM     10  C   LIG    1       26.576 -15.388   3.627  0.00  0.00    +0.177 C 
BRANCH  10  11
ATOM     11  O   LIG    1       27.873 -15.878   4.006  0.00  0.00    -0.386 OA
ATOM     12  H   LIG    1       27.735 -16.751   4.420  0.00  0.00    +0.210 HD
ENDBRANCH  10  11
BRANCH  10  13
ATOM     13  C   LIG    1       26.760 -14.339   2.532  0.00  0.00    +0.190 C 
BRANCH  13  14
ATOM     14  O   LIG    1       27.846 -13.477   2.884  0.00  0.00    -0.392 OA
ATOM     15  H   LIG    1       27.512 -12.900   3.599  0.00  0.00    +0.209 HD
ENDBRANCH  13  14
ENDBRANCH  10  13
ENDBRANCH   9  10
ENDBRANCH   1   9
TORSDOF 6
ENDMDL
MODEL 8
REMARK VINA RESULT:      -4.3      3.417      4.614
REMARK  Name = *****
REMARK                            x       y       z     vdW  Elec       q    Type
REMARK                         _______ _______ _______ _____ _____    ______ ____
ROOT
ATOM      1  O   LIG    1       25.551 -17.529   3.288  0.00  0.00    -0.489 OA
ENDROOT
BRANCH   1   4
ATOM      2  C   LIG    1       26.382 -19.933   4.592  0.00  0.00    +0.048 C 
ATOM      3  C   LIG    1       24.949 -19.493   4.502  0.00  0.00    -0.009 A 
ATOM      4  C   LIG    1       24.554 -18.317   3.829  0.00  0.00    +0.123 A 
ATOM      5  C   LIG    1       23.187 -18.017   3.759  0.00  0.00    +0.046 A 
ATOM      6  C   LIG    1       22.229 -18.819   4.385  0.00  0.00    +0.004 A 
ATOM      7  C   LIG    1       22.629 -19.945   5.101  0.00  0.00    +0.001 A 
ATOM      8  C   LIG    1       23.975 -20.278   5.151  0.00  0.00    +0.007 A 
ENDBRANCH   1   4
BRANCH   1   9
ATOM      9  C   LIG    1       25.375 -16.109   3.432  0.00  0.00    +0.262 C 
BRANCH   9  10
ATOM     10  C   LIG    1       26.676 -15.333   3.176  0.00  0.00    +0.177 C 
BRANCH  10  11
ATOM     11  O   LIG    1       26.591 -14.543   1.978  0.00  0.00    -0.386 OA
ATOM     12  H   LIG    1       27.236 -14.914   1.348  0.00  0.00    +0.210 HD
ENDBRANCH  10  11
BRANCH  10  13
ATOM     13  C   LIG    1       27.075 -14.414   4.330  0.00  0.00    +0.190 C 
BRANCH  13  14
ATOM     14  O   LIG    1       25.901 -13.802   4.872  0.00  0.00    -0.392 OA
ATOM     15  H   LIG    1       25.345 -13.560   4.106  0.00  0.00    +0.209 HD
ENDBRANCH  13  14
ENDBRANCH  10  13
ENDBRANCH   9  10
ENDBRANCH   1   9
TORSDOF 6
ENDMDL
MODEL 9
REMARK VINA RESULT:      -3.8      4.224      5.885
REMARK  Name = *****
REMARK                            x       y       z     vdW  Elec       q    Type
REMARK                         _______ _______ _______ _____ _____    ______ ____
ROOT
ATOM      1  O   LIG    1       26.169 -16.600   3.284  0.00  0.00    -0.489 OA
ENDROOT
BRANCH   1   4
ATOM      2  C   LIG    1       27.801 -14.254   3.376  0.00  0.00    +0.048 C 
ATOM      3  C   LIG    1       26.329 -14.252   3.677  0.00  0.00    -0.009 A 
ATOM      4  C   LIG    1       25.544 -15.425   3.655  0.00  0.00    +0.123 A 
ATOM      5  C   LIG    1       24.190 -15.326   3.998  0.00  0.00    +0.046 A 
ATOM      6  C   LIG    1       23.599 -14.096   4.299  0.00  0.00    +0.004 A 
ATOM      7  C   LIG    1       24.363 -12.932   4.260  0.00  0.00    +0.001 A 
ATOM      8  C   LIG    1       25.716 -13.015   3.958  0.00  0.00    +0.007 A 
ENDBRANCH   1   4
BRANCH   1   9
ATOM      9  C   LIG    1       25.337 -17.772   3.263  0.00  0.00    +0.262 C 
BRANCH   9  10
ATOM     10  C   LIG    1       26.109 -19.041   3.654  0.00  0.00    +0.177 C 
BRANCH  10  11
ATOM     11  O   LIG    1       27.229 -18.735   4.501  0.00  0.00    -0.386 OA
ATOM     12  H   LIG    1       27.081 -17.837   4.853  0.00  0.00    +0.210 HD
ENDBRANCH  10  11
BRANCH  10  13
ATOM     13  C   LIG    1       25.247 -20.088   4.358  0.00  0.00    +0.190 C 
BRANCH  13  14
ATOM     14  O   LIG    1       26.089 -20.953   5.126  0.00  0.00    -0.392 OA
ATOM     15  H   LIG    1       25.980 -20.677   6.058  0.00  0.00    +0.209 HD
ENDBRANCH  13  14
ENDBRANCH  10  13
ENDBRANCH   9  10
ENDBRANCH   1   9
TORSDOF 6
ENDMDL
