MODEL 1
REMARK VINA RESULT:      -3.2      0.000      0.000
REMARK  Name = *****
REMARK                            x       y       z     vdW  Elec       q    Type
REMARK                         _______ _______ _______ _____ _____    ______ ____
ROOT
ATOM      1  C   LIG    1       26.966 -13.456   5.183  0.00  0.00    +0.040 C 
ATOM      2  C   LIG    1       27.703 -14.188   4.068  0.00  0.00    +0.137 C 
ENDROOT
BRANCH   2   3
ATOM      3  O   LIG    1       28.475 -13.252   3.319  0.00  0.00    -0.390 OA
ATOM      4  H   LIG    1       28.812 -12.580   3.937  0.00  0.00    +0.210 HD
ENDBRANCH   2   3
BRANCH   2   5
ATOM      5  C   LIG    1       26.749 -14.945   3.136  0.00  0.00    +0.186 C 
BRANCH   5   6
ATOM      6  O   LIG    1       26.603 -14.290   1.884  0.00  0.00    -0.393 OA
ATOM      7  H   LIG    1       25.923 -14.772   1.382  0.00  0.00    +0.209 HD
ENDBRANCH   5   6
ENDBRANCH   2   5
TORSDOF 3
ENDMDL
MODEL 2
REMARK VINA RESULT:      -3.1      2.332      3.022
REMARK  Name = *****
REMARK                            x       y       z     vdW  Elec       q    Type
REMARK                         _______ _______ _______ _____ _____    ______ ____
ROOT
ATOM      1  C   LIG    1       24.172 -14.281   3.946  0.00  0.00    +0.040 C 
ATOM      2  C   LIG    1       24.753 -13.081   3.208  0.00  0.00    +0.137 C 
ENDROOT
BRANCH   2   3
ATOM      3  O   LIG    1       24.008 -12.856   2.014  0.00  0.00    -0.390 OA
ATOM      4  H   LIG    1       24.410 -12.101   1.548  0.00  0.00    +0.210 HD
ENDBRANCH   2   3
BRANCH   2   5
ATOM      5  C   LIG    1       26.238 -13.266   2.871  0.00  0.00    +0.186 C 
BRANCH   5   6
ATOM      6  O   LIG    1       26.434 -14.262   1.877  0.00  0.00    -0.393 OA
ATOM      7  H   LIG    1       26.627 -15.097   2.337  0.00  0.00    +0.209 HD
ENDBRANCH   5   6
ENDBRANCH   2   5
TORSDOF 3
ENDMDL
MODEL 3
REMARK VINA RESULT:      -3.1      1.600      2.364
REMARK  Name = *****
REMARK                            x       y       z     vdW  Elec       q    Type
REMARK                         _______ _______ _______ _____ _____    ______ ____
ROOT
ATOM      1  C   LIG    1       28.594 -13.183   3.634  0.00  0.00    +0.040 C 
ATOM      2  C   LIG    1       27.413 -14.124   3.427  0.00  0.00    +0.137 C 
ENDROOT
BRANCH   2   3
ATOM      3  O   LIG    1       27.014 -14.086   2.058  0.00  0.00    -0.390 OA
ATOM      4  H   LIG    1       27.309 -13.237   1.685  0.00  0.00    +0.210 HD
ENDBRANCH   2   3
BRANCH   2   5
ATOM      5  C   LIG    1       26.223 -13.774   4.329  0.00  0.00    +0.186 C 
BRANCH   5   6
ATOM      6  O   LIG    1       26.643 -13.367   5.623  0.00  0.00    -0.393 OA
ATOM      7  H   LIG    1       25.870 -13.432   6.212  0.00  0.00    +0.209 HD
ENDBRANCH   5   6
ENDBRANCH   2   5
TORSDOF 3
ENDMDL
MODEL 4
REMARK VINA RESULT:      -3.0      1.725      1.807
REMARK  Name = *****
REMARK                            x       y       z     vdW  Elec       q    Type
REMARK                         _______ _______ _______ _____ _____    ______ ____
ROOT
ATOM      1  C   LIG    1       25.040 -13.705   4.031  0.00  0.00    +0.040 C 
ATOM      2  C   LIG    1       26.499 -13.985   4.369  0.00  0.00    +0.137 C 
ENDROOT
BRANCH   2   3
ATOM      3  O   LIG    1       26.873 -13.224   5.516  0.00  0.00    -0.390 OA
ATOM      4  H   LIG    1       26.936 -12.291   5.247  0.00  0.00    +0.210 HD
ENDBRANCH   2   3
BRANCH   2   5
ATOM      5  C   LIG    1       27.440 -13.667   3.201  0.00  0.00    +0.186 C 
BRANCH   5   6
ATOM      6  O   LIG    1       26.924 -14.135   1.963  0.00  0.00    -0.393 OA
ATOM      7  H   LIG    1       26.792 -15.095   2.048  0.00  0.00    +0.209 HD
ENDBRANCH   5   6
ENDBRANCH   2   5
TORSDOF 3
ENDMDL
MODEL 5
REMARK VINA RESULT:      -3.0      6.750      7.496
REMARK  Name = *****
REMARK                            x       y       z     vdW  Elec       q    Type
REMARK                         _______ _______ _______ _____ _____    ______ ____
ROOT
ATOM      1  C   LIG    1       22.843 -20.091   5.294  0.00  0.00    +0.040 C 
ATOM      2  C   LIG    1       24.045 -20.373   4.400  0.00  0.00    +0.137 C 
ENDROOT
BRANCH   2   3
ATOM      3  O   LIG    1       23.814 -21.572   3.664  0.00  0.00    -0.390 OA
ATOM      4  H   LIG    1       22.883 -21.826   3.790  0.00  0.00    +0.210 HD
ENDBRANCH   2   3
BRANCH   2   5
ATOM      5  C   LIG    1       25.349 -20.493   5.198  0.00  0.00    +0.186 C 
BRANCH   5   6
ATOM      6  O   LIG    1       26.476 -20.088   4.433  0.00  0.00    -0.393 OA
ATOM      7  H   LIG    1       26.640 -20.782   3.770  0.00  0.00    +0.209 HD
ENDBRANCH   5   6
ENDBRANCH   2   5
TORSDOF 3
ENDMDL
MODEL 6
REMARK VINA RESULT:      -3.0      1.498      2.528
REMARK  Name = *****
REMARK                            x       y       z     vdW  Elec       q    Type
REMARK                         _______ _______ _______ _____ _____    ______ ____
ROOT
ATOM      1  C   LIG    1       25.287 -14.391   3.692  0.00  0.00    +0.040 C 
ATOM      2  C   LIG    1       26.480 -13.596   3.177  0.00  0.00    +0.137 C 
ENDROOT
BRANCH   2   3
ATOM      3  O   LIG    1       26.907 -14.139   1.930  0.00  0.00    -0.390 OA
ATOM      4  H   LIG    1       27.157 -15.068   2.079  0.00  0.00    +0.210 HD
ENDBRANCH   2   3
BRANCH   2   5
ATOM      5  C   LIG    1       27.649 -13.588   4.171  0.00  0.00    +0.186 C 
BRANCH   5   6
ATOM      6  O   LIG    1       27.247 -13.137   5.456  0.00  0.00    -0.393 OA
ATOM      7  H   LIG    1       26.381 -13.540   5.647  0.00  0.00    +0.209 HD
ENDBRANCH   5   6
ENDBRANCH   2   5
TORSDOF 3
ENDMDL
MODEL 7
REMARK VINA RESULT:      -3.0      2.069      2.419
REMARK  Name = *****
REMARK                            x       y       z     vdW  Elec       q    Type
REMARK                         _______ _______ _______ _____ _____    ______ ____
ROOT
ATOM      1  C   LIG    1       26.535 -13.787   4.228  0.00  0.00    +0.040 C 
ATOM      2  C   LIG    1       25.944 -13.971   2.836  0.00  0.00    +0.137 C 
ENDROOT
BRANCH   2   3
ATOM      3  O   LIG    1       26.998 -14.175   1.898  0.00  0.00    -0.390 OA
ATOM      4  H   LIG    1       27.832 -14.242   2.396  0.00  0.00    +0.210 HD
ENDBRANCH   2   3
BRANCH   2   5
ATOM      5  C   LIG    1       25.085 -12.776   2.405  0.00  0.00    +0.186 C 
BRANCH   5   6
ATOM      6  O   LIG    1       23.696 -13.062   2.496  0.00  0.00    -0.393 OA
ATOM      7  H   LIG    1       23.464 -13.073   3.441  0.00  0.00    +0.209 HD
ENDBRANCH   5   6
ENDBRANCH   2   5
TORSDOF 3
ENDMDL
MODEL 8
REMARK VINA RESULT:      -2.9      1.828      2.383
REMARK  Name = *****
REMARK                            x       y       z     vdW  Elec       q    Type
REMARK                         _______ _______ _______ _____ _____    ______ ____
ROOT
ATOM      1  C   LIG    1       25.021 -12.919   2.221  0.00  0.00    +0.040 C 
ATOM      2  C   LIG    1       26.191 -13.671   2.843  0.00  0.00    +0.137 C 
ENDROOT
BRANCH   2   3
ATOM      3  O   LIG    1       27.071 -14.113   1.812  0.00  0.00    -0.390 OA
ATOM      4  H   LIG    1       27.914 -13.638   1.915  0.00  0.00    +0.210 HD
ENDBRANCH   2   3
BRANCH   2   5
ATOM      5  C   LIG    1       25.732 -14.868   3.687  0.00  0.00    +0.186 C 
BRANCH   5   6
ATOM      6  O   LIG    1       26.348 -16.077   3.267  0.00  0.00    -0.393 OA
ATOM      7  H   LIG    1       25.637 -16.718   3.088  0.00  0.00    +0.209 HD
ENDBRANCH   5   6
ENDBRANCH   2   5
TORSDOF 3
ENDMDL
MODEL 9
REMARK VINA RESULT:      -2.9      6.661      7.246
REMARK  Name = *****
REMARK                            x       y       z     vdW  Elec       q    Type
REMARK                         _______ _______ _______ _____ _____    ______ ____
ROOT
ATOM      1  C   LIG    1       24.455 -19.302   3.674  0.00  0.00    +0.040 C 
ATOM      2  C   LIG    1       25.156 -20.169   4.713  0.00  0.00    +0.137 C 
ENDROOT
BRANCH   2   3
ATOM      3  O   LIG    1       26.540 -20.271   4.385  0.00  0.00    -0.390 OA
ATOM      4  H   LIG    1       26.758 -19.542   3.778  0.00  0.00    +0.210 HD
ENDBRANCH   2   3
BRANCH   2   5
ATOM      5  C   LIG    1       24.539 -21.569   4.817  0.00  0.00    +0.186 C 
BRANCH   5   6
ATOM      6  O   LIG    1       23.169 -21.572   4.443  0.00  0.00    -0.393 OA
ATOM      7  H   LIG    1       22.684 -21.061   5.115  0.00  0.00    +0.209 HD
ENDBRANCH   5   6
ENDBRANCH   2   5
TORSDOF 3
ENDMDL
