MODEL 1
REMARK VINA RESULT:      -9.1      0.000      0.000
REMARK  Name = *****
REMARK                            x       y       z     vdW  Elec       q    Type
REMARK                         _______ _______ _______ _____ _____    ______ ____
ROOT
ATOM      1  C   LIG    1       29.659 -19.819   6.617  0.00  0.00    -0.017 A 
ATOM      2  C   LIG    1       28.914 -20.811   7.308  0.00  0.00    +0.039 A 
ATOM      3  C   LIG    1       27.528 -20.975   7.036  0.00  0.00    +0.043 A 
ATOM      4  C   LIG    1       26.936 -20.193   6.033  0.00  0.00    +0.013 A 
ATOM      5  C   LIG    1       27.703 -19.312   5.269  0.00  0.00    +0.001 A 
ATOM      6  C   LIG    1       29.049 -19.114   5.567  0.00  0.00    +0.006 A 
ENDROOT
BRANCH   2   7
ATOM      7  N   LIG    1       29.602 -21.618   8.247  0.00  0.00    -0.357 N 
ATOM      8  H   LIG    1       28.944 -21.945   8.969  0.00  0.00    +0.142 HD
ATOM      9  H   LIG    1       30.027 -22.443   7.824  0.00  0.00    +0.142 HD
ENDBRANCH   2   7
BRANCH   3  10
ATOM     10  C   LIG    1       26.650 -21.847   7.890  0.00  0.00    +0.195 C 
ATOM     11  O   LIG    1       26.713 -21.740   9.114  0.00  0.00    -0.287 OA
BRANCH  10  12
ATOM     12  C   LIG    1       25.657 -22.820   7.329  0.00  0.00    +0.022 A 
ATOM     13  C   LIG    1       26.019 -24.112   6.931  0.00  0.00    +0.012 A 
ATOM     14  C   LIG    1       25.045 -25.005   6.458  0.00  0.00    +0.001 A 
ATOM     15  C   LIG    1       23.704 -24.626   6.400  0.00  0.00    +0.000 A 
ATOM     16  C   LIG    1       23.330 -23.349   6.810  0.00  0.00    +0.001 A 
ATOM     17  C   LIG    1       24.302 -22.449   7.270  0.00  0.00    +0.012 A 
ENDBRANCH  10  12
ENDBRANCH   3  10
BRANCH   1  18
ATOM     18  C   LIG    1       31.096 -19.476   6.982  0.00  0.00    +0.132 C 
BRANCH  18  22
ATOM     19  N   LIG    1       30.630 -17.899   8.809  0.00  0.00    -0.329 N 
ATOM     20  H   LIG    1       30.012 -17.375   8.207  0.00  0.00    +0.145 HD
ATOM     21  H   LIG    1       30.718 -17.620   9.778  0.00  0.00    +0.145 HD
ATOM     22  C   LIG    1       31.268 -19.041   8.432  0.00  0.00    +0.215 C 
ATOM     23  O   LIG    1       31.950 -19.651   9.268  0.00  0.00    -0.276 OA
ENDBRANCH  18  22
ENDBRANCH   1  18
TORSDOF 5
ENDMDL
MODEL 2
REMARK VINA RESULT:      -8.4      1.942      2.273
REMARK  Name = *****
REMARK                            x       y       z     vdW  Elec       q    Type
REMARK                         _______ _______ _______ _____ _____    ______ ____
ROOT
ATOM      1  C   LIG    1       30.377 -19.560   7.147  0.00  0.00    -0.017 A 
ATOM      2  C   LIG    1       29.364 -20.547   7.263  0.00  0.00    +0.039 A 
ATOM      3  C   LIG    1       28.172 -20.434   6.494  0.00  0.00    +0.043 A 
ATOM      4  C   LIG    1       28.053 -19.377   5.580  0.00  0.00    +0.013 A 
ATOM      5  C   LIG    1       29.107 -18.486   5.377  0.00  0.00    +0.001 A 
ATOM      6  C   LIG    1       30.254 -18.566   6.163  0.00  0.00    +0.006 A 
ENDROOT
BRANCH   2   7
ATOM      7  N   LIG    1       29.593 -21.630   8.147  0.00  0.00    -0.357 N 
ATOM      8  H   LIG    1       29.638 -22.509   7.612  0.00  0.00    +0.142 HD
ATOM      9  H   LIG    1       30.468 -21.540   8.663  0.00  0.00    +0.142 HD
ENDBRANCH   2   7
BRANCH   3  10
ATOM     10  C   LIG    1       26.981 -21.318   6.741  0.00  0.00    +0.195 C 
ATOM     11  O   LIG    1       27.149 -22.404   7.295  0.00  0.00    -0.287 OA
BRANCH  10  12
ATOM     12  C   LIG    1       25.577 -20.931   6.388  0.00  0.00    +0.022 A 
ATOM     13  C   LIG    1       25.184 -20.660   5.072  0.00  0.00    +0.012 A 
ATOM     14  C   LIG    1       23.847 -20.350   4.783  0.00  0.00    +0.001 A 
ATOM     15  C   LIG    1       22.889 -20.329   5.796  0.00  0.00    +0.000 A 
ATOM     16  C   LIG    1       23.265 -20.615   7.106  0.00  0.00    +0.001 A 
ATOM     17  C   LIG    1       24.603 -20.912   7.401  0.00  0.00    +0.012 A 
ENDBRANCH  10  12
ENDBRANCH   3  10
BRANCH   1  18
ATOM     18  C   LIG    1       31.593 -19.528   8.062  0.00  0.00    +0.132 C 
BRANCH  18  22
ATOM     19  N   LIG    1       32.012 -17.349   9.121  0.00  0.00    -0.329 N 
ATOM     20  H   LIG    1       32.467 -17.023   8.281  0.00  0.00    +0.145 HD
ATOM     21  H   LIG    1       31.891 -16.705   9.891  0.00  0.00    +0.145 HD
ATOM     22  C   LIG    1       31.439 -18.578   9.243  0.00  0.00    +0.215 C 
ATOM     23  O   LIG    1       30.842 -18.858  10.293  0.00  0.00    -0.276 OA
ENDBRANCH  18  22
ENDBRANCH   1  18
TORSDOF 5
ENDMDL
MODEL 3
REMARK VINA RESULT:      -8.4      2.589      6.267
REMARK  Name = *****
REMARK                            x       y       z     vdW  Elec       q    Type
REMARK                         _______ _______ _______ _____ _____    ______ ____
ROOT
ATOM      1  C   LIG    1       23.988 -23.405   6.746  0.00  0.00    -0.017 A 
ATOM      2  C   LIG    1       24.997 -22.759   7.509  0.00  0.00    +0.039 A 
ATOM      3  C   LIG    1       24.942 -21.352   7.711  0.00  0.00    +0.043 A 
ATOM      4  C   LIG    1       23.846 -20.638   7.207  0.00  0.00    +0.013 A 
ATOM      5  C   LIG    1       22.793 -21.298   6.572  0.00  0.00    +0.001 A 
ATOM      6  C   LIG    1       22.869 -22.667   6.330  0.00  0.00    +0.006 A 
ENDROOT
BRANCH   2   7
ATOM      7  N   LIG    1       26.028 -23.563   8.055  0.00  0.00    -0.357 N 
ATOM      8  H   LIG    1       26.679 -22.971   8.592  0.00  0.00    +0.142 HD
ATOM      9  H   LIG    1       25.676 -24.283   8.686  0.00  0.00    +0.142 HD
ENDBRANCH   2   7
BRANCH   3  10
ATOM     10  C   LIG    1       26.091 -20.592   8.312  0.00  0.00    +0.195 C 
ATOM     11  O   LIG    1       26.062 -20.316   9.511  0.00  0.00    -0.287 OA
BRANCH  10  12
ATOM     12  C   LIG    1       27.306 -20.182   7.535  0.00  0.00    +0.022 A 
ATOM     13  C   LIG    1       27.302 -20.076   6.139  0.00  0.00    +0.012 A 
ATOM     14  C   LIG    1       28.449 -19.640   5.460  0.00  0.00    +0.001 A 
ATOM     15  C   LIG    1       29.599 -19.286   6.165  0.00  0.00    +0.000 A 
ATOM     16  C   LIG    1       29.608 -19.370   7.555  0.00  0.00    +0.001 A 
ATOM     17  C   LIG    1       28.469 -19.818   8.237  0.00  0.00    +0.012 A 
ENDBRANCH  10  12
ENDBRANCH   3  10
BRANCH   1  18
ATOM     18  C   LIG    1       24.079 -24.871   6.348  0.00  0.00    +0.132 C 
BRANCH  18  22
ATOM     19  N   LIG    1       24.970 -24.748   4.060  0.00  0.00    -0.329 N 
ATOM     20  H   LIG    1       24.162 -24.218   3.768  0.00  0.00    +0.145 HD
ATOM     21  H   LIG    1       25.712 -24.912   3.392  0.00  0.00    +0.145 HD
ATOM     22  C   LIG    1       25.185 -25.159   5.339  0.00  0.00    +0.215 C 
ATOM     23  O   LIG    1       26.244 -25.743   5.612  0.00  0.00    -0.276 OA
ENDBRANCH  18  22
ENDBRANCH   1  18
TORSDOF 5
ENDMDL
MODEL 4
REMARK VINA RESULT:      -8.4      4.028      6.531
REMARK  Name = *****
REMARK                            x       y       z     vdW  Elec       q    Type
REMARK                         _______ _______ _______ _____ _____    ______ ____
ROOT
ATOM      1  C   LIG    1       25.296 -24.882   6.513  0.00  0.00    -0.017 A 
ATOM      2  C   LIG    1       25.438 -23.496   6.787  0.00  0.00    +0.039 A 
ATOM      3  C   LIG    1       24.285 -22.666   6.866  0.00  0.00    +0.043 A 
ATOM      4  C   LIG    1       23.018 -23.253   6.738  0.00  0.00    +0.013 A 
ATOM      5  C   LIG    1       22.881 -24.635   6.600  0.00  0.00    +0.001 A 
ATOM      6  C   LIG    1       24.009 -25.442   6.473  0.00  0.00    +0.006 A 
ENDROOT
BRANCH   2   7
ATOM      7  N   LIG    1       26.747 -22.993   6.986  0.00  0.00    -0.357 N 
ATOM      8  H   LIG    1       27.035 -22.443   6.163  0.00  0.00    +0.142 HD
ATOM      9  H   LIG    1       26.818 -22.385   7.801  0.00  0.00    +0.142 HD
ENDBRANCH   2   7
BRANCH   3  10
ATOM     10  C   LIG    1       24.389 -21.168   6.928  0.00  0.00    +0.195 C 
ATOM     11  O   LIG    1       24.803 -20.641   7.960  0.00  0.00    -0.287 OA
BRANCH  10  12
ATOM     12  C   LIG    1       24.055 -20.268   5.777  0.00  0.00    +0.022 A 
ATOM     13  C   LIG    1       24.958 -20.013   4.739  0.00  0.00    +0.012 A 
ATOM     14  C   LIG    1       24.583 -19.203   3.657  0.00  0.00    +0.001 A 
ATOM     15  C   LIG    1       23.299 -18.662   3.589  0.00  0.00    +0.000 A 
ATOM     16  C   LIG    1       22.385 -18.925   4.606  0.00  0.00    +0.001 A 
ATOM     17  C   LIG    1       22.761 -19.722   5.696  0.00  0.00    +0.012 A 
ENDBRANCH  10  12
ENDBRANCH   3  10
BRANCH   1  18
ATOM     18  C   LIG    1       26.489 -25.787   6.245  0.00  0.00    +0.132 C 
BRANCH  18  22
ATOM     19  N   LIG    1       26.077 -28.154   5.726  0.00  0.00    -0.329 N 
ATOM     20  H   LIG    1       26.103 -28.379   6.710  0.00  0.00    +0.145 HD
ATOM     21  H   LIG    1       25.858 -28.887   5.064  0.00  0.00    +0.145 HD
ATOM     22  C   LIG    1       26.200 -26.891   5.235  0.00  0.00    +0.215 C 
ATOM     23  O   LIG    1       26.083 -26.708   4.014  0.00  0.00    -0.276 OA
ENDBRANCH  18  22
ENDBRANCH   1  18
TORSDOF 5
ENDMDL
MODEL 5
REMARK VINA RESULT:      -8.3      2.551      3.805
REMARK  Name = *****
REMARK                            x       y       z     vdW  Elec       q    Type
REMARK                         _______ _______ _______ _____ _____    ______ ____
ROOT
ATOM      1  C   LIG    1       26.302 -20.579   6.365  0.00  0.00    -0.017 A 
ATOM      2  C   LIG    1       25.382 -21.613   6.045  0.00  0.00    +0.039 A 
ATOM      3  C   LIG    1       24.865 -22.446   7.075  0.00  0.00    +0.043 A 
ATOM      4  C   LIG    1       25.224 -22.182   8.405  0.00  0.00    +0.013 A 
ATOM      5  C   LIG    1       26.025 -21.085   8.724  0.00  0.00    +0.001 A 
ATOM      6  C   LIG    1       26.571 -20.298   7.714  0.00  0.00    +0.006 A 
ENDROOT
BRANCH   2   7
ATOM      7  N   LIG    1       25.003 -21.763   4.688  0.00  0.00    -0.357 N 
ATOM      8  H   LIG    1       23.983 -21.651   4.600  0.00  0.00    +0.142 HD
ATOM      9  H   LIG    1       25.441 -21.075   4.076  0.00  0.00    +0.142 HD
ENDBRANCH   2   7
BRANCH   3  10
ATOM     10  C   LIG    1       24.072 -23.686   6.769  0.00  0.00    +0.195 C 
ATOM     11  O   LIG    1       22.844 -23.641   6.837  0.00  0.00    -0.287 OA
BRANCH  10  12
ATOM     12  C   LIG    1       24.695 -24.980   6.339  0.00  0.00    +0.022 A 
ATOM     13  C   LIG    1       26.067 -25.229   6.465  0.00  0.00    +0.012 A 
ATOM     14  C   LIG    1       26.597 -26.473   6.095  0.00  0.00    +0.001 A 
ATOM     15  C   LIG    1       25.764 -27.485   5.618  0.00  0.00    +0.000 A 
ATOM     16  C   LIG    1       24.395 -27.255   5.505  0.00  0.00    +0.001 A 
ATOM     17  C   LIG    1       23.863 -26.008   5.862  0.00  0.00    +0.012 A 
ENDBRANCH  10  12
ENDBRANCH   3  10
BRANCH   1  18
ATOM     18  C   LIG    1       27.022 -19.769   5.297  0.00  0.00    +0.132 C 
BRANCH  18  22
ATOM     19  N   LIG    1       29.050 -18.389   5.146  0.00  0.00    -0.329 N 
ATOM     20  H   LIG    1       28.524 -17.656   4.693  0.00  0.00    +0.145 HD
ATOM     21  H   LIG    1       30.024 -18.225   5.363  0.00  0.00    +0.145 HD
ATOM     22  C   LIG    1       28.500 -19.550   5.594  0.00  0.00    +0.215 C 
ATOM     23  O   LIG    1       29.219 -20.358   6.201  0.00  0.00    -0.276 OA
ENDBRANCH  18  22
ENDBRANCH   1  18
TORSDOF 5
ENDMDL
MODEL 6
REMARK VINA RESULT:      -8.3      4.084      5.017
REMARK  Name = *****
REMARK                            x       y       z     vdW  Elec       q    Type
REMARK                         _______ _______ _______ _____ _____    ______ ____
ROOT
ATOM      1  C   LIG    1       25.723 -20.773   5.792  0.00  0.00    -0.017 A 
ATOM      2  C   LIG    1       24.900 -21.919   5.640  0.00  0.00    +0.039 A 
ATOM      3  C   LIG    1       24.525 -22.679   6.782  0.00  0.00    +0.043 A 
ATOM      4  C   LIG    1       24.922 -22.237   8.052  0.00  0.00    +0.013 A 
ATOM      5  C   LIG    1       25.621 -21.038   8.205  0.00  0.00    +0.001 A 
ATOM      6  C   LIG    1       26.032 -20.319   7.085  0.00  0.00    +0.006 A 
ENDROOT
BRANCH   2   7
ATOM      7  N   LIG    1       24.470 -22.255   4.333  0.00  0.00    -0.357 N 
ATOM      8  H   LIG    1       25.017 -23.055   3.984  0.00  0.00    +0.142 HD
ATOM      9  H   LIG    1       23.485 -22.517   4.295  0.00  0.00    +0.142 HD
ENDBRANCH   2   7
BRANCH   3  10
ATOM     10  C   LIG    1       23.849 -24.016   6.658  0.00  0.00    +0.195 C 
ATOM     11  O   LIG    1       22.634 -24.091   6.844  0.00  0.00    -0.287 OA
BRANCH  10  12
ATOM     12  C   LIG    1       24.570 -25.273   6.274  0.00  0.00    +0.022 A 
ATOM     13  C   LIG    1       23.915 -26.362   5.687  0.00  0.00    +0.012 A 
ATOM     14  C   LIG    1       24.640 -27.498   5.298  0.00  0.00    +0.001 A 
ATOM     15  C   LIG    1       26.023 -27.549   5.470  0.00  0.00    +0.000 A 
ATOM     16  C   LIG    1       26.688 -26.464   6.036  0.00  0.00    +0.001 A 
ATOM     17  C   LIG    1       25.965 -25.333   6.438  0.00  0.00    +0.012 A 
ENDBRANCH  10  12
ENDBRANCH   3  10
BRANCH   1  18
ATOM     18  C   LIG    1       26.301 -20.020   4.603  0.00  0.00    +0.132 C 
BRANCH  18  22
ATOM     19  N   LIG    1       25.814 -18.023   3.255  0.00  0.00    -0.329 N 
ATOM     20  H   LIG    1       26.803 -17.859   3.131  0.00  0.00    +0.145 HD
ATOM     21  H   LIG    1       25.157 -17.417   2.782  0.00  0.00    +0.145 HD
ATOM     22  C   LIG    1       25.302 -19.089   3.928  0.00  0.00    +0.215 C 
ATOM     23  O   LIG    1       24.072 -19.240   3.964  0.00  0.00    -0.276 OA
ENDBRANCH  18  22
ENDBRANCH   1  18
TORSDOF 5
ENDMDL
MODEL 7
REMARK VINA RESULT:      -8.2      3.521      6.532
REMARK  Name = *****
REMARK                            x       y       z     vdW  Elec       q    Type
REMARK                         _______ _______ _______ _____ _____    ______ ____
ROOT
ATOM      1  C   LIG    1       24.518 -20.688   5.916  0.00  0.00    -0.017 A 
ATOM      2  C   LIG    1       25.884 -20.444   5.613  0.00  0.00    +0.039 A 
ATOM      3  C   LIG    1       26.829 -20.308   6.667  0.00  0.00    +0.043 A 
ATOM      4  C   LIG    1       26.401 -20.489   7.990  0.00  0.00    +0.013 A 
ATOM      5  C   LIG    1       25.085 -20.858   8.271  0.00  0.00    +0.001 A 
ATOM      6  C   LIG    1       24.147 -20.942   7.246  0.00  0.00    +0.006 A 
ENDROOT
BRANCH   2   7
ATOM      7  N   LIG    1       26.253 -20.356   4.249  0.00  0.00    -0.357 N 
ATOM      8  H   LIG    1       26.439 -21.300   3.880  0.00  0.00    +0.142 HD
ATOM      9  H   LIG    1       25.527 -19.938   3.668  0.00  0.00    +0.142 HD
ENDBRANCH   2   7
BRANCH   3  10
ATOM     10  C   LIG    1       28.233 -19.830   6.417  0.00  0.00    +0.195 C 
ATOM     11  O   LIG    1       28.492 -19.270   5.352  0.00  0.00    -0.287 OA
BRANCH  10  12
ATOM     12  C   LIG    1       29.340 -19.958   7.420  0.00  0.00    +0.022 A 
ATOM     13  C   LIG    1       29.778 -21.199   7.897  0.00  0.00    +0.012 A 
ATOM     14  C   LIG    1       30.851 -21.271   8.798  0.00  0.00    +0.001 A 
ATOM     15  C   LIG    1       31.509 -20.113   9.211  0.00  0.00    +0.000 A 
ATOM     16  C   LIG    1       31.094 -18.875   8.727  0.00  0.00    +0.001 A 
ATOM     17  C   LIG    1       30.013 -18.797   7.838  0.00  0.00    +0.012 A 
ENDBRANCH  10  12
ENDBRANCH   3  10
BRANCH   1  18
ATOM     18  C   LIG    1       23.431 -20.670   4.850  0.00  0.00    +0.132 C 
BRANCH  18  22
ATOM     19  N   LIG    1       22.015 -18.674   4.624  0.00  0.00    -0.329 N 
ATOM     20  H   LIG    1       21.361 -19.055   5.292  0.00  0.00    +0.145 HD
ATOM     21  H   LIG    1       21.852 -17.744   4.260  0.00  0.00    +0.145 HD
ATOM     22  C   LIG    1       23.176 -19.286   4.265  0.00  0.00    +0.215 C 
ATOM     23  O   LIG    1       23.947 -18.702   3.489  0.00  0.00    -0.276 OA
ENDBRANCH  18  22
ENDBRANCH   1  18
TORSDOF 5
ENDMDL
MODEL 8
REMARK VINA RESULT:      -8.1      2.546      6.589
REMARK  Name = *****
REMARK                            x       y       z     vdW  Elec       q    Type
REMARK                         _______ _______ _______ _____ _____    ______ ____
ROOT
ATOM      1  C   LIG    1       24.844 -20.779   6.588  0.00  0.00    -0.017 A 
ATOM      2  C   LIG    1       25.926 -20.774   7.507  0.00  0.00    +0.039 A 
ATOM      3  C   LIG    1       27.232 -20.427   7.064  0.00  0.00    +0.043 A 
ATOM      4  C   LIG    1       27.412 -20.027   5.732  0.00  0.00    +0.013 A 
ATOM      5  C   LIG    1       26.322 -19.909   4.868  0.00  0.00    +0.001 A 
ATOM      6  C   LIG    1       25.051 -20.296   5.286  0.00  0.00    +0.006 A 
ENDROOT
BRANCH   2   7
ATOM      7  N   LIG    1       25.649 -21.110   8.855  0.00  0.00    -0.357 N 
ATOM      8  H   LIG    1       26.527 -21.131   9.394  0.00  0.00    +0.142 HD
ATOM      9  H   LIG    1       25.027 -20.442   9.310  0.00  0.00    +0.142 HD
ENDBRANCH   2   7
BRANCH   3  10
ATOM     10  C   LIG    1       28.443 -20.621   7.933  0.00  0.00    +0.195 C 
ATOM     11  O   LIG    1       28.582 -21.687   8.533  0.00  0.00    -0.287 OA
BRANCH  10  12
ATOM     12  C   LIG    1       29.526 -19.596   8.081  0.00  0.00    +0.022 A 
ATOM     13  C   LIG    1       29.399 -18.488   8.927  0.00  0.00    +0.012 A 
ATOM     14  C   LIG    1       30.460 -17.582   9.070  0.00  0.00    +0.001 A 
ATOM     15  C   LIG    1       31.662 -17.784   8.391  0.00  0.00    +0.000 A 
ATOM     16  C   LIG    1       31.806 -18.893   7.561  0.00  0.00    +0.001 A 
ATOM     17  C   LIG    1       30.743 -19.793   7.404  0.00  0.00    +0.012 A 
ENDBRANCH  10  12
ENDBRANCH   3  10
BRANCH   1  18
ATOM     18  C   LIG    1       23.464 -21.306   6.955  0.00  0.00    +0.132 C 
BRANCH  18  22
ATOM     19  N   LIG    1       22.128 -23.323   6.519  0.00  0.00    -0.329 N 
ATOM     20  H   LIG    1       21.336 -22.750   6.269  0.00  0.00    +0.145 HD
ATOM     21  H   LIG    1       22.051 -24.327   6.429  0.00  0.00    +0.145 HD
ATOM     22  C   LIG    1       23.347 -22.822   6.861  0.00  0.00    +0.215 C 
ATOM     23  O   LIG    1       24.278 -23.610   7.083  0.00  0.00    -0.276 OA
ENDBRANCH  18  22
ENDBRANCH   1  18
TORSDOF 5
ENDMDL
MODEL 9
REMARK VINA RESULT:      -8.0      2.722      7.007
REMARK  Name = *****
REMARK                            x       y       z     vdW  Elec       q    Type
REMARK                         _______ _______ _______ _____ _____    ______ ____
ROOT
ATOM      1  C   LIG    1       27.406 -20.250   6.037  0.00  0.00    -0.017 A 
ATOM      2  C   LIG    1       28.666 -19.598   6.096  0.00  0.00    +0.039 A 
ATOM      3  C   LIG    1       29.595 -19.942   7.117  0.00  0.00    +0.043 A 
ATOM      4  C   LIG    1       29.271 -20.974   8.009  0.00  0.00    +0.013 A 
ATOM      5  C   LIG    1       28.087 -21.698   7.864  0.00  0.00    +0.001 A 
ATOM      6  C   LIG    1       27.154 -21.331   6.897  0.00  0.00    +0.006 A 
ENDROOT
BRANCH   2   7
ATOM      7  N   LIG    1       28.953 -18.624   5.109  0.00  0.00    -0.357 N 
ATOM      8  H   LIG    1       29.973 -18.537   4.995  0.00  0.00    +0.142 HD
ATOM      9  H   LIG    1       28.562 -18.858   4.196  0.00  0.00    +0.142 HD
ENDBRANCH   2   7
BRANCH   3  10
ATOM     10  C   LIG    1       30.839 -19.135   7.361  0.00  0.00    +0.195 C 
ATOM     11  O   LIG    1       31.762 -19.200   6.550  0.00  0.00    -0.287 OA
BRANCH  10  12
ATOM     12  C   LIG    1       31.007 -18.209   8.529  0.00  0.00    +0.022 A 
ATOM     13  C   LIG    1       29.994 -18.001   9.471  0.00  0.00    +0.012 A 
ATOM     14  C   LIG    1       30.215 -17.163  10.574  0.00  0.00    +0.001 A 
ATOM     15  C   LIG    1       31.452 -16.546  10.759  0.00  0.00    +0.000 A 
ATOM     16  C   LIG    1       32.474 -16.761   9.838  0.00  0.00    +0.001 A 
ATOM     17  C   LIG    1       32.252 -17.586   8.727  0.00  0.00    +0.012 A 
ENDBRANCH  10  12
ENDBRANCH   3  10
BRANCH   1  18
ATOM     18  C   LIG    1       26.304 -19.810   5.083  0.00  0.00    +0.132 C 
BRANCH  18  22
ATOM     19  N   LIG    1       24.869 -21.715   4.490  0.00  0.00    -0.329 N 
ATOM     20  H   LIG    1       25.592 -22.079   3.886  0.00  0.00    +0.145 HD
ATOM     21  H   LIG    1       24.022 -22.255   4.615  0.00  0.00    +0.145 HD
ATOM     22  C   LIG    1       25.008 -20.594   5.248  0.00  0.00    +0.215 C 
ATOM     23  O   LIG    1       24.088 -20.269   6.013  0.00  0.00    -0.276 OA
ENDBRANCH  18  22
ENDBRANCH   1  18
TORSDOF 5
ENDMDL
