MODEL 1
REMARK VINA RESULT:      -4.1      0.000      0.000
REMARK  Name = *****
REMARK                            x       y       z     vdW  Elec       q    Type
REMARK                         _______ _______ _______ _____ _____    ______ ____
ROOT
ATOM      1  C   LIG    1       25.337 -13.748   3.719  0.00  0.00    +0.323 C 
ATOM      2 BR   LIG    1       23.750 -14.774   4.252  0.00  0.00    +0.005 Br
ENDROOT
BRANCH   1   4
ATOM      3  O   LIG    1       26.691 -14.252   1.844  0.00  0.00    +0.036 OA
ATOM      4  N   LIG    1       26.147 -14.705   2.864  0.00  0.00    +0.060 N 
ATOM      5  O   LIG    1       26.225 -15.883   3.228  0.00  0.00    -0.580 OA
ENDBRANCH   1   4
BRANCH   1   6
ATOM      6  C   LIG    1       24.901 -12.552   2.863  0.00  0.00    +0.255 C 
BRANCH   6   7
ATOM      7  O   LIG    1       23.999 -12.934   1.812  0.00  0.00    -0.387 OA
ATOM      8  H   LIG    1       24.186 -13.870   1.597  0.00  0.00    +0.210 HD
ENDBRANCH   6   7
ENDBRANCH   1   6
BRANCH   1   9
ATOM      9  C   LIG    1       26.152 -13.344   4.954  0.00  0.00    +0.255 C 
BRANCH   9  10
ATOM     10  O   LIG    1       27.567 -13.504   4.801  0.00  0.00    -0.387 OA
ATOM     11  H   LIG    1       27.743 -13.884   3.914  0.00  0.00    +0.210 HD
ENDBRANCH   9  10
ENDBRANCH   1   9
TORSDOF 5
ENDMDL
MODEL 2
REMARK VINA RESULT:      -3.9      1.370      1.716
REMARK  Name = *****
REMARK                            x       y       z     vdW  Elec       q    Type
REMARK                         _______ _______ _______ _____ _____    ______ ____
ROOT
ATOM      1  C   LIG    1       25.920 -14.205   3.957  0.00  0.00    +0.323 C 
ATOM      2 BR   LIG    1       23.990 -14.535   4.113  0.00  0.00    +0.005 Br
ENDROOT
BRANCH   1   4
ATOM      3  O   LIG    1       25.824 -16.445   3.203  0.00  0.00    +0.036 OA
ATOM      4  N   LIG    1       26.530 -15.576   3.737  0.00  0.00    +0.060 N 
ATOM      5  O   LIG    1       27.699 -15.756   4.098  0.00  0.00    -0.580 OA
ENDBRANCH   1   4
BRANCH   1   6
ATOM      6  C   LIG    1       26.185 -13.330   2.725  0.00  0.00    +0.255 C 
BRANCH   6   7
ATOM      7  O   LIG    1       27.110 -13.940   1.812  0.00  0.00    -0.387 OA
ATOM      8  H   LIG    1       27.553 -13.217   1.324  0.00  0.00    +0.210 HD
ENDBRANCH   6   7
ENDBRANCH   1   6
BRANCH   1   9
ATOM      9  C   LIG    1       26.465 -13.600   5.258  0.00  0.00    +0.255 C 
BRANCH   9  10
ATOM     10  O   LIG    1       27.678 -12.855   5.095  0.00  0.00    -0.387 OA
ATOM     11  H   LIG    1       27.959 -12.523   5.973  0.00  0.00    +0.210 HD
ENDBRANCH   9  10
ENDBRANCH   1   9
TORSDOF 5
ENDMDL
MODEL 3
REMARK VINA RESULT:      -3.8      1.576      2.048
REMARK  Name = *****
REMARK                            x       y       z     vdW  Elec       q    Type
REMARK                         _______ _______ _______ _____ _____    ______ ____
ROOT
ATOM      1  C   LIG    1       25.484 -13.536   3.829  0.00  0.00    +0.323 C 
ATOM      2 BR   LIG    1       24.110 -12.271   4.438  0.00  0.00    +0.005 Br
ENDROOT
BRANCH   1   4
ATOM      3  O   LIG    1       23.603 -14.928   4.177  0.00  0.00    +0.036 OA
ATOM      4  N   LIG    1       24.795 -14.886   3.831  0.00  0.00    +0.060 N 
ATOM      5  O   LIG    1       25.453 -15.874   3.487  0.00  0.00    -0.580 OA
ENDBRANCH   1   4
BRANCH   1   6
ATOM      6  C   LIG    1       25.895 -13.181   2.394  0.00  0.00    +0.255 C 
BRANCH   6   7
ATOM      7  O   LIG    1       26.830 -14.123   1.846  0.00  0.00    -0.387 OA
ATOM      8  H   LIG    1       26.474 -15.018   2.021  0.00  0.00    +0.210 HD
ENDBRANCH   6   7
ENDBRANCH   1   6
BRANCH   1   9
ATOM      9  C   LIG    1       26.663 -13.556   4.810  0.00  0.00    +0.255 C 
BRANCH   9  10
ATOM     10  O   LIG    1       27.745 -14.406   4.408  0.00  0.00    -0.387 OA
ATOM     11  H   LIG    1       27.424 -15.002   3.699  0.00  0.00    +0.210 HD
ENDBRANCH   9  10
ENDBRANCH   1   9
TORSDOF 5
ENDMDL
MODEL 4
REMARK VINA RESULT:      -3.8      1.867      2.410
REMARK  Name = *****
REMARK                            x       y       z     vdW  Elec       q    Type
REMARK                         _______ _______ _______ _____ _____    ______ ____
ROOT
ATOM      1  C   LIG    1       25.324 -13.479   3.723  0.00  0.00    +0.323 C 
ATOM      2 BR   LIG    1       26.792 -13.513   5.028  0.00  0.00    +0.005 Br
ENDROOT
BRANCH   1   4
ATOM      3  O   LIG    1       23.501 -14.909   4.198  0.00  0.00    +0.036 OA
ATOM      4  N   LIG    1       24.683 -14.849   3.826  0.00  0.00    +0.060 N 
ATOM      5  O   LIG    1       25.369 -15.834   3.532  0.00  0.00    -0.580 OA
ENDBRANCH   1   4
BRANCH   1   6
ATOM      6  C   LIG    1       24.304 -12.412   4.140  0.00  0.00    +0.255 C 
BRANCH   6   7
ATOM      7  O   LIG    1       23.578 -11.884   3.019  0.00  0.00    -0.387 OA
ATOM      8  H   LIG    1       23.324 -10.966   3.246  0.00  0.00    +0.210 HD
ENDBRANCH   6   7
ENDBRANCH   1   6
BRANCH   1   9
ATOM      9  C   LIG    1       25.875 -13.271   2.307  0.00  0.00    +0.255 C 
BRANCH   9  10
ATOM     10  O   LIG    1       26.954 -14.148   1.963  0.00  0.00    -0.387 OA
ATOM     11  H   LIG    1       27.222 -13.964   1.038  0.00  0.00    +0.210 HD
ENDBRANCH   9  10
ENDBRANCH   1   9
TORSDOF 5
ENDMDL
MODEL 5
REMARK VINA RESULT:      -3.6      2.372      3.381
REMARK  Name = *****
REMARK                            x       y       z     vdW  Elec       q    Type
REMARK                         _______ _______ _______ _____ _____    ______ ____
ROOT
ATOM      1  C   LIG    1       25.347 -13.533   3.760  0.00  0.00    +0.323 C 
ATOM      2 BR   LIG    1       26.673 -13.386   5.202  0.00  0.00    +0.005 Br
ENDROOT
BRANCH   1   4
ATOM      3  O   LIG    1       24.204 -12.065   5.222  0.00  0.00    +0.036 OA
ATOM      4  N   LIG    1       24.344 -12.432   4.044  0.00  0.00    +0.060 N 
ATOM      5  O   LIG    1       23.720 -11.955   3.090  0.00  0.00    -0.580 OA
ENDBRANCH   1   4
BRANCH   1   6
ATOM      6  C   LIG    1       26.032 -13.258   2.416  0.00  0.00    +0.255 C 
BRANCH   6   7
ATOM      7  O   LIG    1       26.701 -14.418   1.897  0.00  0.00    -0.387 OA
ATOM      8  H   LIG    1       26.119 -15.187   2.066  0.00  0.00    +0.210 HD
ENDBRANCH   6   7
ENDBRANCH   1   6
BRANCH   1   9
ATOM      9  C   LIG    1       24.647 -14.896   3.816  0.00  0.00    +0.255 C 
BRANCH   9  10
ATOM     10  O   LIG    1       23.313 -14.849   4.338  0.00  0.00    -0.387 OA
ATOM     11  H   LIG    1       23.050 -13.909   4.433  0.00  0.00    +0.210 HD
ENDBRANCH   9  10
ENDBRANCH   1   9
TORSDOF 5
ENDMDL
MODEL 6
REMARK VINA RESULT:      -3.6      6.162      7.158
REMARK  Name = *****
REMARK                            x       y       z     vdW  Elec       q    Type
REMARK                         _______ _______ _______ _____ _____    ______ ____
ROOT
ATOM      1  C   LIG    1       24.183 -20.442   5.053  0.00  0.00    +0.323 C 
ATOM      2 BR   LIG    1       23.304 -20.901   6.749  0.00  0.00    +0.005 Br
ENDROOT
BRANCH   1   4
ATOM      3  O   LIG    1       22.371 -18.920   5.090  0.00  0.00    +0.036 OA
ATOM      4  N   LIG    1       23.464 -19.196   4.571  0.00  0.00    +0.060 N 
ATOM      5  O   LIG    1       24.004 -18.519   3.689  0.00  0.00    -0.580 OA
ENDBRANCH   1   4
BRANCH   1   6
ATOM      6  C   LIG    1       25.654 -20.103   5.323  0.00  0.00    +0.255 C 
BRANCH   6   7
ATOM      7  O   LIG    1       26.457 -20.173   4.134  0.00  0.00    -0.387 OA
ATOM      8  H   LIG    1       26.449 -21.105   3.835  0.00  0.00    +0.210 HD
ENDBRANCH   6   7
ENDBRANCH   1   6
BRANCH   1   9
ATOM      9  C   LIG    1       23.997 -21.572   4.033  0.00  0.00    +0.255 C 
BRANCH   9  10
ATOM     10  O   LIG    1       24.070 -21.145   2.667  0.00  0.00    -0.387 OA
ATOM     11  H   LIG    1       23.324 -21.550   2.175  0.00  0.00    +0.210 HD
ENDBRANCH   9  10
ENDBRANCH   1   9
TORSDOF 5
ENDMDL
MODEL 7
REMARK VINA RESULT:      -3.6      1.261      2.766
REMARK  Name = *****
REMARK                            x       y       z     vdW  Elec       q    Type
REMARK                         _______ _______ _______ _____ _____    ______ ____
ROOT
ATOM      1  C   LIG    1       25.542 -13.833   3.849  0.00  0.00    +0.323 C 
ATOM      2 BR   LIG    1       24.153 -12.573   4.430  0.00  0.00    +0.005 Br
ENDROOT
BRANCH   1   4
ATOM      3  O   LIG    1       25.335 -12.385   1.989  0.00  0.00    +0.036 OA
ATOM      4  N   LIG    1       25.893 -13.399   2.439  0.00  0.00    +0.060 N 
ATOM      5  O   LIG    1       26.717 -14.073   1.812  0.00  0.00    -0.580 OA
ENDBRANCH   1   4
BRANCH   1   6
ATOM      6  C   LIG    1       26.775 -13.675   4.748  0.00  0.00    +0.255 C 
BRANCH   6   7
ATOM      7  O   LIG    1       27.869 -14.504   4.325  0.00  0.00    -0.387 OA
ATOM      8  H   LIG    1       27.786 -14.619   3.356  0.00  0.00    +0.210 HD
ENDBRANCH   6   7
ENDBRANCH   1   6
BRANCH   1   9
ATOM      9  C   LIG    1       24.989 -15.264   3.826  0.00  0.00    +0.255 C 
BRANCH   9  10
ATOM     10  O   LIG    1       25.893 -16.233   3.280  0.00  0.00    -0.387 OA
ATOM     11  H   LIG    1       25.662 -16.378   2.339  0.00  0.00    +0.210 HD
ENDBRANCH   9  10
ENDBRANCH   1   9
TORSDOF 5
ENDMDL
MODEL 8
REMARK VINA RESULT:      -3.5      1.856      3.310
REMARK  Name = *****
REMARK                            x       y       z     vdW  Elec       q    Type
REMARK                         _______ _______ _______ _____ _____    ______ ____
ROOT
ATOM      1  C   LIG    1       25.016 -13.268   3.830  0.00  0.00    +0.323 C 
ATOM      2 BR   LIG    1       23.805 -14.793   4.089  0.00  0.00    +0.005 Br
ENDROOT
BRANCH   1   4
ATOM      3  O   LIG    1       23.719 -11.470   3.003  0.00  0.00    +0.036 OA
ATOM      4  N   LIG    1       24.142 -12.044   4.020  0.00  0.00    +0.060 N 
ATOM      5  O   LIG    1       23.894 -11.681   5.175  0.00  0.00    -0.580 OA
ENDBRANCH   1   4
BRANCH   1   6
ATOM      6  C   LIG    1       26.097 -13.292   4.918  0.00  0.00    +0.255 C 
BRANCH   6   7
ATOM      7  O   LIG    1       27.423 -13.323   4.369  0.00  0.00    -0.387 OA
ATOM      8  H   LIG    1       27.381 -13.844   3.542  0.00  0.00    +0.210 HD
ENDBRANCH   6   7
ENDBRANCH   1   6
BRANCH   1   9
ATOM      9  C   LIG    1       25.588 -13.278   2.407  0.00  0.00    +0.255 C 
BRANCH   9  10
ATOM     10  O   LIG    1       26.380 -14.433   2.102  0.00  0.00    -0.387 OA
ATOM     11  H   LIG    1       25.779 -15.157   1.825  0.00  0.00    +0.210 HD
ENDBRANCH   9  10
ENDBRANCH   1   9
TORSDOF 5
ENDMDL
MODEL 9
REMARK VINA RESULT:      -3.5      1.493      3.048
REMARK  Name = *****
REMARK                            x       y       z     vdW  Elec       q    Type
REMARK                         _______ _______ _______ _____ _____    ______ ____
ROOT
ATOM      1  C   LIG    1       25.160 -13.574   3.718  0.00  0.00    +0.323 C 
ATOM      2 BR   LIG    1       23.724 -14.789   4.281  0.00  0.00    +0.005 Br
ENDROOT
BRANCH   1   4
ATOM      3  O   LIG    1       23.687 -11.722   3.694  0.00  0.00    +0.036 OA
ATOM      4  N   LIG    1       24.449 -12.432   3.018  0.00  0.00    +0.060 N 
ATOM      5  O   LIG    1       24.665 -12.265   1.812  0.00  0.00    -0.580 OA
ENDBRANCH   1   4
BRANCH   1   6
ATOM      6  C   LIG    1       25.881 -13.034   4.960  0.00  0.00    +0.255 C 
BRANCH   6   7
ATOM      7  O   LIG    1       27.024 -13.827   5.315  0.00  0.00    -0.387 OA
ATOM      8  H   LIG    1       26.788 -14.328   6.123  0.00  0.00    +0.210 HD
ENDBRANCH   6   7
ENDBRANCH   1   6
BRANCH   1   9
ATOM      9  C   LIG    1       26.099 -14.279   2.731  0.00  0.00    +0.255 C 
BRANCH   9  10
ATOM     10  O   LIG    1       27.317 -13.569   2.472  0.00  0.00    -0.387 OA
ATOM     11  H   LIG    1       27.203 -12.640   2.763  0.00  0.00    +0.210 HD
ENDBRANCH   9  10
ENDBRANCH   1   9
TORSDOF 5
ENDMDL
