MODEL 1
REMARK VINA RESULT:      -0.5      0.000      0.000
REMARK  Name = *****
REMARK                            x       y       z     vdW  Elec       q    Type
REMARK                         _______ _______ _______ _____ _____    ______ ____
ROOT
ATOM      1  C   LIG    1       24.712 -18.555   3.361  0.00  0.00    +0.065 C 
ATOM      2  C   LIG    1       25.976 -17.682   3.324  0.00  0.00    +0.098 C 
ATOM      3  C   LIG    1       25.658 -16.192   3.512  0.00  0.00    +0.065 C 
ATOM      4  C   LIG    1       24.518 -15.833   4.150  0.00  0.00    +0.016 C 
ATOM      5  C   LIG    1       24.130 -14.414   4.484  0.00  0.00    +0.061 C 
ATOM      6  N   LIG    1       23.627 -16.819   4.558  0.00  0.00    -0.321 N 
ATOM      7  H   LIG    1       22.745 -16.496   4.951  0.00  0.00    +0.152 HD
ATOM      8  C   LIG    1       23.622 -18.112   4.036  0.00  0.00    +0.016 C 
ATOM      9  C   LIG    1       22.338 -18.866   4.286  0.00  0.00    +0.061 C 
ENDROOT
BRANCH   2  10
ATOM     10  C   LIG    1       26.998 -18.170   4.360  0.00  0.00    -0.004 A 
ATOM     11  C   LIG    1       26.834 -19.285   5.221  0.00  0.00    +0.138 A 
ATOM     12  C   LIG    1       27.869 -19.723   6.160  0.00  0.00    +0.135 A 
ATOM     13  N   LIG    1       27.431 -20.814   6.798  0.00  0.00    -0.049 NA
ATOM     14  O   LIG    1       26.165 -21.058   6.300  0.00  0.00    -0.242 OA
ATOM     15  C   LIG    1       29.099 -19.061   6.307  0.00  0.00    +0.033 A 
ATOM     16  C   LIG    1       29.252 -17.945   5.473  0.00  0.00    +0.003 A 
ATOM     17  N   LIG    1       25.791 -20.116   5.356  0.00  0.00    -0.049 NA
ATOM     18  C   LIG    1       28.256 -17.526   4.549  0.00  0.00    +0.007 A 
ENDBRANCH   2  10
BRANCH   1  19
ATOM     19  C   LIG    1       24.730 -19.826   2.567  0.00  0.00    +0.337 C 
ATOM     20  O   LIG    1       25.605 -20.184   1.812  0.00  0.00    -0.245 OA
BRANCH  19  22
ATOM     21  C   LIG    1       23.802 -21.572   3.877  0.00  0.00    +0.280 C 
ATOM     22  O   LIG    1       23.629 -20.557   2.890  0.00  0.00    -0.465 OA
ENDBRANCH  19  22
ENDBRANCH   1  19
BRANCH   3  23
ATOM     23  C   LIG    1       26.628 -15.189   2.977  0.00  0.00    +0.338 C 
ATOM     24  O   LIG    1       26.639 -14.752   1.844  0.00  0.00    -0.245 OA
BRANCH  23  25
ATOM     25  O   LIG    1       27.462 -14.806   3.973  0.00  0.00    -0.459 OA
BRANCH  25  26
ATOM     26  C   LIG    1       27.625 -13.399   4.214  0.00  0.00    +0.171 C 
ATOM     27  C   LIG    1       29.019 -12.975   3.778  0.00  0.00    +0.051 C 
ATOM     28  C   LIG    1       27.443 -13.210   5.714  0.00  0.00    +0.051 C 
ENDBRANCH  25  26
ENDBRANCH  23  25
ENDBRANCH   3  23
TORSDOF 6
ENDMDL
MODEL 2
REMARK VINA RESULT:       1.0      1.600      2.094
REMARK  Name = *****
REMARK                            x       y       z     vdW  Elec       q    Type
REMARK                         _______ _______ _______ _____ _____    ______ ____
ROOT
ATOM      1  C   LIG    1       23.846 -19.330   3.665  0.00  0.00    +0.065 C 
ATOM      2  C   LIG    1       25.185 -18.575   3.682  0.00  0.00    +0.098 C 
ATOM      3  C   LIG    1       24.993 -17.058   3.801  0.00  0.00    +0.065 C 
ATOM      4  C   LIG    1       23.854 -16.574   4.351  0.00  0.00    +0.016 C 
ATOM      5  C   LIG    1       23.577 -15.115   4.614  0.00  0.00    +0.061 C 
ATOM      6  N   LIG    1       22.853 -17.461   4.732  0.00  0.00    -0.321 N 
ATOM      7  H   LIG    1       21.981 -17.045   5.056  0.00  0.00    +0.152 HD
ATOM      8  C   LIG    1       22.762 -18.767   4.253  0.00  0.00    +0.016 C 
ATOM      9  C   LIG    1       21.402 -19.394   4.442  0.00  0.00    +0.061 C 
ENDROOT
BRANCH   2  10
ATOM     10  C   LIG    1       26.092 -19.114   4.798  0.00  0.00    -0.004 A 
ATOM     11  C   LIG    1       27.452 -18.766   4.998  0.00  0.00    +0.138 A 
ATOM     12  C   LIG    1       28.250 -19.286   6.110  0.00  0.00    +0.135 A 
ATOM     13  N   LIG    1       29.473 -18.747   6.046  0.00  0.00    -0.049 NA
ATOM     14  O   LIG    1       29.464 -17.927   4.933  0.00  0.00    -0.242 OA
ATOM     15  C   LIG    1       27.745 -20.194   7.056  0.00  0.00    +0.033 A 
ATOM     16  C   LIG    1       26.408 -20.556   6.845  0.00  0.00    +0.003 A 
ATOM     17  N   LIG    1       28.242 -17.954   4.281  0.00  0.00    -0.049 NA
ATOM     18  C   LIG    1       25.625 -20.041   5.775  0.00  0.00    +0.007 A 
ENDBRANCH   2  10
BRANCH   1  19
ATOM     19  C   LIG    1       23.798 -20.627   2.914  0.00  0.00    +0.337 C 
ATOM     20  O   LIG    1       24.251 -20.832   1.812  0.00  0.00    -0.245 OA
BRANCH  19  22
ATOM     21  C   LIG    1       23.611 -21.571   5.082  0.00  0.00    +0.280 C 
ATOM     22  O   LIG    1       23.222 -21.568   3.709  0.00  0.00    -0.465 OA
ENDBRANCH  19  22
ENDBRANCH   1  19
BRANCH   3  23
ATOM     23  C   LIG    1       26.083 -16.166   3.299  0.00  0.00    +0.338 C 
ATOM     24  O   LIG    1       26.687 -16.309   2.256  0.00  0.00    -0.245 OA
BRANCH  23  25
ATOM     25  O   LIG    1       26.252 -15.141   4.169  0.00  0.00    -0.459 OA
BRANCH  25  26
ATOM     26  C   LIG    1       27.230 -14.138   3.851  0.00  0.00    +0.171 C 
ATOM     27  C   LIG    1       27.503 -13.296   5.087  0.00  0.00    +0.051 C 
ATOM     28  C   LIG    1       26.617 -13.295   2.742  0.00  0.00    +0.051 C 
ENDBRANCH  25  26
ENDBRANCH  23  25
ENDBRANCH   3  23
TORSDOF 6
ENDMDL
MODEL 3
REMARK VINA RESULT:       2.5      2.425      6.639
REMARK  Name = *****
REMARK                            x       y       z     vdW  Elec       q    Type
REMARK                         _______ _______ _______ _____ _____    ______ ____
ROOT
ATOM      1  C   LIG    1       26.652 -14.153   3.222  0.00  0.00    +0.065 C 
ATOM      2  C   LIG    1       25.686 -15.348   3.211  0.00  0.00    +0.098 C 
ATOM      3  C   LIG    1       26.389 -16.665   3.566  0.00  0.00    +0.065 C 
ATOM      4  C   LIG    1       27.532 -16.632   4.293  0.00  0.00    +0.016 C 
ATOM      5  C   LIG    1       28.271 -17.849   4.789  0.00  0.00    +0.061 C 
ATOM      6  N   LIG    1       28.080 -15.403   4.642  0.00  0.00    -0.321 N 
ATOM      7  H   LIG    1       28.985 -15.429   5.109  0.00  0.00    +0.152 HD
ATOM      8  C   LIG    1       27.767 -14.210   3.992  0.00  0.00    +0.016 C 
ATOM      9  C   LIG    1       28.769 -13.105   4.227  0.00  0.00    +0.061 C 
ENDROOT
BRANCH   2  10
ATOM     10  C   LIG    1       24.493 -15.083   4.140  0.00  0.00    -0.004 A 
ATOM     11  C   LIG    1       24.219 -13.862   4.807  0.00  0.00    +0.138 A 
ATOM     12  C   LIG    1       23.037 -13.664   5.649  0.00  0.00    +0.135 A 
ATOM     13  N   LIG    1       23.044 -12.406   6.104  0.00  0.00    -0.049 NA
ATOM     14  O   LIG    1       24.188 -11.826   5.587  0.00  0.00    -0.242 OA
ATOM     15  C   LIG    1       22.090 -14.673   5.888  0.00  0.00    +0.033 A 
ATOM     16  C   LIG    1       22.372 -15.887   5.248  0.00  0.00    +0.003 A 
ATOM     17  N   LIG    1       24.916 -12.717   4.816  0.00  0.00    -0.049 NA
ATOM     18  C   LIG    1       23.510 -16.079   4.418  0.00  0.00    +0.007 A 
ENDBRANCH   2  10
BRANCH   1  19
ATOM     19  C   LIG    1       26.343 -13.010   2.302  0.00  0.00    +0.337 C 
ATOM     20  O   LIG    1       27.100 -12.120   1.989  0.00  0.00    -0.245 OA
BRANCH  19  22
ATOM     21  C   LIG    1       24.239 -12.026   1.822  0.00  0.00    +0.280 C 
ATOM     22  O   LIG    1       25.085 -13.175   1.812  0.00  0.00    -0.465 OA
ENDBRANCH  19  22
ENDBRANCH   1  19
BRANCH   3  23
ATOM     23  C   LIG    1       25.779 -17.943   3.088  0.00  0.00    +0.338 C 
ATOM     24  O   LIG    1       26.067 -18.523   2.061  0.00  0.00    -0.245 OA
BRANCH  23  25
ATOM     25  O   LIG    1       24.889 -18.380   4.012  0.00  0.00    -0.459 OA
BRANCH  25  26
ATOM     26  C   LIG    1       24.651 -19.793   4.106  0.00  0.00    +0.171 C 
ATOM     27  C   LIG    1       23.229 -20.030   4.592  0.00  0.00    +0.051 C 
ATOM     28  C   LIG    1       25.665 -20.319   5.112  0.00  0.00    +0.051 C 
ENDBRANCH  25  26
ENDBRANCH  23  25
ENDBRANCH   3  23
TORSDOF 6
ENDMDL
