MODEL 1
REMARK VINA RESULT:      14.4      0.000      0.000
REMARK  Name = *****
REMARK                            x       y       z     vdW  Elec       q    Type
REMARK                         _______ _______ _______ _____ _____    ______ ____
ROOT
ATOM      1  C   LIG    1       25.253 -14.098   2.388  0.00  0.00    +0.015 C 
ATOM      2  C   LIG    1       26.401 -13.656   3.961  0.00  0.00    +0.053 C 
ATOM      3  C   LIG    1       26.119 -13.062   5.393  0.00  0.00    +0.137 C 
ATOM      4  O   LIG    1       25.058 -12.583   5.784  0.00  0.00    -0.297 OA
ATOM      5  C   LIG    1       27.343 -12.745   6.157  0.00  0.00    +0.078 C 
ATOM      6  C   LIG    1       28.359 -13.383   5.259  0.00  0.00    +0.002 C 
ATOM      7  C   LIG    1       28.082 -15.079   5.555  0.00  0.00    +0.005 C 
ATOM      8  C   LIG    1       27.037 -15.935   4.601  0.00  0.00    +0.004 C 
ATOM      9  C   LIG    1       26.485 -15.510   2.987  0.00  0.00    -0.004 C 
ATOM     10  C   LIG    1       27.078 -13.560   2.208  0.00  0.00    -0.001 C 
ATOM     11  C   LIG    1       25.654 -12.161   2.157  0.00  0.00    +0.005 C 
ATOM     12  C   LIG    1       23.961 -12.568   3.067  0.00  0.00    +0.010 C 
ATOM     13  C   LIG    1       23.337 -14.395   3.371  0.00  0.00    -0.003 C 
ATOM     14  C   LIG    1       22.243 -14.651   2.313  0.00  0.00    +0.014 C 
ATOM     15  C   LIG    1       23.384 -14.794   4.907  0.00  0.00    +0.121 C 
ATOM     16  C   LIG    1       22.748 -16.139   4.994  0.00  0.00    +0.032 C 
ATOM     17  C   LIG    1       23.534 -16.930   3.901  0.00  0.00    +0.007 C 
ATOM     18  C   LIG    1       24.516 -15.932   3.037  0.00  0.00    +0.001 C 
ATOM     19  C   LIG    1       28.227 -12.861   3.540  0.00  0.00    -0.025 C 
ATOM     20  C   LIG    1       28.778 -11.533   3.178  0.00  0.00    +0.012 C 
ATOM     21  C   LIG    1       28.243 -14.215   3.347  0.00  0.00    +0.018 C 
ENDROOT
BRANCH  15  22
ATOM     22  O   LIG    1       22.976 -13.895   5.894  0.00  0.00    -0.391 OA
ATOM     23  H   LIG    1       23.353 -14.255   6.736  0.00  0.00    +0.210 HD
ENDBRANCH  15  22
TORSDOF 1
ENDMDL
MODEL 2
REMARK VINA RESULT:      16.3      1.350      4.992
REMARK  Name = *****
REMARK                            x       y       z     vdW  Elec       q    Type
REMARK                         _______ _______ _______ _____ _____    ______ ____
ROOT
ATOM      1  C   LIG    1       26.422 -14.517   2.815  0.00  0.00    +0.015 C 
ATOM      2  C   LIG    1       25.110 -13.861   4.170  0.00  0.00    +0.053 C 
ATOM      3  C   LIG    1       25.204 -13.492   5.699  0.00  0.00    +0.137 C 
ATOM      4  O   LIG    1       26.162 -13.700   6.438  0.00  0.00    -0.297 OA
ATOM      5  C   LIG    1       23.895 -13.217   6.326  0.00  0.00    +0.078 C 
ATOM      6  C   LIG    1       23.040 -13.189   5.096  0.00  0.00    +0.002 C 
ATOM      7  C   LIG    1       23.508 -11.674   4.371  0.00  0.00    +0.005 C 
ATOM      8  C   LIG    1       24.723 -11.622   3.251  0.00  0.00    +0.004 C 
ATOM      9  C   LIG    1       25.338 -12.961   2.291  0.00  0.00    -0.004 C 
ATOM     10  C   LIG    1       24.562 -14.951   2.738  0.00  0.00    -0.001 C 
ATOM     11  C   LIG    1       25.796 -16.179   3.716  0.00  0.00    +0.005 C 
ATOM     12  C   LIG    1       27.453 -15.404   4.435  0.00  0.00    +0.010 C 
ATOM     13  C   LIG    1       28.279 -13.799   3.687  0.00  0.00    -0.003 C 
ATOM     14  C   LIG    1       29.475 -14.291   2.843  0.00  0.00    +0.014 C 
ATOM     15  C   LIG    1       28.167 -12.556   4.668  0.00  0.00    +0.121 C 
ATOM     16  C   LIG    1       28.960 -11.467   4.033  0.00  0.00    +0.032 C 
ATOM     17  C   LIG    1       28.367 -11.447   2.589  0.00  0.00    +0.007 C 
ATOM     18  C   LIG    1       27.335 -12.706   2.353  0.00  0.00    +0.001 C 
ATOM     19  C   LIG    1       23.235 -14.644   4.052  0.00  0.00    -0.025 C 
ATOM     20  C   LIG    1       22.548 -15.890   4.470  0.00  0.00    +0.012 C 
ATOM     21  C   LIG    1       23.407 -13.679   3.099  0.00  0.00    +0.018 C 
ENDROOT
BRANCH  15  22
ATOM     22  O   LIG    1       28.380 -12.705   6.040  0.00  0.00    -0.391 OA
ATOM     23  H   LIG    1       28.693 -11.817   6.345  0.00  0.00    +0.210 HD
ENDBRANCH  15  22
TORSDOF 1
ENDMDL
