MODEL 1
REMARK VINA RESULT:      -7.4      0.000      0.000
REMARK  Name = *****
REMARK                            x       y       z     vdW  Elec       q    Type
REMARK                         _______ _______ _______ _____ _____    ______ ____
ROOT
ATOM      1  C   LIG    1       31.136 -20.447   8.596  0.00  0.00    +0.425 C 
ATOM      2  N   LIG    1       29.888 -20.677   8.365  0.00  0.00    -0.110 NA
ENDROOT
BRANCH   1   3
ATOM      3  N   LIG    1       31.826 -21.451   9.200  0.00  0.00    -0.286 N 
ATOM      4  H   LIG    1       31.901 -22.228   8.552  0.00  0.00    +0.255 HD
ATOM      5  H   LIG    1       31.390 -21.721  10.073  0.00  0.00    +0.255 HD
ENDBRANCH   1   3
BRANCH   1   7
ATOM      6  C   LIG    1       31.754 -18.294   9.186  0.00  0.00    +0.387 C 
ATOM      7  N   LIG    1       31.701 -19.236   8.320  0.00  0.00    -0.004 NA
BRANCH   6   8
ATOM      8  N   LIG    1       32.315 -17.104   8.859  0.00  0.00    -0.289 N 
ATOM      9  H   LIG    1       32.097 -16.409   9.567  0.00  0.00    +0.255 HD
ATOM     10  H   LIG    1       33.315 -17.168   8.713  0.00  0.00    +0.255 HD
ENDBRANCH   6   8
BRANCH   6  11
ATOM     11  N   LIG    1       31.317 -18.241  10.470  0.00  0.00    -0.289 N 
ATOM     12  H   LIG    1       30.355 -18.563  10.564  0.00  0.00    +0.255 HD
ATOM     13  H   LIG    1       31.934 -18.720  11.114  0.00  0.00    +0.255 HD
ENDBRANCH   6  11
ENDBRANCH   1   7
BRANCH   2  14
ATOM     14  C   LIG    1       29.096 -19.596   7.768  0.00  0.00    +0.248 C 
BRANCH  14  15
ATOM     15  C   LIG    1       28.428 -20.135   6.496  0.00  0.00    +0.076 C 
BRANCH  15  16
ATOM     16  C   LIG    1       26.939 -20.360   6.640  0.00  0.00    -0.044 A 
ATOM     17  C   LIG    1       26.365 -20.589   7.898  0.00  0.00    +0.003 A 
ATOM     18  C   LIG    1       24.992 -20.815   8.023  0.00  0.00    +0.000 A 
ATOM     19  C   LIG    1       24.180 -20.824   6.892  0.00  0.00    +0.000 A 
ATOM     20  C   LIG    1       24.740 -20.603   5.635  0.00  0.00    +0.000 A 
ATOM     21  C   LIG    1       26.111 -20.375   5.509  0.00  0.00    +0.003 A 
ENDBRANCH  15  16
ENDBRANCH  14  15
ENDBRANCH   2  14
TORSDOF 7
ENDMDL
MODEL 2
REMARK VINA RESULT:      -7.4      0.039      1.246
REMARK  Name = *****
REMARK                            x       y       z     vdW  Elec       q    Type
REMARK                         _______ _______ _______ _____ _____    ______ ____
ROOT
ATOM      1  C   LIG    1       31.151 -20.432   8.587  0.00  0.00    +0.425 C 
ATOM      2  N   LIG    1       29.903 -20.672   8.375  0.00  0.00    -0.110 NA
ENDROOT
BRANCH   1   3
ATOM      3  N   LIG    1       31.860 -21.430   9.179  0.00  0.00    -0.286 N 
ATOM      4  H   LIG    1       31.959 -22.193   8.518  0.00  0.00    +0.255 HD
ATOM      5  H   LIG    1       31.424 -21.726  10.043  0.00  0.00    +0.255 HD
ENDBRANCH   1   3
BRANCH   1   7
ATOM      6  C   LIG    1       31.770 -18.278   9.174  0.00  0.00    +0.387 C 
ATOM      7  N   LIG    1       31.701 -19.215   8.305  0.00  0.00    -0.004 NA
BRANCH   6   8
ATOM      8  N   LIG    1       32.314 -17.082   8.840  0.00  0.00    -0.289 N 
ATOM      9  H   LIG    1       32.470 -17.037   7.837  0.00  0.00    +0.255 HD
ATOM     10  H   LIG    1       31.758 -16.296   9.153  0.00  0.00    +0.255 HD
ENDBRANCH   6   8
BRANCH   6  11
ATOM     11  N   LIG    1       31.365 -18.235  10.469  0.00  0.00    -0.289 N 
ATOM     12  H   LIG    1       30.394 -18.523  10.580  0.00  0.00    +0.255 HD
ATOM     13  H   LIG    1       31.979 -18.750  11.089  0.00  0.00    +0.255 HD
ENDBRANCH   6  11
ENDBRANCH   1   7
BRANCH   2  14
ATOM     14  C   LIG    1       29.091 -19.598   7.792  0.00  0.00    +0.248 C 
BRANCH  14  15
ATOM     15  C   LIG    1       28.429 -20.134   6.515  0.00  0.00    +0.076 C 
BRANCH  15  16
ATOM     16  C   LIG    1       26.947 -20.392   6.662  0.00  0.00    -0.044 A 
ATOM     17  C   LIG    1       26.102 -20.393   5.543  0.00  0.00    +0.003 A 
ATOM     18  C   LIG    1       24.730 -20.614   5.686  0.00  0.00    +0.000 A 
ATOM     19  C   LIG    1       24.186 -20.827   6.950  0.00  0.00    +0.000 A 
ATOM     20  C   LIG    1       25.014 -20.824   8.071  0.00  0.00    +0.000 A 
ATOM     21  C   LIG    1       26.385 -20.605   7.929  0.00  0.00    +0.003 A 
ENDBRANCH  15  16
ENDBRANCH  14  15
ENDBRANCH   2  14
TORSDOF 7
ENDMDL
MODEL 3
REMARK VINA RESULT:      -7.1      2.002      3.167
REMARK  Name = *****
REMARK                            x       y       z     vdW  Elec       q    Type
REMARK                         _______ _______ _______ _____ _____    ______ ____
ROOT
ATOM      1  C   LIG    1       28.836 -20.964   7.481  0.00  0.00    +0.425 C 
ATOM      2  N   LIG    1       27.813 -21.121   8.250  0.00  0.00    -0.110 NA
ENDROOT
BRANCH   1   3
ATOM      3  N   LIG    1       29.969 -21.615   7.854  0.00  0.00    -0.286 N 
ATOM      4  H   LIG    1       30.369 -21.139   8.656  0.00  0.00    +0.255 HD
ATOM      5  H   LIG    1       30.623 -21.682   7.084  0.00  0.00    +0.255 HD
ENDBRANCH   1   3
BRANCH   1   7
ATOM      6  C   LIG    1       29.402 -19.000   6.390  0.00  0.00    +0.387 C 
ATOM      7  N   LIG    1       28.796 -20.128   6.403  0.00  0.00    -0.004 NA
BRANCH   6   8
ATOM      8  N   LIG    1       29.321 -18.200   5.300  0.00  0.00    -0.289 N 
ATOM      9  H   LIG    1       28.350 -17.981   5.097  0.00  0.00    +0.255 HD
ATOM     10  H   LIG    1       29.868 -17.352   5.393  0.00  0.00    +0.255 HD
ENDBRANCH   6   8
BRANCH   6  11
ATOM     11  N   LIG    1       30.166 -18.392   7.332  0.00  0.00    -0.289 N 
ATOM     12  H   LIG    1       29.924 -17.409   7.451  0.00  0.00    +0.255 HD
ATOM     13  H   LIG    1       30.165 -18.884   8.218  0.00  0.00    +0.255 HD
ENDBRANCH   6  11
ENDBRANCH   1   7
BRANCH   2  14
ATOM     14  C   LIG    1       26.588 -20.388   7.913  0.00  0.00    +0.248 C 
BRANCH  14  15
ATOM     15  C   LIG    1       25.630 -21.352   7.200  0.00  0.00    +0.076 C 
BRANCH  15  16
ATOM     16  C   LIG    1       24.804 -20.697   6.116  0.00  0.00    -0.044 A 
ATOM     17  C   LIG    1       25.394 -20.281   4.914  0.00  0.00    +0.003 A 
ATOM     18  C   LIG    1       24.629 -19.659   3.924  0.00  0.00    +0.000 A 
ATOM     19  C   LIG    1       23.269 -19.439   4.127  0.00  0.00    +0.000 A 
ATOM     20  C   LIG    1       22.672 -19.843   5.320  0.00  0.00    +0.000 A 
ATOM     21  C   LIG    1       23.435 -20.466   6.310  0.00  0.00    +0.003 A 
ENDBRANCH  15  16
ENDBRANCH  14  15
ENDBRANCH   2  14
TORSDOF 7
ENDMDL
MODEL 4
REMARK VINA RESULT:      -7.1      2.298      3.211
REMARK  Name = *****
REMARK                            x       y       z     vdW  Elec       q    Type
REMARK                         _______ _______ _______ _____ _____    ______ ____
ROOT
ATOM      1  C   LIG    1       29.244 -20.976   7.634  0.00  0.00    +0.425 C 
ATOM      2  N   LIG    1       28.125 -21.189   8.237  0.00  0.00    -0.110 NA
ENDROOT
BRANCH   1   3
ATOM      3  N   LIG    1       30.352 -21.490   8.231  0.00  0.00    -0.286 N 
ATOM      4  H   LIG    1       30.710 -20.809   8.892  0.00  0.00    +0.255 HD
ATOM      5  H   LIG    1       31.046 -21.759   7.544  0.00  0.00    +0.255 HD
ENDBRANCH   1   3
BRANCH   1   7
ATOM      6  C   LIG    1       29.691 -18.987   6.532  0.00  0.00    +0.387 C 
ATOM      7  N   LIG    1       29.312 -20.210   6.506  0.00  0.00    -0.004 NA
BRANCH   6   8
ATOM      8  N   LIG    1       29.729 -18.265   5.386  0.00  0.00    -0.289 N 
ATOM      9  H   LIG    1       28.792 -17.968   5.128  0.00  0.00    +0.255 HD
ATOM     10  H   LIG    1       30.354 -17.471   5.443  0.00  0.00    +0.255 HD
ENDBRANCH   6   8
BRANCH   6  11
ATOM     11  N   LIG    1       30.087 -18.202   7.566  0.00  0.00    -0.289 N 
ATOM     12  H   LIG    1       29.349 -17.572   7.878  0.00  0.00    +0.255 HD
ATOM     13  H   LIG    1       30.473 -18.733   8.337  0.00  0.00    +0.255 HD
ENDBRANCH   6  11
ENDBRANCH   1   7
BRANCH   2  14
ATOM     14  C   LIG    1       26.914 -20.599   7.655  0.00  0.00    +0.248 C 
BRANCH  14  15
ATOM     15  C   LIG    1       25.699 -21.143   8.420  0.00  0.00    +0.076 C 
BRANCH  15  16
ATOM     16  C   LIG    1       24.999 -22.284   7.716  0.00  0.00    -0.044 A 
ATOM     17  C   LIG    1       23.629 -22.218   7.427  0.00  0.00    +0.003 A 
ATOM     18  C   LIG    1       22.983 -23.283   6.794  0.00  0.00    +0.000 A 
ATOM     19  C   LIG    1       23.698 -24.428   6.450  0.00  0.00    +0.000 A 
ATOM     20  C   LIG    1       25.059 -24.508   6.737  0.00  0.00    +0.000 A 
ATOM     21  C   LIG    1       25.706 -23.444   7.368  0.00  0.00    +0.003 A 
ENDBRANCH  15  16
ENDBRANCH  14  15
ENDBRANCH   2  14
TORSDOF 7
ENDMDL
MODEL 5
REMARK VINA RESULT:      -7.1      2.019      3.242
REMARK  Name = *****
REMARK                            x       y       z     vdW  Elec       q    Type
REMARK                         _______ _______ _______ _____ _____    ______ ____
ROOT
ATOM      1  C   LIG    1       29.196 -19.919   7.493  0.00  0.00    +0.425 C 
ATOM      2  N   LIG    1       27.914 -19.961   7.623  0.00  0.00    -0.110 NA
ENDROOT
BRANCH   1   3
ATOM      3  N   LIG    1       29.709 -18.759   7.004  0.00  0.00    -0.286 N 
ATOM      4  H   LIG    1       29.337 -17.986   7.546  0.00  0.00    +0.255 HD
ATOM      5  H   LIG    1       29.515 -18.661   6.015  0.00  0.00    +0.255 HD
ENDBRANCH   1   3
BRANCH   1   7
ATOM      6  C   LIG    1       30.998 -20.946   8.525  0.00  0.00    +0.387 C 
ATOM      7  N   LIG    1       29.976 -21.008   7.756  0.00  0.00    -0.004 NA
BRANCH   6   8
ATOM      8  N   LIG    1       31.747 -22.054   8.745  0.00  0.00    -0.289 N 
ATOM      9  H   LIG    1       31.177 -22.888   8.641  0.00  0.00    +0.255 HD
ATOM     10  H   LIG    1       32.564 -22.100   8.149  0.00  0.00    +0.255 HD
ENDBRANCH   6   8
BRANCH   6  11
ATOM     11  N   LIG    1       31.530 -19.905   9.214  0.00  0.00    -0.289 N 
ATOM     12  H   LIG    1       30.984 -19.670  10.041  0.00  0.00    +0.255 HD
ATOM     13  H   LIG    1       32.507 -20.044   9.441  0.00  0.00    +0.255 HD
ENDBRANCH   6  11
ENDBRANCH   1   7
BRANCH   2  14
ATOM     14  C   LIG    1       27.318 -21.217   8.092  0.00  0.00    +0.248 C 
BRANCH  14  15
ATOM     15  C   LIG    1       25.796 -21.030   8.161  0.00  0.00    +0.076 C 
BRANCH  15  16
ATOM     16  C   LIG    1       25.015 -22.188   7.581  0.00  0.00    -0.044 A 
ATOM     17  C   LIG    1       23.632 -22.090   7.372  0.00  0.00    +0.003 A 
ATOM     18  C   LIG    1       22.912 -23.169   6.854  0.00  0.00    +0.000 A 
ATOM     19  C   LIG    1       23.565 -24.360   6.545  0.00  0.00    +0.000 A 
ATOM     20  C   LIG    1       24.938 -24.472   6.753  0.00  0.00    +0.000 A 
ATOM     21  C   LIG    1       25.659 -23.394   7.269  0.00  0.00    +0.003 A 
ENDBRANCH  15  16
ENDBRANCH  14  15
ENDBRANCH   2  14
TORSDOF 7
ENDMDL
MODEL 6
REMARK VINA RESULT:      -7.0      2.084      2.837
REMARK  Name = *****
REMARK                            x       y       z     vdW  Elec       q    Type
REMARK                         _______ _______ _______ _____ _____    ______ ____
ROOT
ATOM      1  C   LIG    1       29.268 -19.118   5.921  0.00  0.00    +0.425 C 
ATOM      2  N   LIG    1       28.166 -19.770   6.071  0.00  0.00    -0.110 NA
ENDROOT
BRANCH   1   3
ATOM      3  N   LIG    1       29.252 -18.122   4.995  0.00  0.00    -0.286 N 
ATOM      4  H   LIG    1       28.683 -18.419   4.209  0.00  0.00    +0.255 HD
ATOM      5  H   LIG    1       30.190 -17.869   4.713  0.00  0.00    +0.255 HD
ENDBRANCH   1   3
BRANCH   1   7
ATOM      6  C   LIG    1       30.715 -18.936   7.721  0.00  0.00    +0.387 C 
ATOM      7  N   LIG    1       30.401 -19.465   6.599  0.00  0.00    -0.004 NA
BRANCH   6   8
ATOM      8  N   LIG    1       31.857 -19.307   8.349  0.00  0.00    -0.289 N 
ATOM      9  H   LIG    1       32.155 -18.578   8.992  0.00  0.00    +0.255 HD
ATOM     10  H   LIG    1       31.772 -20.195   8.828  0.00  0.00    +0.255 HD
ENDBRANCH   6   8
BRANCH   6  11
ATOM     11  N   LIG    1       30.084 -17.993   8.466  0.00  0.00    -0.289 N 
ATOM     12  H   LIG    1       30.321 -18.059   9.455  0.00  0.00    +0.255 HD
ATOM     13  H   LIG    1       30.225 -17.054   8.112  0.00  0.00    +0.255 HD
ENDBRANCH   6  11
ENDBRANCH   1   7
BRANCH   2  14
ATOM     14  C   LIG    1       28.161 -20.890   7.019  0.00  0.00    +0.248 C 
BRANCH  14  15
ATOM     15  C   LIG    1       26.974 -20.706   7.974  0.00  0.00    +0.076 C 
BRANCH  15  16
ATOM     16  C   LIG    1       25.761 -21.528   7.601  0.00  0.00    -0.044 A 
ATOM     17  C   LIG    1       25.888 -22.881   7.254  0.00  0.00    +0.003 A 
ATOM     18  C   LIG    1       24.766 -23.631   6.891  0.00  0.00    +0.000 A 
ATOM     19  C   LIG    1       23.508 -23.036   6.864  0.00  0.00    +0.000 A 
ATOM     20  C   LIG    1       23.369 -21.691   7.201  0.00  0.00    +0.000 A 
ATOM     21  C   LIG    1       24.489 -20.941   7.566  0.00  0.00    +0.003 A 
ENDBRANCH  15  16
ENDBRANCH  14  15
ENDBRANCH   2  14
TORSDOF 7
ENDMDL
MODEL 7
REMARK VINA RESULT:      -6.9      1.198      1.849
REMARK  Name = *****
REMARK                            x       y       z     vdW  Elec       q    Type
REMARK                         _______ _______ _______ _____ _____    ______ ____
ROOT
ATOM      1  C   LIG    1       29.845 -20.808   8.064  0.00  0.00    +0.425 C 
ATOM      2  N   LIG    1       29.005 -21.209   7.173  0.00  0.00    -0.110 NA
ENDROOT
BRANCH   1   3
ATOM      3  N   LIG    1       30.783 -21.712   8.452  0.00  0.00    -0.286 N 
ATOM      4  H   LIG    1       31.185 -21.406   9.331  0.00  0.00    +0.255 HD
ATOM      5  H   LIG    1       31.485 -21.842   7.734  0.00  0.00    +0.255 HD
ENDBRANCH   1   3
BRANCH   1   7
ATOM      6  C   LIG    1       30.671 -18.697   8.544  0.00  0.00    +0.387 C 
ATOM      7  N   LIG    1       29.742 -19.573   8.636  0.00  0.00    -0.004 NA
BRANCH   6   8
ATOM      8  N   LIG    1       30.526 -17.489   9.141  0.00  0.00    -0.289 N 
ATOM      9  H   LIG    1       30.457 -16.758   8.438  0.00  0.00    +0.255 HD
ATOM     10  H   LIG    1       29.735 -17.456   9.773  0.00  0.00    +0.255 HD
ENDBRANCH   6   8
BRANCH   6  11
ATOM     11  N   LIG    1       31.878 -18.744   7.924  0.00  0.00    -0.289 N 
ATOM     12  H   LIG    1       32.100 -19.677   7.580  0.00  0.00    +0.255 HD
ATOM     13  H   LIG    1       31.972 -18.047   7.196  0.00  0.00    +0.255 HD
ENDBRANCH   6  11
ENDBRANCH   1   7
BRANCH   2  14
ATOM     14  C   LIG    1       27.942 -20.282   6.771  0.00  0.00    +0.248 C 
BRANCH  14  15
ATOM     15  C   LIG    1       26.650 -20.688   7.494  0.00  0.00    +0.076 C 
BRANCH  15  16
ATOM     16  C   LIG    1       25.417 -20.616   6.622  0.00  0.00    -0.044 A 
ATOM     17  C   LIG    1       24.137 -20.781   7.170  0.00  0.00    +0.003 A 
ATOM     18  C   LIG    1       23.003 -20.733   6.356  0.00  0.00    +0.000 A 
ATOM     19  C   LIG    1       23.135 -20.528   4.985  0.00  0.00    +0.000 A 
ATOM     20  C   LIG    1       24.402 -20.367   4.427  0.00  0.00    +0.000 A 
ATOM     21  C   LIG    1       25.536 -20.413   5.239  0.00  0.00    +0.003 A 
ENDBRANCH  15  16
ENDBRANCH  14  15
ENDBRANCH   2  14
TORSDOF 7
ENDMDL
MODEL 8
REMARK VINA RESULT:      -6.7      6.249      8.414
REMARK  Name = *****
REMARK                            x       y       z     vdW  Elec       q    Type
REMARK                         _______ _______ _______ _____ _____    ______ ____
ROOT
ATOM      1  C   LIG    1       26.039 -26.983   4.972  0.00  0.00    +0.425 C 
ATOM      2  N   LIG    1       25.856 -25.712   5.084  0.00  0.00    -0.110 NA
ENDROOT
BRANCH   1   3
ATOM      3  N   LIG    1       27.332 -27.398   4.917  0.00  0.00    -0.286 N 
ATOM      4  H   LIG    1       27.352 -28.354   4.579  0.00  0.00    +0.255 HD
ATOM      5  H   LIG    1       27.786 -27.301   5.817  0.00  0.00    +0.255 HD
ENDBRANCH   1   3
BRANCH   1   7
ATOM      6  C   LIG    1       24.706 -28.721   5.728  0.00  0.00    +0.387 C 
ATOM      7  N   LIG    1       24.990 -27.846   4.838  0.00  0.00    -0.004 NA
BRANCH   6   8
ATOM      8  N   LIG    1       23.661 -29.563   5.542  0.00  0.00    -0.289 N 
ATOM      9  H   LIG    1       22.792 -29.038   5.500  0.00  0.00    +0.255 HD
ATOM     10  H   LIG    1       23.767 -30.147   4.721  0.00  0.00    +0.255 HD
ENDBRANCH   6   8
BRANCH   6  11
ATOM     11  N   LIG    1       25.298 -29.004   6.916  0.00  0.00    -0.289 N 
ATOM     12  H   LIG    1       25.049 -28.333   7.641  0.00  0.00    +0.255 HD
ATOM     13  H   LIG    1       25.134 -29.956   7.219  0.00  0.00    +0.255 HD
ENDBRANCH   6  11
ENDBRANCH   1   7
BRANCH   2  14
ATOM     14  C   LIG    1       24.474 -25.221   5.087  0.00  0.00    +0.248 C 
BRANCH  14  15
ATOM     15  C   LIG    1       24.081 -24.898   6.536  0.00  0.00    +0.076 C 
BRANCH  15  16
ATOM     16  C   LIG    1       24.285 -23.448   6.912  0.00  0.00    -0.044 A 
ATOM     17  C   LIG    1       25.521 -22.997   7.395  0.00  0.00    +0.003 A 
ATOM     18  C   LIG    1       25.698 -21.660   7.759  0.00  0.00    +0.000 A 
ATOM     19  C   LIG    1       24.640 -20.761   7.652  0.00  0.00    +0.000 A 
ATOM     20  C   LIG    1       23.405 -21.198   7.178  0.00  0.00    +0.000 A 
ATOM     21  C   LIG    1       23.227 -22.533   6.812  0.00  0.00    +0.003 A 
ENDBRANCH  15  16
ENDBRANCH  14  15
ENDBRANCH   2  14
TORSDOF 7
ENDMDL
MODEL 9
REMARK VINA RESULT:      -6.7      5.588      6.989
REMARK  Name = *****
REMARK                            x       y       z     vdW  Elec       q    Type
REMARK                         _______ _______ _______ _____ _____    ______ ____
ROOT
ATOM      1  C   LIG    1       25.139 -24.779   5.612  0.00  0.00    +0.425 C 
ATOM      2  N   LIG    1       25.203 -23.505   5.798  0.00  0.00    -0.110 NA
ENDROOT
BRANCH   1   3
ATOM      3  N   LIG    1       24.838 -25.185   4.350  0.00  0.00    -0.286 N 
ATOM      4  H   LIG    1       24.025 -24.670   4.029  0.00  0.00    +0.255 HD
ATOM      5  H   LIG    1       24.696 -26.186   4.312  0.00  0.00    +0.255 HD
ENDBRANCH   1   3
BRANCH   1   7
ATOM      6  C   LIG    1       26.137 -26.615   6.612  0.00  0.00    +0.387 C 
ATOM      7  N   LIG    1       25.287 -25.659   6.645  0.00  0.00    -0.004 NA
BRANCH   6   8
ATOM      8  N   LIG    1       26.238 -27.470   7.659  0.00  0.00    -0.289 N 
ATOM      9  H   LIG    1       27.161 -27.403   8.078  0.00  0.00    +0.255 HD
ATOM     10  H   LIG    1       25.517 -27.325   8.355  0.00  0.00    +0.255 HD
ENDBRANCH   6   8
BRANCH   6  11
ATOM     11  N   LIG    1       27.026 -26.981   5.654  0.00  0.00    -0.289 N 
ATOM     12  H   LIG    1       27.719 -27.643   6.001  0.00  0.00    +0.255 HD
ATOM     13  H   LIG    1       26.578 -27.320   4.811  0.00  0.00    +0.255 HD
ENDBRANCH   6  11
ENDBRANCH   1   7
BRANCH   2  14
ATOM     14  C   LIG    1       25.468 -23.027   7.159  0.00  0.00    +0.248 C 
BRANCH  14  15
ATOM     15  C   LIG    1       25.728 -21.516   7.097  0.00  0.00    +0.076 C 
BRANCH  15  16
ATOM     16  C   LIG    1       24.848 -20.788   6.106  0.00  0.00    -0.044 A 
ATOM     17  C   LIG    1       25.371 -20.307   4.897  0.00  0.00    +0.003 A 
ATOM     18  C   LIG    1       24.558 -19.619   3.994  0.00  0.00    +0.000 A 
ATOM     19  C   LIG    1       23.215 -19.397   4.291  0.00  0.00    +0.000 A 
ATOM     20  C   LIG    1       22.684 -19.866   5.491  0.00  0.00    +0.000 A 
ATOM     21  C   LIG    1       23.496 -20.555   6.394  0.00  0.00    +0.003 A 
ENDBRANCH  15  16
ENDBRANCH  14  15
ENDBRANCH   2  14
TORSDOF 7
ENDMDL
