MODEL 1
REMARK VINA RESULT:      -4.5      0.000      0.000
REMARK  Name = *****
REMARK                            x       y       z     vdW  Elec       q    Type
REMARK                         _______ _______ _______ _____ _____    ______ ____
ROOT
ATOM      1  C   LIG    1       24.605 -16.949   3.673  0.00  0.00    +0.121 A 
ATOM      2  C   LIG    1       25.606 -16.041   3.340  0.00  0.00    +0.055 A 
ATOM      3  C   LIG    1       25.486 -14.670   3.568  0.00  0.00    +0.027 A 
ATOM      4  C   LIG    1       24.302 -14.190   4.145  0.00  0.00    +0.126 A 
ATOM      5  C   LIG    1       23.279 -15.090   4.477  0.00  0.00    +0.049 A 
ATOM      6  C   LIG    1       23.425 -16.468   4.250  0.00  0.00    +0.049 A 
ENDROOT
BRANCH   1   8
ATOM      7  C   LIG    1       23.530 -19.044   3.789  0.00  0.00    +0.277 C 
ATOM      8  O   LIG    1       24.710 -18.301   3.467  0.00  0.00    -0.495 OA
ENDBRANCH   1   8
BRANCH   4   9
ATOM      9  O   LIG    1       24.249 -12.837   4.343  0.00  0.00    -0.495 OA
ATOM     10  C   LIG    1       23.827 -12.038   3.247  0.00  0.00    +0.277 C 
ENDBRANCH   4   9
BRANCH   3  11
ATOM     11  C   LIG    1       26.638 -13.759   3.194  0.00  0.00    +0.165 C 
BRANCH  11  12
ATOM     12  O   LIG    1       27.202 -14.162   1.933  0.00  0.00    -0.386 OA
ATOM     13  H   LIG    1       27.372 -13.321   1.472  0.00  0.00    +0.210 HD
ENDBRANCH  11  12
BRANCH  11  14
ATOM     14  C   LIG    1       27.769 -13.693   4.263  0.00  0.00    +0.081 C 
ATOM     15  C   LIG    1       28.942 -12.774   3.889  0.00  0.00    +0.027 C 
BRANCH  14  16
ATOM     16  N   LIG    1       27.209 -13.194   5.543  0.00  0.00    -0.325 NA
ATOM     17  H   LIG    1       27.846 -13.462   6.296  0.00  0.00    +0.118 HD
ATOM     18  H   LIG    1       27.226 -12.173   5.537  0.00  0.00    +0.118 HD
ENDBRANCH  14  16
ENDBRANCH  11  14
ENDBRANCH   3  11
TORSDOF 6
ENDMDL
MODEL 2
REMARK VINA RESULT:      -3.9      3.892      7.080
REMARK  Name = *****
REMARK                            x       y       z     vdW  Elec       q    Type
REMARK                         _______ _______ _______ _____ _____    ______ ____
ROOT
ATOM      1  C   LIG    1       26.178 -17.997   3.647  0.00  0.00    +0.121 A 
ATOM      2  C   LIG    1       25.174 -18.961   3.670  0.00  0.00    +0.055 A 
ATOM      3  C   LIG    1       25.258 -20.119   4.443  0.00  0.00    +0.027 A 
ATOM      4  C   LIG    1       26.408 -20.322   5.219  0.00  0.00    +0.126 A 
ATOM      5  C   LIG    1       27.435 -19.366   5.199  0.00  0.00    +0.049 A 
ATOM      6  C   LIG    1       27.324 -18.202   4.423  0.00  0.00    +0.049 A 
ENDROOT
BRANCH   1   8
ATOM      7  C   LIG    1       26.755 -15.717   3.494  0.00  0.00    +0.277 C 
ATOM      8  O   LIG    1       26.107 -16.848   2.902  0.00  0.00    -0.495 OA
ENDBRANCH   1   8
BRANCH   4   9
ATOM      9  O   LIG    1       26.427 -21.477   5.954  0.00  0.00    -0.495 OA
ATOM     10  C   LIG    1       27.315 -21.525   7.062  0.00  0.00    +0.277 C 
ENDBRANCH   4   9
BRANCH   3  11
ATOM     11  C   LIG    1       24.105 -21.103   4.422  0.00  0.00    +0.165 C 
BRANCH  11  12
ATOM     12  O   LIG    1       23.800 -21.484   3.069  0.00  0.00    -0.386 OA
ATOM     13  H   LIG    1       24.361 -20.900   2.528  0.00  0.00    +0.210 HD
ENDBRANCH  11  12
BRANCH  11  14
ATOM     14  C   LIG    1       22.810 -20.577   5.110  0.00  0.00    +0.081 C 
ATOM     15  C   LIG    1       22.339 -19.204   4.608  0.00  0.00    +0.027 C 
BRANCH  14  16
ATOM     16  N   LIG    1       21.703 -21.536   4.874  0.00  0.00    -0.325 NA
ATOM     17  H   LIG    1       20.853 -21.002   4.682  0.00  0.00    +0.118 HD
ATOM     18  H   LIG    1       21.888 -22.052   4.012  0.00  0.00    +0.118 HD
ENDBRANCH  14  16
ENDBRANCH  11  14
ENDBRANCH   3  11
TORSDOF 6
ENDMDL
MODEL 3
REMARK VINA RESULT:      -3.8      4.962      6.997
REMARK  Name = *****
REMARK                            x       y       z     vdW  Elec       q    Type
REMARK                         _______ _______ _______ _____ _____    ______ ____
ROOT
ATOM      1  C   LIG    1       27.619 -19.986   5.652  0.00  0.00    +0.121 A 
ATOM      2  C   LIG    1       26.608 -19.646   4.756  0.00  0.00    +0.055 A 
ATOM      3  C   LIG    1       25.320 -20.173   4.838  0.00  0.00    +0.027 A 
ATOM      4  C   LIG    1       25.039 -21.093   5.858  0.00  0.00    +0.126 A 
ATOM      5  C   LIG    1       26.048 -21.454   6.763  0.00  0.00    +0.049 A 
ATOM      6  C   LIG    1       27.335 -20.902   6.670  0.00  0.00    +0.049 A 
ENDROOT
BRANCH   1   8
ATOM      7  C   LIG    1       29.438 -19.102   6.862  0.00  0.00    +0.277 C 
ATOM      8  O   LIG    1       28.888 -19.468   5.593  0.00  0.00    -0.495 OA
ENDBRANCH   1   8
BRANCH   4   9
ATOM      9  O   LIG    1       23.756 -21.571   5.883  0.00  0.00    -0.495 OA
ATOM     10  C   LIG    1       22.999 -21.334   7.061  0.00  0.00    +0.277 C 
ENDBRANCH   4   9
BRANCH   3  11
ATOM     11  C   LIG    1       24.278 -19.728   3.832  0.00  0.00    +0.165 C 
BRANCH  11  12
ATOM     12  O   LIG    1       24.806 -18.684   2.996  0.00  0.00    -0.386 OA
ATOM     13  H   LIG    1       25.436 -18.217   3.573  0.00  0.00    +0.210 HD
ENDBRANCH  11  12
BRANCH  11  14
ATOM     14  C   LIG    1       22.943 -19.243   4.474  0.00  0.00    +0.081 C 
ATOM     15  C   LIG    1       22.466 -17.869   3.980  0.00  0.00    +0.027 C 
BRANCH  14  16
ATOM     16  N   LIG    1       21.867 -20.219   4.170  0.00  0.00    -0.325 NA
ATOM     17  H   LIG    1       21.459 -20.528   5.054  0.00  0.00    +0.118 HD
ATOM     18  H   LIG    1       21.109 -19.737   3.686  0.00  0.00    +0.118 HD
ENDBRANCH  14  16
ENDBRANCH  11  14
ENDBRANCH   3  11
TORSDOF 6
ENDMDL
MODEL 4
REMARK VINA RESULT:      -3.4      2.741      4.263
REMARK  Name = *****
REMARK                            x       y       z     vdW  Elec       q    Type
REMARK                         _______ _______ _______ _____ _____    ______ ____
ROOT
ATOM      1  C   LIG    1       24.886 -18.986   3.767  0.00  0.00    +0.121 A 
ATOM      2  C   LIG    1       25.430 -17.741   3.459  0.00  0.00    +0.055 A 
ATOM      3  C   LIG    1       26.729 -17.379   3.812  0.00  0.00    +0.027 A 
ATOM      4  C   LIG    1       27.512 -18.304   4.517  0.00  0.00    +0.126 A 
ATOM      5  C   LIG    1       26.976 -19.558   4.845  0.00  0.00    +0.049 A 
ATOM      6  C   LIG    1       25.670 -19.907   4.469  0.00  0.00    +0.049 A 
ENDROOT
BRANCH   1   8
ATOM      7  C   LIG    1       22.656 -19.269   4.476  0.00  0.00    +0.277 C 
ATOM      8  O   LIG    1       23.614 -19.363   3.417  0.00  0.00    -0.495 OA
ENDBRANCH   1   8
BRANCH   4   9
ATOM      9  O   LIG    1       28.777 -17.886   4.832  0.00  0.00    -0.495 OA
ATOM     10  C   LIG    1       29.475 -18.624   5.825  0.00  0.00    +0.277 C 
ENDBRANCH   4   9
BRANCH   3  11
ATOM     11  C   LIG    1       27.245 -16.010   3.415  0.00  0.00    +0.165 C 
BRANCH  11  12
ATOM     12  O   LIG    1       28.057 -15.460   4.467  0.00  0.00    -0.386 OA
ATOM     13  H   LIG    1       27.611 -14.626   4.697  0.00  0.00    +0.210 HD
ENDBRANCH  11  12
BRANCH  11  14
ATOM     14  C   LIG    1       26.125 -14.992   3.047  0.00  0.00    +0.081 C 
ATOM     15  C   LIG    1       25.670 -14.103   4.214  0.00  0.00    +0.027 C 
BRANCH  14  16
ATOM     16  N   LIG    1       26.610 -14.093   1.971  0.00  0.00    -0.325 NA
ATOM     17  H   LIG    1       26.047 -13.240   1.990  0.00  0.00    +0.118 HD
ATOM     18  H   LIG    1       27.557 -13.786   2.197  0.00  0.00    +0.118 HD
ENDBRANCH  14  16
ENDBRANCH  11  14
ENDBRANCH   3  11
TORSDOF 6
ENDMDL
MODEL 5
REMARK VINA RESULT:      -3.3      2.629      5.448
REMARK  Name = *****
REMARK                            x       y       z     vdW  Elec       q    Type
REMARK                         _______ _______ _______ _____ _____    ______ ____
ROOT
ATOM      1  C   LIG    1       25.892 -15.821   3.302  0.00  0.00    +0.121 A 
ATOM      2  C   LIG    1       26.076 -17.202   3.311  0.00  0.00    +0.055 A 
ATOM      3  C   LIG    1       25.070 -18.094   3.680  0.00  0.00    +0.027 A 
ATOM      4  C   LIG    1       23.827 -17.574   4.068  0.00  0.00    +0.126 A 
ATOM      5  C   LIG    1       23.627 -16.186   4.075  0.00  0.00    +0.049 A 
ATOM      6  C   LIG    1       24.650 -15.306   3.689  0.00  0.00    +0.049 A 
ENDROOT
BRANCH   1   8
ATOM      7  C   LIG    1       26.379 -13.635   2.568  0.00  0.00    +0.277 C 
ATOM      8  O   LIG    1       26.867 -14.931   2.931  0.00  0.00    -0.495 OA
ENDBRANCH   1   8
BRANCH   4   9
ATOM      9  O   LIG    1       22.883 -18.503   4.417  0.00  0.00    -0.495 OA
ATOM     10  C   LIG    1       21.536 -18.223   4.062  0.00  0.00    +0.277 C 
ENDBRANCH   4   9
BRANCH   3  11
ATOM     11  C   LIG    1       25.354 -19.582   3.638  0.00  0.00    +0.165 C 
BRANCH  11  12
ATOM     12  O   LIG    1       24.276 -20.276   2.986  0.00  0.00    -0.386 OA
ATOM     13  H   LIG    1       24.104 -21.041   3.564  0.00  0.00    +0.210 HD
ENDBRANCH  11  12
BRANCH  11  14
ATOM     14  C   LIG    1       25.600 -20.220   5.038  0.00  0.00    +0.081 C 
ATOM     15  C   LIG    1       24.898 -21.570   5.251  0.00  0.00    +0.027 C 
BRANCH  14  16
ATOM     16  N   LIG    1       27.054 -20.445   5.228  0.00  0.00    -0.325 NA
ATOM     17  H   LIG    1       27.336 -21.228   4.635  0.00  0.00    +0.118 HD
ATOM     18  H   LIG    1       27.565 -19.641   4.861  0.00  0.00    +0.118 HD
ENDBRANCH  14  16
ENDBRANCH  11  14
ENDBRANCH   3  11
TORSDOF 6
ENDMDL
MODEL 6
REMARK VINA RESULT:      -3.1      3.768      6.415
REMARK  Name = *****
REMARK                            x       y       z     vdW  Elec       q    Type
REMARK                         _______ _______ _______ _____ _____    ______ ____
ROOT
ATOM      1  C   LIG    1       25.592 -18.212   3.567  0.00  0.00    +0.121 A 
ATOM      2  C   LIG    1       26.334 -19.026   4.420  0.00  0.00    +0.055 A 
ATOM      3  C   LIG    1       25.794 -20.148   5.048  0.00  0.00    +0.027 A 
ATOM      4  C   LIG    1       24.446 -20.458   4.819  0.00  0.00    +0.126 A 
ATOM      5  C   LIG    1       23.682 -19.643   3.972  0.00  0.00    +0.049 A 
ATOM      6  C   LIG    1       24.248 -18.525   3.340  0.00  0.00    +0.049 A 
ENDROOT
BRANCH   1   8
ATOM      7  C   LIG    1       25.606 -15.860   3.411  0.00  0.00    +0.277 C 
ATOM      8  O   LIG    1       26.109 -17.112   2.932  0.00  0.00    -0.495 OA
ENDBRANCH   1   8
BRANCH   4   9
ATOM      9  O   LIG    1       23.979 -21.572   5.464  0.00  0.00    -0.495 OA
ATOM     10  C   LIG    1       22.866 -21.401   6.329  0.00  0.00    +0.277 C 
ENDBRANCH   4   9
BRANCH   3  11
ATOM     11  C   LIG    1       26.683 -20.989   5.942  0.00  0.00    +0.165 C 
BRANCH  11  12
ATOM     12  O   LIG    1       25.931 -21.490   7.062  0.00  0.00    -0.386 OA
ATOM     13  H   LIG    1       25.361 -20.743   7.316  0.00  0.00    +0.210 HD
ENDBRANCH  11  12
BRANCH  11  14
ATOM     14  C   LIG    1       27.945 -20.241   6.467  0.00  0.00    +0.081 C 
ATOM     15  C   LIG    1       29.024 -21.159   7.061  0.00  0.00    +0.027 C 
BRANCH  14  16
ATOM     16  N   LIG    1       28.572 -19.490   5.352  0.00  0.00    -0.325 NA
ATOM     17  H   LIG    1       29.578 -19.451   5.520  0.00  0.00    +0.118 HD
ATOM     18  H   LIG    1       28.470 -20.028   4.491  0.00  0.00    +0.118 HD
ENDBRANCH  14  16
ENDBRANCH  11  14
ENDBRANCH   3  11
TORSDOF 6
ENDMDL
MODEL 7
REMARK VINA RESULT:      -3.0      1.968      3.269
REMARK  Name = *****
REMARK                            x       y       z     vdW  Elec       q    Type
REMARK                         _______ _______ _______ _____ _____    ______ ____
ROOT
ATOM      1  C   LIG    1       26.191 -16.866   3.415  0.00  0.00    +0.121 A 
ATOM      2  C   LIG    1       25.495 -15.772   2.905  0.00  0.00    +0.055 A 
ATOM      3  C   LIG    1       25.979 -14.467   2.988  0.00  0.00    +0.027 A 
ATOM      4  C   LIG    1       27.211 -14.250   3.622  0.00  0.00    +0.126 A 
ATOM      5  C   LIG    1       27.920 -15.340   4.150  0.00  0.00    +0.049 A 
ATOM      6  C   LIG    1       27.420 -16.647   4.046  0.00  0.00    +0.049 A 
ENDROOT
BRANCH   1   8
ATOM      7  C   LIG    1       24.364 -18.327   3.706  0.00  0.00    +0.277 C 
ATOM      8  O   LIG    1       25.735 -18.157   3.332  0.00  0.00    -0.495 OA
ENDBRANCH   1   8
BRANCH   4   9
ATOM      9  O   LIG    1       27.629 -12.947   3.669  0.00  0.00    -0.495 OA
ATOM     10  C   LIG    1       28.993 -12.715   3.989  0.00  0.00    +0.277 C 
ENDBRANCH   4   9
BRANCH   3  11
ATOM     11  C   LIG    1       25.164 -13.340   2.386  0.00  0.00    +0.165 C 
BRANCH  11  12
ATOM     12  O   LIG    1       26.020 -12.239   2.034  0.00  0.00    -0.386 OA
ATOM     13  H   LIG    1       25.407 -11.492   1.916  0.00  0.00    +0.210 HD
ENDBRANCH  11  12
BRANCH  11  14
ATOM     14  C   LIG    1       24.018 -12.823   3.306  0.00  0.00    +0.081 C 
ATOM     15  C   LIG    1       24.389 -12.746   4.795  0.00  0.00    +0.027 C 
BRANCH  14  16
ATOM     16  N   LIG    1       23.621 -11.459   2.880  0.00  0.00    -0.325 NA
ATOM     17  H   LIG    1       24.124 -10.785   3.459  0.00  0.00    +0.118 HD
ATOM     18  H   LIG    1       23.962 -11.295   1.931  0.00  0.00    +0.118 HD
ENDBRANCH  14  16
ENDBRANCH  11  14
ENDBRANCH   3  11
TORSDOF 6
ENDMDL
MODEL 8
REMARK VINA RESULT:      -2.8      3.618      5.332
REMARK  Name = *****
REMARK                            x       y       z     vdW  Elec       q    Type
REMARK                         _______ _______ _______ _____ _____    ______ ____
ROOT
ATOM      1  C   LIG    1       23.860 -20.455   5.131  0.00  0.00    +0.121 A 
ATOM      2  C   LIG    1       25.223 -20.613   5.371  0.00  0.00    +0.055 A 
ATOM      3  C   LIG    1       26.187 -19.770   4.820  0.00  0.00    +0.027 A 
ATOM      4  C   LIG    1       25.764 -18.729   3.982  0.00  0.00    +0.126 A 
ATOM      5  C   LIG    1       24.396 -18.561   3.721  0.00  0.00    +0.049 A 
ATOM      6  C   LIG    1       23.441 -19.414   4.296  0.00  0.00    +0.049 A 
ENDROOT
BRANCH   1   8
ATOM      7  C   LIG    1       23.090 -21.572   7.059  0.00  0.00    +0.277 C 
ATOM      8  O   LIG    1       22.898 -21.267   5.674  0.00  0.00    -0.495 OA
ENDBRANCH   1   8
BRANCH   4   9
ATOM      9  O   LIG    1       26.760 -17.938   3.475  0.00  0.00    -0.495 OA
ATOM     10  C   LIG    1       26.478 -16.553   3.332  0.00  0.00    +0.277 C 
ENDBRANCH   4   9
BRANCH   3  11
ATOM     11  C   LIG    1       27.647 -20.004   5.154  0.00  0.00    +0.165 C 
BRANCH  11  12
ATOM     12  O   LIG    1       27.786 -21.164   5.993  0.00  0.00    -0.386 OA
ATOM     13  H   LIG    1       28.436 -20.892   6.665  0.00  0.00    +0.210 HD
ENDBRANCH  11  12
BRANCH  11  14
ATOM     14  C   LIG    1       28.344 -18.790   5.839  0.00  0.00    +0.081 C 
ATOM     15  C   LIG    1       29.197 -19.158   7.062  0.00  0.00    +0.027 C 
BRANCH  14  16
ATOM     16  N   LIG    1       29.239 -18.121   4.863  0.00  0.00    -0.325 NA
ATOM     17  H   LIG    1       28.725 -18.003   3.988  0.00  0.00    +0.118 HD
ATOM     18  H   LIG    1       29.429 -17.171   5.185  0.00  0.00    +0.118 HD
ENDBRANCH  14  16
ENDBRANCH  11  14
ENDBRANCH   3  11
TORSDOF 6
ENDMDL
MODEL 9
REMARK VINA RESULT:      -2.8      4.237      6.311
REMARK  Name = *****
REMARK                            x       y       z     vdW  Elec       q    Type
REMARK                         _______ _______ _______ _____ _____    ______ ____
ROOT
ATOM      1  C   LIG    1       27.162 -18.321   4.215  0.00  0.00    +0.121 A 
ATOM      2  C   LIG    1       26.582 -19.563   4.460  0.00  0.00    +0.055 A 
ATOM      3  C   LIG    1       25.232 -19.824   4.224  0.00  0.00    +0.027 A 
ATOM      4  C   LIG    1       24.428 -18.786   3.731  0.00  0.00    +0.126 A 
ATOM      5  C   LIG    1       24.994 -17.526   3.489  0.00  0.00    +0.049 A 
ATOM      6  C   LIG    1       26.357 -17.288   3.722  0.00  0.00    +0.049 A 
ENDROOT
BRANCH   1   8
ATOM      7  C   LIG    1       29.046 -18.694   5.581  0.00  0.00    +0.277 C 
ATOM      8  O   LIG    1       28.489 -18.051   4.430  0.00  0.00    -0.495 OA
ENDBRANCH   1   8
BRANCH   4   9
ATOM      9  O   LIG    1       23.114 -19.108   3.521  0.00  0.00    -0.495 OA
ATOM     10  C   LIG    1       22.137 -18.265   4.114  0.00  0.00    +0.277 C 
ENDBRANCH   4   9
BRANCH   3  11
ATOM     11  C   LIG    1       24.692 -21.213   4.500  0.00  0.00    +0.165 C 
BRANCH  11  12
ATOM     12  O   LIG    1       23.699 -21.564   3.519  0.00  0.00    -0.386 OA
ATOM     13  H   LIG    1       22.916 -21.794   4.050  0.00  0.00    +0.210 HD
ENDBRANCH  11  12
BRANCH  11  14
ATOM     14  C   LIG    1       24.087 -21.387   5.925  0.00  0.00    +0.081 C 
ATOM     15  C   LIG    1       24.909 -20.734   7.046  0.00  0.00    +0.027 C 
BRANCH  14  16
ATOM     16  N   LIG    1       22.733 -20.784   5.963  0.00  0.00    -0.325 NA
ATOM     17  H   LIG    1       22.814 -19.802   5.692  0.00  0.00    +0.118 HD
ATOM     18  H   LIG    1       22.159 -21.210   5.234  0.00  0.00    +0.118 HD
ENDBRANCH  14  16
ENDBRANCH  11  14
ENDBRANCH   3  11
TORSDOF 6
ENDMDL
