MODEL 1
REMARK VINA RESULT:      -6.7      0.000      0.000
REMARK  Name = *****
REMARK                            x       y       z     vdW  Elec       q    Type
REMARK                         _______ _______ _______ _____ _____    ______ ____
ROOT
ATOM      1  C   LIG    1       20.872 -31.045  13.047  0.00  0.00    +0.170 C 
ATOM      2  C   LIG    1       22.222 -30.569  12.336  0.00  0.00    +0.097 C 
ATOM      3  C   LIG    1       22.628 -31.998  11.209  0.00  0.00    +0.065 C 
ATOM      4  C   LIG    1       24.041 -32.413  10.601  0.00  0.00    +0.174 C 
ATOM      5  C   LIG    1       25.531 -32.284  11.415  0.00  0.00    +0.208 C 
ATOM      6  C   LIG    1       26.169 -31.782  12.720  0.00  0.00    -0.023 C 
ATOM      7  C   LIG    1       26.309 -30.211  13.494  0.00  0.00    +0.022 C 
ATOM      8  C   LIG    1       27.259 -30.801  14.716  0.00  0.00    +0.019 C 
ATOM      9  C   LIG    1       27.394 -29.090  13.207  0.00  0.00    +0.019 C 
ATOM     10  C   LIG    1       24.814 -29.496  14.032  0.00  0.00    +0.116 C 
ATOM     11  C   LIG    1       24.291 -30.733  14.631  0.00  0.00    +0.088 C 
ATOM     12  C   LIG    1       24.211 -31.448  13.273  0.00  0.00    +0.205 C 
ATOM     13  C   LIG    1       25.239 -32.436  13.511  0.00  0.00    -0.030 C 
ATOM     14  C   LIG    1       25.284 -33.825  13.886  0.00  0.00    +0.043 C 
ATOM     15  O   LIG    1       24.045 -33.044   9.511  0.00  0.00    -0.294 OA
ATOM     16  C   LIG    1       22.595 -33.525  11.644  0.00  0.00    +0.022 C 
ATOM     17  C   LIG    1       21.499 -31.736  10.075  0.00  0.00    +0.131 C 
ATOM     18  C   LIG    1       20.017 -31.629  10.614  0.00  0.00    +0.068 C 
ATOM     19  C   LIG    1       23.184 -29.213  13.227  0.00  0.00    +0.217 C 
ATOM     20  C   LIG    1       19.974 -30.698  11.839  0.00  0.00    +0.167 C 
ATOM     21  O   LIG    1       18.840 -30.487  12.725  0.00  0.00    -0.368 OA
ATOM     22  C   LIG    1       19.791 -30.213  13.824  0.00  0.00    +0.211 C 
ENDROOT
BRANCH  10  23
ATOM     23  O   LIG    1       25.052 -28.510  15.033  0.00  0.00    -0.384 OA
ATOM     24  H   LIG    1       24.478 -28.690  15.803  0.00  0.00    +0.210 HD
ENDBRANCH  10  23
BRANCH   5  25
ATOM     25  O   LIG    1       26.109 -33.541  11.087  0.00  0.00    -0.380 OA
ATOM     26  H   LIG    1       27.030 -33.332  10.809  0.00  0.00    +0.211 HD
ENDBRANCH   5  25
BRANCH  17  27
ATOM     27  O   LIG    1       21.497 -32.683   9.013  0.00  0.00    -0.391 OA
ATOM     28  H   LIG    1       22.220 -32.434   8.393  0.00  0.00    +0.210 HD
ENDBRANCH  17  27
BRANCH  12  29
ATOM     29  O   LIG    1       24.391 -30.291  11.767  0.00  0.00    -0.455 OA
BRANCH  29  30
ATOM     30  C   LIG    1       25.177 -29.547  10.633  0.00  0.00    +0.339 C 
ATOM     31  O   LIG    1       25.490 -28.351  10.616  0.00  0.00    -0.248 OA
BRANCH  30  32
ATOM     32  C   LIG    1       25.936 -30.097   9.400  0.00  0.00    +0.247 C 
BRANCH  32  33
ATOM     33  O   LIG    1       27.331 -29.610   9.305  0.00  0.00    -0.379 OA
ATOM     34  H   LIG    1       27.624 -29.685   8.379  0.00  0.00    +0.211 HD
ENDBRANCH  32  33
BRANCH  32  35
ATOM     35  C   LIG    1       25.252 -29.751   7.942  0.00  0.00    +0.146 C 
BRANCH  35  36
ATOM     36  C   LIG    1       25.374 -28.388   7.188  0.00  0.00    -0.024 A 
ATOM     37  C   LIG    1       25.899 -27.149   7.645  0.00  0.00    +0.005 A 
ATOM     38  C   LIG    1       26.035 -26.029   6.804  0.00  0.00    +0.000 A 
ATOM     39  C   LIG    1       25.500 -26.079   5.539  0.00  0.00    +0.000 A 
ATOM     40  C   LIG    1       24.855 -27.229   5.128  0.00  0.00    +0.000 A 
ATOM     41  C   LIG    1       24.824 -28.357   5.927  0.00  0.00    +0.005 A 
ENDBRANCH  35  36
BRANCH  35  42
ATOM     42  N   LIG    1       23.992 -30.348   7.658  0.00  0.00    -0.271 N 
ATOM     43  H   LIG    1       23.191 -30.343   8.284  0.00  0.00    +0.153 HD
ATOM     44  C   LIG    1       24.020 -31.442   6.829  0.00  0.00    +0.401 C 
ATOM     45  O   LIG    1       23.124 -32.204   6.856  0.00  0.00    -0.226 OA
BRANCH  44  46
ATOM     46  O   LIG    1       25.104 -31.381   6.026  0.00  0.00    -0.445 OA
BRANCH  46  47
ATOM     47  C   LIG    1       25.959 -32.502   5.706  0.00  0.00    +0.107 C 
ATOM     48  C   LIG    1       27.072 -32.609   6.777  0.00  0.00    +0.055 C 
ATOM     49  C   LIG    1       26.363 -32.537   4.231  0.00  0.00    +0.055 C 
ATOM     50  C   LIG    1       25.372 -33.825   5.937  0.00  0.00    +0.055 C 
ENDBRANCH  46  47
ENDBRANCH  44  46
ENDBRANCH  35  42
ENDBRANCH  32  35
ENDBRANCH  30  32
ENDBRANCH  29  30
ENDBRANCH  12  29
BRANCH  19  51
ATOM     51  O   LIG    1       23.013 -27.845  12.561  0.00  0.00    -0.455 OA
BRANCH  51  52
ATOM     52  C   LIG    1       22.595 -26.775  13.225  0.00  0.00    +0.340 C 
ATOM     53  O   LIG    1       23.432 -25.748  13.265  0.00  0.00    -0.245 OA
BRANCH  52  54
ATOM     54  C   LIG    1       21.313 -26.604  13.984  0.00  0.00    +0.059 A 
ATOM     55  C   LIG    1       20.412 -26.218  13.017  0.00  0.00    +0.015 A 
ATOM     56  C   LIG    1       19.050 -26.287  13.251  0.00  0.00    +0.001 A 
ATOM     57  C   LIG    1       18.508 -26.699  14.467  0.00  0.00    +0.000 A 
ATOM     58  C   LIG    1       19.344 -27.047  15.498  0.00  0.00    +0.001 A 
ATOM     59  C   LIG    1       20.722 -27.042  15.240  0.00  0.00    +0.015 A 
ENDBRANCH  52  54
ENDBRANCH  51  52
ENDBRANCH  19  51
BRANCH   1  60
ATOM     60  O   LIG    1       20.892 -32.473  13.471  0.00  0.00    -0.453 OA
BRANCH  60  62
ATOM     61  C   LIG    1       18.822 -33.782  13.503  0.00  0.00    +0.136 C 
ATOM     62  C   LIG    1       19.813 -32.933  14.204  0.00  0.00    +0.305 C 
ATOM     63  O   LIG    1       19.522 -32.637  15.355  0.00  0.00    -0.251 OA
ENDBRANCH  60  62
ENDBRANCH   1  60
TORSDOF 17
ENDMDL
MODEL 2
REMARK VINA RESULT:      -6.0      1.566      2.445
REMARK  Name = *****
REMARK                            x       y       z     vdW  Elec       q    Type
REMARK                         _______ _______ _______ _____ _____    ______ ____
ROOT
ATOM      1  C   LIG    1       21.207 -30.260  13.803  0.00  0.00    +0.170 C 
ATOM      2  C   LIG    1       22.540 -30.101  12.935  0.00  0.00    +0.097 C 
ATOM      3  C   LIG    1       22.586 -31.681  11.946  0.00  0.00    +0.065 C 
ATOM      4  C   LIG    1       23.841 -32.397  11.276  0.00  0.00    +0.174 C 
ATOM      5  C   LIG    1       25.405 -32.457  11.946  0.00  0.00    +0.208 C 
ATOM      6  C   LIG    1       26.246 -31.951  13.130  0.00  0.00    -0.023 C 
ATOM      7  C   LIG    1       26.724 -30.363  13.709  0.00  0.00    +0.022 C 
ATOM      8  C   LIG    1       27.679 -30.992  14.908  0.00  0.00    +0.019 C 
ATOM      9  C   LIG    1       27.947 -29.485  13.210  0.00  0.00    +0.019 C 
ATOM     10  C   LIG    1       25.431 -29.346  14.283  0.00  0.00    +0.116 C 
ATOM     11  C   LIG    1       24.770 -30.407  15.058  0.00  0.00    +0.088 C 
ATOM     12  C   LIG    1       24.437 -31.224  13.800  0.00  0.00    +0.205 C 
ATOM     13  C   LIG    1       25.303 -32.351  14.063  0.00  0.00    -0.030 C 
ATOM     14  C   LIG    1       25.152 -33.683  14.587  0.00  0.00    +0.043 C 
ATOM     15  O   LIG    1       23.631 -33.121  10.267  0.00  0.00    -0.294 OA
ATOM     16  C   LIG    1       22.342 -33.129  12.551  0.00  0.00    +0.022 C 
ATOM     17  C   LIG    1       21.409 -31.334  10.886  0.00  0.00    +0.131 C 
ATOM     18  C   LIG    1       20.028 -30.915  11.529  0.00  0.00    +0.068 C 
ATOM     19  C   LIG    1       23.799 -28.858  13.587  0.00  0.00    +0.217 C 
ATOM     20  C   LIG    1       20.263 -29.877  12.641  0.00  0.00    +0.167 C 
ATOM     21  O   LIG    1       19.275 -29.384  13.587  0.00  0.00    -0.368 OA
ATOM     22  C   LIG    1       20.364 -29.178  14.567  0.00  0.00    +0.211 C 
ENDROOT
BRANCH  10  23
ATOM     23  O   LIG    1       25.930 -28.326  15.144  0.00  0.00    -0.384 OA
ATOM     24  H   LIG    1       26.759 -27.968  14.770  0.00  0.00    +0.210 HD
ENDBRANCH  10  23
BRANCH   5  25
ATOM     25  O   LIG    1       25.729 -33.822  11.715  0.00  0.00    -0.380 OA
ATOM     26  H   LIG    1       26.635 -33.934  12.083  0.00  0.00    +0.211 HD
ENDBRANCH   5  25
BRANCH  17  27
ATOM     27  O   LIG    1       21.143 -32.364   9.941  0.00  0.00    -0.391 OA
ATOM     28  H   LIG    1       22.000 -32.800   9.728  0.00  0.00    +0.210 HD
ENDBRANCH  17  27
BRANCH  12  29
ATOM     29  O   LIG    1       24.657 -30.268  12.164  0.00  0.00    -0.455 OA
BRANCH  29  30
ATOM     30  C   LIG    1       25.475 -29.660  10.973  0.00  0.00    +0.339 C 
ATOM     31  O   LIG    1       25.980 -28.533  10.926  0.00  0.00    -0.248 OA
BRANCH  30  32
ATOM     32  C   LIG    1       26.044 -30.323   9.693  0.00  0.00    +0.247 C 
BRANCH  32  33
ATOM     33  O   LIG    1       27.458 -29.969   9.429  0.00  0.00    -0.379 OA
ATOM     34  H   LIG    1       27.480 -29.129   8.936  0.00  0.00    +0.211 HD
ENDBRANCH  32  33
BRANCH  32  35
ATOM     35  C   LIG    1       25.237 -29.972   8.302  0.00  0.00    +0.146 C 
BRANCH  35  36
ATOM     36  C   LIG    1       25.306 -28.610   7.537  0.00  0.00    -0.024 A 
ATOM     37  C   LIG    1       26.182 -27.509   7.735  0.00  0.00    +0.005 A 
ATOM     38  C   LIG    1       26.186 -26.385   6.889  0.00  0.00    +0.000 A 
ATOM     39  C   LIG    1       25.207 -26.269   5.932  0.00  0.00    +0.000 A 
ATOM     40  C   LIG    1       24.255 -27.264   5.822  0.00  0.00    +0.000 A 
ATOM     41  C   LIG    1       24.329 -28.413   6.589  0.00  0.00    +0.005 A 
ENDBRANCH  35  36
BRANCH  35  42
ATOM     42  N   LIG    1       23.951 -30.555   8.131  0.00  0.00    -0.271 N 
ATOM     43  H   LIG    1       23.139 -30.354   8.708  0.00  0.00    +0.153 HD
ATOM     44  C   LIG    1       23.933 -31.822   7.600  0.00  0.00    +0.401 C 
ATOM     45  O   LIG    1       22.995 -32.507   7.785  0.00  0.00    -0.226 OA
BRANCH  44  46
ATOM     46  O   LIG    1       25.035 -32.017   6.845  0.00  0.00    -0.445 OA
BRANCH  46  47
ATOM     47  C   LIG    1       25.027 -32.504   5.483  0.00  0.00    +0.107 C 
ATOM     48  C   LIG    1       25.725 -31.463   4.572  0.00  0.00    +0.055 C 
ATOM     49  C   LIG    1       23.663 -33.046   5.055  0.00  0.00    +0.055 C 
ATOM     50  C   LIG    1       25.944 -33.613   5.208  0.00  0.00    +0.055 C 
ENDBRANCH  46  47
ENDBRANCH  44  46
ENDBRANCH  35  42
ENDBRANCH  32  35
ENDBRANCH  30  32
ENDBRANCH  29  30
ENDBRANCH  12  29
BRANCH  19  51
ATOM     51  O   LIG    1       23.795 -27.551  12.788  0.00  0.00    -0.455 OA
BRANCH  51  52
ATOM     52  C   LIG    1       23.901 -26.361  13.365  0.00  0.00    +0.340 C 
ATOM     53  O   LIG    1       22.767 -25.803  13.765  0.00  0.00    -0.245 OA
BRANCH  52  54
ATOM     54  C   LIG    1       25.141 -25.544  13.571  0.00  0.00    +0.059 A 
ATOM     55  C   LIG    1       24.831 -24.750  14.653  0.00  0.00    +0.015 A 
ATOM     56  C   LIG    1       25.825 -24.099  15.361  0.00  0.00    +0.001 A 
ATOM     57  C   LIG    1       27.173 -24.163  15.012  0.00  0.00    +0.000 A 
ATOM     58  C   LIG    1       27.554 -24.890  13.912  0.00  0.00    +0.001 A 
ATOM     59  C   LIG    1       26.555 -25.605  13.234  0.00  0.00    +0.015 A 
ENDBRANCH  52  54
ENDBRANCH  51  52
ENDBRANCH  19  51
BRANCH   1  60
ATOM     60  O   LIG    1       21.029 -31.621  14.382  0.00  0.00    -0.453 OA
BRANCH  60  62
ATOM     61  C   LIG    1       19.250 -33.283  14.651  0.00  0.00    +0.136 C 
ATOM     62  C   LIG    1       19.790 -31.928  14.912  0.00  0.00    +0.305 C 
ATOM     63  O   LIG    1       19.029 -31.170  15.500  0.00  0.00    -0.251 OA
ENDBRANCH  60  62
ENDBRANCH   1  60
TORSDOF 17
ENDMDL
MODEL 3
REMARK VINA RESULT:      -4.1      0.828      2.599
REMARK  Name = *****
REMARK                            x       y       z     vdW  Elec       q    Type
REMARK                         _______ _______ _______ _____ _____    ______ ____
ROOT
ATOM      1  C   LIG    1       21.044 -30.795  13.453  0.00  0.00    +0.170 C 
ATOM      2  C   LIG    1       22.386 -30.470  12.647  0.00  0.00    +0.097 C 
ATOM      3  C   LIG    1       22.633 -32.000  11.611  0.00  0.00    +0.065 C 
ATOM      4  C   LIG    1       23.980 -32.560  10.971  0.00  0.00    +0.174 C 
ATOM      5  C   LIG    1       25.515 -32.483  11.704  0.00  0.00    +0.208 C 
ATOM      6  C   LIG    1       26.253 -31.938  12.938  0.00  0.00    -0.023 C 
ATOM      7  C   LIG    1       26.541 -30.331  13.587  0.00  0.00    +0.022 C 
ATOM      8  C   LIG    1       27.509 -30.902  14.804  0.00  0.00    +0.019 C 
ATOM      9  C   LIG    1       27.685 -29.316  13.168  0.00  0.00    +0.019 C 
ATOM     10  C   LIG    1       25.129 -29.473  14.139  0.00  0.00    +0.116 C 
ATOM     11  C   LIG    1       24.552 -30.623  14.851  0.00  0.00    +0.088 C 
ATOM     12  C   LIG    1       24.354 -31.424  13.554  0.00  0.00    +0.205 C 
ATOM     13  C   LIG    1       25.321 -32.466  13.817  0.00  0.00    -0.030 C 
ATOM     14  C   LIG    1       25.288 -33.824  14.291  0.00  0.00    +0.043 C 
ATOM     15  O   LIG    1       23.885 -33.264   9.931  0.00  0.00    -0.294 OA
ATOM     16  C   LIG    1       22.517 -33.486  12.158  0.00  0.00    +0.022 C 
ATOM     17  C   LIG    1       21.468 -31.737  10.514  0.00  0.00    +0.131 C 
ATOM     18  C   LIG    1       20.027 -31.484  11.111  0.00  0.00    +0.068 C 
ATOM     19  C   LIG    1       23.484 -29.129  13.391  0.00  0.00    +0.217 C 
ATOM     20  C   LIG    1       20.111 -30.469  12.265  0.00  0.00    +0.167 C 
ATOM     21  O   LIG    1       19.041 -30.114  13.183  0.00  0.00    -0.368 OA
ATOM     22  C   LIG    1       20.064 -29.833  14.214  0.00  0.00    +0.211 C 
ENDROOT
BRANCH  10  23
ATOM     23  O   LIG    1       25.486 -28.439  15.052  0.00  0.00    -0.384 OA
ATOM     24  H   LIG    1       26.371 -28.630  15.422  0.00  0.00    +0.210 HD
ENDBRANCH  10  23
BRANCH   5  25
ATOM     25  O   LIG    1       25.987 -33.799  11.444  0.00  0.00    -0.380 OA
ATOM     26  H   LIG    1       26.666 -33.967  12.136  0.00  0.00    +0.211 HD
ENDBRANCH   5  25
BRANCH  17  27
ATOM     27  O   LIG    1       21.347 -32.753   9.526  0.00  0.00    -0.391 OA
ATOM     28  H   LIG    1       21.522 -33.617   9.964  0.00  0.00    +0.210 HD
ENDBRANCH  17  27
BRANCH  12  29
ATOM     29  O   LIG    1       24.537 -30.392  11.961  0.00  0.00    -0.455 OA
BRANCH  29  30
ATOM     30  C   LIG    1       24.734 -30.181  10.420  0.00  0.00    +0.339 C 
ATOM     31  O   LIG    1       24.142 -29.363   9.706  0.00  0.00    -0.248 OA
BRANCH  30  32
ATOM     32  C   LIG    1       25.811 -30.733   9.452  0.00  0.00    +0.247 C 
BRANCH  32  33
ATOM     33  O   LIG    1       26.697 -29.682   8.900  0.00  0.00    -0.379 OA
ATOM     34  H   LIG    1       27.423 -30.113   8.415  0.00  0.00    +0.211 HD
ENDBRANCH  32  33
BRANCH  32  35
ATOM     35  C   LIG    1       25.230 -31.547   8.145  0.00  0.00    +0.146 C 
BRANCH  35  36
ATOM     36  C   LIG    1       26.105 -32.226   7.042  0.00  0.00    -0.024 A 
ATOM     37  C   LIG    1       25.831 -32.403   5.658  0.00  0.00    +0.005 A 
ATOM     38  C   LIG    1       26.774 -32.948   4.766  0.00  0.00    +0.000 A 
ATOM     39  C   LIG    1       27.940 -33.472   5.268  0.00  0.00    +0.000 A 
ATOM     40  C   LIG    1       28.157 -33.440   6.631  0.00  0.00    +0.000 A 
ATOM     41  C   LIG    1       27.271 -32.806   7.483  0.00  0.00    +0.005 A 
ENDBRANCH  35  36
BRANCH  35  42
ATOM     42  N   LIG    1       24.015 -31.077   7.573  0.00  0.00    -0.271 N 
ATOM     43  H   LIG    1       23.146 -31.602   7.537  0.00  0.00    +0.153 HD
ATOM     44  C   LIG    1       24.146 -30.183   6.538  0.00  0.00    +0.401 C 
ATOM     45  O   LIG    1       23.258 -30.052   5.779  0.00  0.00    -0.226 OA
BRANCH  44  46
ATOM     46  O   LIG    1       25.317 -29.520   6.652  0.00  0.00    -0.445 OA
BRANCH  46  47
ATOM     47  C   LIG    1       25.524 -28.139   6.274  0.00  0.00    +0.107 C 
ATOM     48  C   LIG    1       26.343 -28.094   4.960  0.00  0.00    +0.055 C 
ATOM     49  C   LIG    1       25.980 -27.267   7.444  0.00  0.00    +0.055 C 
ATOM     50  C   LIG    1       24.341 -27.444   5.762  0.00  0.00    +0.055 C 
ENDBRANCH  46  47
ENDBRANCH  44  46
ENDBRANCH  35  42
ENDBRANCH  32  35
ENDBRANCH  30  32
ENDBRANCH  29  30
ENDBRANCH  12  29
BRANCH  19  51
ATOM     51  O   LIG    1       23.375 -27.802  12.634  0.00  0.00    -0.455 OA
BRANCH  51  52
ATOM     52  C   LIG    1       22.990 -26.675  13.221  0.00  0.00    +0.340 C 
ATOM     53  O   LIG    1       23.874 -25.688  13.227  0.00  0.00    -0.245 OA
BRANCH  52  54
ATOM     54  C   LIG    1       21.695 -26.399  13.926  0.00  0.00    +0.059 A 
ATOM     55  C   LIG    1       20.793 -26.239  12.898  0.00  0.00    +0.015 A 
ATOM     56  C   LIG    1       19.432 -26.303  13.135  0.00  0.00    +0.001 A 
ATOM     57  C   LIG    1       18.890 -26.485  14.407  0.00  0.00    +0.000 A 
ATOM     58  C   LIG    1       19.726 -26.598  15.489  0.00  0.00    +0.001 A 
ATOM     59  C   LIG    1       21.106 -26.600  15.240  0.00  0.00    +0.015 A 
ENDBRANCH  52  54
ENDBRANCH  51  52
ENDBRANCH  19  51
BRANCH   1  60
ATOM     60  O   LIG    1       20.985 -32.188  13.979  0.00  0.00    -0.453 OA
BRANCH  60  62
ATOM     61  C   LIG    1       18.964 -33.503  13.552  0.00  0.00    +0.136 C 
ATOM     62  C   LIG    1       19.765 -32.638  14.449  0.00  0.00    +0.305 C 
ATOM     63  O   LIG    1       19.215 -32.322  15.495  0.00  0.00    -0.251 OA
ENDBRANCH  60  62
ENDBRANCH   1  60
TORSDOF 17
ENDMDL
MODEL 4
REMARK VINA RESULT:      -3.9      2.111      7.669
REMARK  Name = *****
REMARK                            x       y       z     vdW  Elec       q    Type
REMARK                         _______ _______ _______ _____ _____    ______ ____
ROOT
ATOM      1  C   LIG    1       25.677 -27.439  13.069  0.00  0.00    +0.170 C 
ATOM      2  C   LIG    1       24.690 -28.590  12.562  0.00  0.00    +0.097 C 
ATOM      3  C   LIG    1       23.851 -29.142  14.133  0.00  0.00    +0.065 C 
ATOM      4  C   LIG    1       23.147 -30.537  14.445  0.00  0.00    +0.174 C 
ATOM      5  C   LIG    1       23.686 -32.051  13.884  0.00  0.00    +0.208 C 
ATOM      6  C   LIG    1       24.744 -32.714  12.987  0.00  0.00    -0.023 C 
ATOM      7  C   LIG    1       25.132 -32.630  11.275  0.00  0.00    +0.022 C 
ATOM      8  C   LIG    1       26.300 -33.799  11.393  0.00  0.00    +0.019 C 
ATOM      9  C   LIG    1       24.453 -33.442  10.094  0.00  0.00    +0.019 C 
ATOM     10  C   LIG    1       25.716 -31.090  10.707  0.00  0.00    +0.116 C 
ATOM     11  C   LIG    1       26.638 -30.880  11.833  0.00  0.00    +0.088 C 
ATOM     12  C   LIG    1       25.493 -30.798  12.855  0.00  0.00    +0.205 C 
ATOM     13  C   LIG    1       25.786 -32.017  13.576  0.00  0.00    -0.030 C 
ATOM     14  C   LIG    1       26.441 -32.367  14.809  0.00  0.00    +0.043 C 
ATOM     15  O   LIG    1       22.230 -30.548  15.308  0.00  0.00    -0.294 OA
ATOM     16  C   LIG    1       24.605 -29.451  15.496  0.00  0.00    +0.022 C 
ATOM     17  C   LIG    1       22.866 -27.871  14.338  0.00  0.00    +0.131 C 
ATOM     18  C   LIG    1       23.580 -26.462  14.349  0.00  0.00    +0.068 C 
ATOM     19  C   LIG    1       25.117 -29.360  10.894  0.00  0.00    +0.217 C 
ATOM     20  C   LIG    1       24.568 -26.369  13.172  0.00  0.00    +0.167 C 
ATOM     21  O   LIG    1       25.544 -25.315  12.944  0.00  0.00    -0.368 OA
ATOM     22  C   LIG    1       26.406 -26.305  12.263  0.00  0.00    +0.211 C 
ENDROOT
BRANCH  10  23
ATOM     23  O   LIG    1       26.434 -31.237   9.485  0.00  0.00    -0.384 OA
ATOM     24  H   LIG    1       26.196 -32.092   9.075  0.00  0.00    +0.210 HD
ENDBRANCH  10  23
BRANCH   5  25
ATOM     25  O   LIG    1       23.556 -32.823  15.071  0.00  0.00    -0.380 OA
ATOM     26  H   LIG    1       24.439 -33.239  15.202  0.00  0.00    +0.211 HD
ENDBRANCH   5  25
BRANCH  17  27
ATOM     27  O   LIG    1       22.045 -27.941  15.498  0.00  0.00    -0.391 OA
ATOM     28  H   LIG    1       21.982 -27.033  15.873  0.00  0.00    +0.210 HD
ENDBRANCH  17  27
BRANCH  12  29
ATOM     29  O   LIG    1       23.763 -30.592  12.078  0.00  0.00    -0.455 OA
BRANCH  29  30
ATOM     30  C   LIG    1       22.353 -31.083  11.600  0.00  0.00    +0.339 C 
ATOM     31  O   LIG    1       21.984 -32.256  11.477  0.00  0.00    -0.248 OA
BRANCH  30  32
ATOM     32  C   LIG    1       21.033 -30.304  11.377  0.00  0.00    +0.247 C 
BRANCH  32  33
ATOM     33  O   LIG    1       21.244 -28.889  10.994  0.00  0.00    -0.379 OA
ATOM     34  H   LIG    1       21.365 -28.363  11.805  0.00  0.00    +0.211 HD
ENDBRANCH  32  33
BRANCH  32  35
ATOM     35  C   LIG    1       20.015 -30.260  12.670  0.00  0.00    +0.146 C 
BRANCH  35  36
ATOM     36  C   LIG    1       19.540 -28.963  13.402  0.00  0.00    -0.024 A 
ATOM     37  C   LIG    1       18.581 -28.816  14.440  0.00  0.00    +0.005 A 
ATOM     38  C   LIG    1       18.335 -27.582  15.073  0.00  0.00    +0.000 A 
ATOM     39  C   LIG    1       18.926 -26.448  14.570  0.00  0.00    +0.000 A 
ATOM     40  C   LIG    1       19.749 -26.554  13.466  0.00  0.00    +0.000 A 
ATOM     41  C   LIG    1       20.065 -27.786  12.923  0.00  0.00    +0.005 A 
ENDBRANCH  35  36
BRANCH  35  42
ATOM     42  N   LIG    1       20.100 -31.333  13.600  0.00  0.00    -0.271 N 
ATOM     43  H   LIG    1       20.934 -31.585  14.125  0.00  0.00    +0.153 HD
ATOM     44  C   LIG    1       19.273 -32.403  13.359  0.00  0.00    +0.401 C 
ATOM     45  O   LIG    1       19.544 -33.451  13.817  0.00  0.00    -0.226 OA
BRANCH  44  46
ATOM     46  O   LIG    1       18.189 -31.995  12.665  0.00  0.00    -0.445 OA
BRANCH  46  47
ATOM     47  C   LIG    1       16.830 -32.035  13.158  0.00  0.00    +0.107 C 
ATOM     48  C   LIG    1       16.219 -33.422  12.840  0.00  0.00    +0.055 C 
ATOM     49  C   LIG    1       16.028 -30.786  12.788  0.00  0.00    +0.055 C 
ATOM     50  C   LIG    1       16.692 -32.117  14.614  0.00  0.00    +0.055 C 
ENDBRANCH  46  47
ENDBRANCH  44  46
ENDBRANCH  35  42
ENDBRANCH  32  35
ENDBRANCH  30  32
ENDBRANCH  29  30
ENDBRANCH  12  29
BRANCH  19  51
ATOM     51  O   LIG    1       24.203 -28.860   9.772  0.00  0.00    -0.455 OA
BRANCH  51  52
ATOM     52  C   LIG    1       24.373 -29.213   8.504  0.00  0.00    +0.340 C 
ATOM     53  O   LIG    1       23.826 -30.364   8.140  0.00  0.00    -0.245 OA
BRANCH  52  54
ATOM     54  C   LIG    1       25.154 -28.495   7.444  0.00  0.00    +0.059 A 
ATOM     55  C   LIG    1       24.461 -28.772   6.286  0.00  0.00    +0.015 A 
ATOM     56  C   LIG    1       24.667 -28.022   5.143  0.00  0.00    +0.001 A 
ATOM     57  C   LIG    1       25.598 -26.987   5.069  0.00  0.00    +0.000 A 
ATOM     58  C   LIG    1       26.366 -26.688   6.167  0.00  0.00    +0.001 A 
ATOM     59  C   LIG    1       26.110 -27.403   7.346  0.00  0.00    +0.015 A 
ENDBRANCH  52  54
ENDBRANCH  51  52
ENDBRANCH  19  51
BRANCH   1  60
ATOM     60  O   LIG    1       26.392 -27.778  14.332  0.00  0.00    -0.453 OA
BRANCH  60  62
ATOM     61  C   LIG    1       28.684 -28.495  13.851  0.00  0.00    +0.136 C 
ATOM     62  C   LIG    1       27.743 -27.488  14.394  0.00  0.00    +0.305 C 
ATOM     63  O   LIG    1       28.268 -26.527  14.940  0.00  0.00    -0.251 OA
ENDBRANCH  60  62
ENDBRANCH   1  60
TORSDOF 17
ENDMDL
MODEL 5
REMARK VINA RESULT:      -3.8      1.613      2.527
REMARK  Name = *****
REMARK                            x       y       z     vdW  Elec       q    Type
REMARK                         _______ _______ _______ _____ _____    ______ ____
ROOT
ATOM      1  C   LIG    1       22.740 -32.671  12.764  0.00  0.00    +0.170 C 
ATOM      2  C   LIG    1       23.355 -31.375  12.057  0.00  0.00    +0.097 C 
ATOM      3  C   LIG    1       24.776 -32.072  11.071  0.00  0.00    +0.065 C 
ATOM      4  C   LIG    1       26.082 -31.325  10.547  0.00  0.00    +0.174 C 
ATOM      5  C   LIG    1       26.917 -30.106  11.393  0.00  0.00    +0.208 C 
ATOM      6  C   LIG    1       26.863 -29.251  12.669  0.00  0.00    -0.023 C 
ATOM      7  C   LIG    1       25.734 -28.067  13.309  0.00  0.00    +0.022 C 
ATOM      8  C   LIG    1       26.702 -27.717  14.607  0.00  0.00    +0.019 C 
ATOM      9  C   LIG    1       25.660 -26.522  12.961  0.00  0.00    +0.019 C 
ATOM     10  C   LIG    1       24.159 -28.677  13.736  0.00  0.00    +0.116 C 
ATOM     11  C   LIG    1       24.668 -29.874  14.422  0.00  0.00    +0.088 C 
ATOM     12  C   LIG    1       25.257 -30.459  13.129  0.00  0.00    +0.205 C 
ATOM     13  C   LIG    1       26.655 -30.352  13.485  0.00  0.00    -0.030 C 
ATOM     14  C   LIG    1       27.676 -31.237  13.979  0.00  0.00    +0.043 C 
ATOM     15  O   LIG    1       26.642 -31.782   9.516  0.00  0.00    -0.294 OA
ATOM     16  C   LIG    1       25.842 -33.105  11.635  0.00  0.00    +0.022 C 
ATOM     17  C   LIG    1       23.922 -32.772   9.884  0.00  0.00    +0.131 C 
ATOM     18  C   LIG    1       22.804 -33.780  10.364  0.00  0.00    +0.068 C 
ATOM     19  C   LIG    1       22.925 -29.723  12.858  0.00  0.00    +0.217 C 
ATOM     20  C   LIG    1       21.985 -33.146  11.503  0.00  0.00    +0.167 C 
ATOM     21  O   LIG    1       20.993 -33.814  12.330  0.00  0.00    -0.368 OA
ATOM     22  C   LIG    1       21.335 -32.887  13.431  0.00  0.00    +0.211 C 
ENDROOT
BRANCH  10  23
ATOM     23  O   LIG    1       23.506 -27.804  14.655  0.00  0.00    -0.384 OA
ATOM     24  H   LIG    1       24.118 -27.598  15.389  0.00  0.00    +0.210 HD
ENDBRANCH  10  23
BRANCH   5  25
ATOM     25  O   LIG    1       28.259 -30.532  11.194  0.00  0.00    -0.380 OA
ATOM     26  H   LIG    1       28.794 -29.981  11.809  0.00  0.00    +0.211 HD
ENDBRANCH   5  25
BRANCH  17  27
ATOM     27  O   LIG    1       24.710 -33.445   8.908  0.00  0.00    -0.391 OA
ATOM     28  H   LIG    1       24.264 -34.298   8.704  0.00  0.00    +0.210 HD
ENDBRANCH  17  27
BRANCH  12  29
ATOM     29  O   LIG    1       24.654 -29.602  11.536  0.00  0.00    -0.455 OA
BRANCH  29  30
ATOM     30  C   LIG    1       24.507 -29.428   9.985  0.00  0.00    +0.339 C 
ATOM     31  O   LIG    1       23.451 -29.309   9.353  0.00  0.00    -0.248 OA
BRANCH  30  32
ATOM     32  C   LIG    1       25.569 -29.144   8.893  0.00  0.00    +0.247 C 
BRANCH  32  33
ATOM     33  O   LIG    1       26.311 -27.880   9.111  0.00  0.00    -0.379 OA
ATOM     34  H   LIG    1       26.622 -27.859  10.034  0.00  0.00    +0.211 HD
ENDBRANCH  32  33
BRANCH  32  35
ATOM     35  C   LIG    1       24.989 -29.051   7.355  0.00  0.00    +0.146 C 
BRANCH  35  36
ATOM     36  C   LIG    1       24.979 -27.763   6.470  0.00  0.00    -0.024 A 
ATOM     37  C   LIG    1       24.140 -26.619   6.553  0.00  0.00    +0.005 A 
ATOM     38  C   LIG    1       24.326 -25.485   5.740  0.00  0.00    +0.000 A 
ATOM     39  C   LIG    1       25.247 -25.540   4.722  0.00  0.00    +0.000 A 
ATOM     40  C   LIG    1       25.971 -26.701   4.534  0.00  0.00    +0.000 A 
ATOM     41  C   LIG    1       25.854 -27.767   5.408  0.00  0.00    +0.005 A 
ENDBRANCH  35  36
BRANCH  35  42
ATOM     42  N   LIG    1       23.866 -29.864   7.034  0.00  0.00    -0.271 N 
ATOM     43  H   LIG    1       22.955 -29.801   7.480  0.00  0.00    +0.153 HD
ATOM     44  C   LIG    1       24.152 -31.124   6.570  0.00  0.00    +0.401 C 
ATOM     45  O   LIG    1       23.334 -31.965   6.654  0.00  0.00    -0.226 OA
BRANCH  44  46
ATOM     46  O   LIG    1       25.371 -31.133   5.989  0.00  0.00    -0.445 OA
BRANCH  46  47
ATOM     47  C   LIG    1       26.053 -32.317   5.516  0.00  0.00    +0.107 C 
ATOM     48  C   LIG    1       25.004 -33.418   5.221  0.00  0.00    +0.055 C 
ATOM     49  C   LIG    1       27.268 -32.682   6.370  0.00  0.00    +0.055 C 
ATOM     50  C   LIG    1       26.595 -32.230   4.158  0.00  0.00    +0.055 C 
ENDBRANCH  46  47
ENDBRANCH  44  46
ENDBRANCH  35  42
ENDBRANCH  32  35
ENDBRANCH  30  32
ENDBRANCH  29  30
ENDBRANCH  12  29
BRANCH  19  51
ATOM     51  O   LIG    1       21.859 -28.955  12.071  0.00  0.00    -0.455 OA
BRANCH  51  52
ATOM     52  C   LIG    1       20.992 -28.137  12.655  0.00  0.00    +0.340 C 
ATOM     53  O   LIG    1       21.225 -26.840  12.512  0.00  0.00    -0.245 OA
BRANCH  52  54
ATOM     54  C   LIG    1       19.810 -28.501  13.503  0.00  0.00    +0.059 A 
ATOM     55  C   LIG    1       19.312 -27.281  13.905  0.00  0.00    +0.015 A 
ATOM     56  C   LIG    1       18.033 -27.176  14.422  0.00  0.00    +0.001 A 
ATOM     57  C   LIG    1       17.196 -28.275  14.609  0.00  0.00    +0.000 A 
ATOM     58  C   LIG    1       17.644 -29.530  14.283  0.00  0.00    +0.001 A 
ATOM     59  C   LIG    1       18.913 -29.630  13.697  0.00  0.00    +0.015 A 
ENDBRANCH  52  54
ENDBRANCH  51  52
ENDBRANCH  19  51
BRANCH   1  60
ATOM     60  O   LIG    1       23.769 -33.600  13.310  0.00  0.00    -0.453 OA
BRANCH  60  62
ATOM     61  C   LIG    1       25.260 -33.699  15.250  0.00  0.00    +0.136 C 
ATOM     62  C   LIG    1       23.891 -33.674  14.685  0.00  0.00    +0.305 C 
ATOM     63  O   LIG    1       22.989 -33.822  15.500  0.00  0.00    -0.251 OA
ENDBRANCH  60  62
ENDBRANCH   1  60
TORSDOF 17
ENDMDL
MODEL 6
REMARK VINA RESULT:      -3.8      1.368      2.919
REMARK  Name = *****
REMARK                            x       y       z     vdW  Elec       q    Type
REMARK                         _______ _______ _______ _____ _____    ______ ____
ROOT
ATOM      1  C   LIG    1       20.465 -31.789  12.925  0.00  0.00    +0.170 C 
ATOM      2  C   LIG    1       21.721 -31.025  12.295  0.00  0.00    +0.097 C 
ATOM      3  C   LIG    1       22.502 -32.327  11.212  0.00  0.00    +0.065 C 
ATOM      4  C   LIG    1       24.007 -32.419  10.699  0.00  0.00    +0.174 C 
ATOM      5  C   LIG    1       25.377 -31.969  11.605  0.00  0.00    +0.208 C 
ATOM      6  C   LIG    1       25.804 -31.342  12.942  0.00  0.00    -0.023 C 
ATOM      7  C   LIG    1       25.546 -29.782  13.706  0.00  0.00    +0.022 C 
ATOM      8  C   LIG    1       26.522 -30.153  14.992  0.00  0.00    +0.019 C 
ATOM      9  C   LIG    1       26.374 -28.449  13.476  0.00  0.00    +0.019 C 
ATOM     10  C   LIG    1       23.899 -29.415  14.140  0.00  0.00    +0.116 C 
ATOM     11  C   LIG    1       23.623 -30.738  14.718  0.00  0.00    +0.088 C 
ATOM     12  C   LIG    1       23.790 -31.449  13.366  0.00  0.00    +0.205 C 
ATOM     13  C   LIG    1       24.992 -32.188  13.680  0.00  0.00    -0.030 C 
ATOM     14  C   LIG    1       25.317 -33.534  14.072  0.00  0.00    +0.043 C 
ATOM     15  O   LIG    1       24.220 -33.030   9.619  0.00  0.00    -0.294 OA
ATOM     16  C   LIG    1       22.778 -33.825  11.661  0.00  0.00    +0.022 C 
ATOM     17  C   LIG    1       21.418 -32.316  10.006  0.00  0.00    +0.131 C 
ATOM     18  C   LIG    1       19.917 -32.539  10.449  0.00  0.00    +0.068 C 
ATOM     19  C   LIG    1       22.302 -29.494  13.231  0.00  0.00    +0.217 C 
ATOM     20  C   LIG    1       19.592 -31.644  11.658  0.00  0.00    +0.167 C 
ATOM     21  O   LIG    1       18.385 -31.691  12.468  0.00  0.00    -0.368 OA
ATOM     22  C   LIG    1       19.180 -31.217  13.622  0.00  0.00    +0.211 C 
ENDROOT
BRANCH  10  23
ATOM     23  O   LIG    1       23.850 -28.403  15.144  0.00  0.00    -0.384 OA
ATOM     24  H   LIG    1       22.937 -28.336  15.485  0.00  0.00    +0.210 HD
ENDBRANCH  10  23
BRANCH   5  25
ATOM     25  O   LIG    1       26.237 -33.067  11.328  0.00  0.00    -0.380 OA
ATOM     26  H   LIG    1       26.335 -33.536  12.188  0.00  0.00    +0.211 HD
ENDBRANCH   5  25
BRANCH  17  27
ATOM     27  O   LIG    1       21.693 -33.236   8.956  0.00  0.00    -0.391 OA
ATOM     28  H   LIG    1       21.582 -32.757   8.104  0.00  0.00    +0.210 HD
ENDBRANCH  17  27
BRANCH  12  29
ATOM     29  O   LIG    1       23.807 -30.276  11.862  0.00  0.00    -0.455 OA
BRANCH  29  30
ATOM     30  C   LIG    1       24.230 -29.816  10.424  0.00  0.00    +0.339 C 
ATOM     31  O   LIG    1       23.479 -29.403   9.533  0.00  0.00    -0.248 OA
BRANCH  30  32
ATOM     32  C   LIG    1       25.630 -29.546   9.818  0.00  0.00    +0.247 C 
BRANCH  32  33
ATOM     33  O   LIG    1       26.277 -28.328  10.357  0.00  0.00    -0.379 OA
ATOM     34  H   LIG    1       26.146 -27.601   9.722  0.00  0.00    +0.211 HD
ENDBRANCH  32  33
BRANCH  32  35
ATOM     35  C   LIG    1       25.665 -29.373   8.181  0.00  0.00    +0.146 C 
BRANCH  35  36
ATOM     36  C   LIG    1       25.269 -30.476   7.148  0.00  0.00    -0.024 A 
ATOM     37  C   LIG    1       24.176 -31.384   7.174  0.00  0.00    +0.005 A 
ATOM     38  C   LIG    1       23.893 -32.257   6.107  0.00  0.00    +0.000 A 
ATOM     39  C   LIG    1       24.788 -32.352   5.069  0.00  0.00    +0.000 A 
ATOM     40  C   LIG    1       25.934 -31.581   5.100  0.00  0.00    +0.000 A 
ATOM     41  C   LIG    1       26.144 -30.650   6.101  0.00  0.00    +0.005 A 
ENDBRANCH  35  36
BRANCH  35  42
ATOM     42  N   LIG    1       26.690 -28.550   7.637  0.00  0.00    -0.271 N 
ATOM     43  H   LIG    1       27.671 -28.588   7.902  0.00  0.00    +0.153 HD
ATOM     44  C   LIG    1       26.296 -27.305   7.211  0.00  0.00    +0.401 C 
ATOM     45  O   LIG    1       27.099 -26.450   7.122  0.00  0.00    -0.226 OA
BRANCH  44  46
ATOM     46  O   LIG    1       24.990 -27.329   6.873  0.00  0.00    -0.445 OA
BRANCH  46  47
ATOM     47  C   LIG    1       24.438 -26.753   5.666  0.00  0.00    +0.107 C 
ATOM     48  C   LIG    1       23.689 -25.447   6.028  0.00  0.00    +0.055 C 
ATOM     49  C   LIG    1       23.722 -27.784   4.792  0.00  0.00    +0.055 C 
ATOM     50  C   LIG    1       25.414 -26.145   4.758  0.00  0.00    +0.055 C 
ENDBRANCH  46  47
ENDBRANCH  44  46
ENDBRANCH  35  42
ENDBRANCH  32  35
ENDBRANCH  30  32
ENDBRANCH  29  30
ENDBRANCH  12  29
BRANCH  19  51
ATOM     51  O   LIG    1       21.878 -28.195  12.540  0.00  0.00    -0.455 OA
BRANCH  51  52
ATOM     52  C   LIG    1       21.199 -27.242  13.167  0.00  0.00    +0.340 C 
ATOM     53  O   LIG    1       21.766 -26.045  13.197  0.00  0.00    -0.245 OA
BRANCH  52  54
ATOM     54  C   LIG    1       19.893 -27.366  13.894  0.00  0.00    +0.059 A 
ATOM     55  C   LIG    1       19.321 -26.122  13.748  0.00  0.00    +0.015 A 
ATOM     56  C   LIG    1       17.972 -25.933  13.986  0.00  0.00    +0.001 A 
ATOM     57  C   LIG    1       17.126 -26.952  14.422  0.00  0.00    +0.000 A 
ATOM     58  C   LIG    1       17.636 -28.207  14.643  0.00  0.00    +0.001 A 
ATOM     59  C   LIG    1       18.988 -28.416  14.337  0.00  0.00    +0.015 A 
ENDBRANCH  52  54
ENDBRANCH  51  52
ENDBRANCH  19  51
BRANCH   1  60
ATOM     60  O   LIG    1       20.771 -33.180  13.365  0.00  0.00    -0.453 OA
BRANCH  60  62
ATOM     61  C   LIG    1       21.887 -33.630  15.498  0.00  0.00    +0.136 C 
ATOM     62  C   LIG    1       20.642 -33.462  14.712  0.00  0.00    +0.305 C 
ATOM     63  O   LIG    1       19.606 -33.688  15.324  0.00  0.00    -0.251 OA
ENDBRANCH  60  62
ENDBRANCH   1  60
TORSDOF 17
ENDMDL
