MODEL 1
REMARK VINA RESULT:      -6.5      0.000      0.000
REMARK  Name = *****
REMARK                            x       y       z     vdW  Elec       q    Type
REMARK                         _______ _______ _______ _____ _____    ______ ____
ROOT
ATOM      1  C   LIG    1       24.340 -15.853   4.003  0.00  0.00    -0.034 A 
ATOM      2  C   LIG    1       23.050 -15.846   4.554  0.00  0.00    +0.005 A 
ATOM      3  C   LIG    1       22.309 -17.032   4.663  0.00  0.00    +0.004 A 
ATOM      4  C   LIG    1       22.842 -18.256   4.236  0.00  0.00    -0.047 A 
ATOM      5  C   LIG    1       24.137 -18.264   3.706  0.00  0.00    +0.004 A 
ATOM      6  C   LIG    1       24.870 -17.078   3.572  0.00  0.00    +0.005 A 
ENDROOT
BRANCH   1   8
ATOM      7  C   LIG    1       24.324 -13.430   3.330  0.00  0.00    +0.024 C 
ATOM      8  C   LIG    1       25.172 -14.578   3.890  0.00  0.00    +0.124 C 
BRANCH   8   9
ATOM      9  C   LIG    1       26.468 -14.714   3.085  0.00  0.00    +0.312 C 
ATOM     10  O   LIG    1       26.580 -14.389   1.916  0.00  0.00    -0.250 OA
BRANCH   9  11
ATOM     11  O   LIG    1       27.537 -15.150   3.793  0.00  0.00    -0.480 OA
ATOM     12  H   LIG    1       27.756 -16.090   3.655  0.00  0.00    +0.295 HD
ENDBRANCH   9  11
ENDBRANCH   8   9
ENDBRANCH   1   8
BRANCH   4  13
ATOM     13  C   LIG    1       22.041 -19.542   4.347  0.00  0.00    +0.046 C 
BRANCH  13  14
ATOM     14  C   LIG    1       22.698 -20.585   5.258  0.00  0.00    +0.059 C 
ATOM     15  C   LIG    1       24.008 -21.136   4.720  0.00  0.00    +0.137 C 
ATOM     16  O   LIG    1       24.162 -21.571   3.584  0.00  0.00    -0.297 OA
ATOM     17  C   LIG    1       25.105 -21.114   5.757  0.00  0.00    +0.075 C 
ATOM     18  C   LIG    1       24.308 -20.898   7.036  0.00  0.00    +0.008 C 
ATOM     19  C   LIG    1       23.149 -20.010   6.605  0.00  0.00    +0.012 C 
ENDBRANCH  13  14
ENDBRANCH   4  13
TORSDOF 5
ENDMDL
MODEL 2
REMARK VINA RESULT:      -6.0      1.161      1.502
REMARK  Name = *****
REMARK                            x       y       z     vdW  Elec       q    Type
REMARK                         _______ _______ _______ _____ _____    ______ ____
ROOT
ATOM      1  C   LIG    1       24.885 -16.059   3.823  0.00  0.00    -0.034 A 
ATOM      2  C   LIG    1       23.615 -16.609   4.045  0.00  0.00    +0.005 A 
ATOM      3  C   LIG    1       23.393 -17.987   3.903  0.00  0.00    +0.004 A 
ATOM      4  C   LIG    1       24.438 -18.852   3.548  0.00  0.00    -0.047 A 
ATOM      5  C   LIG    1       25.710 -18.304   3.348  0.00  0.00    +0.004 A 
ATOM      6  C   LIG    1       25.928 -16.925   3.463  0.00  0.00    +0.005 A 
ENDROOT
BRANCH   1   8
ATOM      7  C   LIG    1       23.846 -13.770   3.899  0.00  0.00    +0.024 C 
ATOM      8  C   LIG    1       25.154 -14.566   3.987  0.00  0.00    +0.124 C 
BRANCH   8   9
ATOM      9  C   LIG    1       26.191 -13.979   3.025  0.00  0.00    +0.312 C 
ATOM     10  O   LIG    1       26.068 -13.974   1.812  0.00  0.00    -0.250 OA
BRANCH   9  11
ATOM     11  O   LIG    1       27.244 -13.372   3.621  0.00  0.00    -0.480 OA
ATOM     12  H   LIG    1       27.818 -12.869   3.014  0.00  0.00    +0.295 HD
ENDBRANCH   9  11
ENDBRANCH   8   9
ENDBRANCH   1   8
BRANCH   4  13
ATOM     13  C   LIG    1       24.202 -20.344   3.388  0.00  0.00    +0.046 C 
BRANCH  13  14
ATOM     14  C   LIG    1       24.067 -21.080   4.725  0.00  0.00    +0.059 C 
ATOM     15  C   LIG    1       25.239 -20.866   5.669  0.00  0.00    +0.137 C 
ATOM     16  O   LIG    1       26.415 -21.003   5.354  0.00  0.00    -0.297 OA
ATOM     17  C   LIG    1       24.789 -20.488   7.060  0.00  0.00    +0.075 C 
ATOM     18  C   LIG    1       23.315 -20.863   7.014  0.00  0.00    +0.008 C 
ATOM     19  C   LIG    1       22.901 -20.568   5.580  0.00  0.00    +0.012 C 
ENDBRANCH  13  14
ENDBRANCH   4  13
TORSDOF 5
ENDMDL
MODEL 3
REMARK VINA RESULT:      -5.5      1.637      2.453
REMARK  Name = *****
REMARK                            x       y       z     vdW  Elec       q    Type
REMARK                         _______ _______ _______ _____ _____    ______ ____
ROOT
ATOM      1  C   LIG    1       25.528 -14.930   3.694  0.00  0.00    -0.034 A 
ATOM      2  C   LIG    1       26.462 -15.908   3.322  0.00  0.00    +0.005 A 
ATOM      3  C   LIG    1       26.110 -17.265   3.296  0.00  0.00    +0.004 A 
ATOM      4  C   LIG    1       24.814 -17.680   3.630  0.00  0.00    -0.047 A 
ATOM      5  C   LIG    1       23.877 -16.701   3.981  0.00  0.00    +0.004 A 
ATOM      6  C   LIG    1       24.232 -15.347   4.033  0.00  0.00    +0.005 A 
ENDROOT
BRANCH   1   8
ATOM      7  C   LIG    1       25.738 -12.840   2.312  0.00  0.00    +0.024 C 
ATOM      8  C   LIG    1       25.883 -13.446   3.713  0.00  0.00    +0.124 C 
BRANCH   8   9
ATOM      9  C   LIG    1       27.261 -13.111   4.290  0.00  0.00    +0.312 C 
ATOM     10  O   LIG    1       28.200 -12.714   3.621  0.00  0.00    -0.250 OA
BRANCH   9  11
ATOM     11  O   LIG    1       27.355 -13.204   5.637  0.00  0.00    -0.480 OA
ATOM     12  H   LIG    1       26.902 -13.977   6.022  0.00  0.00    +0.295 HD
ENDBRANCH   9  11
ENDBRANCH   8   9
ENDBRANCH   1   8
BRANCH   4  13
ATOM     13  C   LIG    1       24.429 -19.149   3.609  0.00  0.00    +0.046 C 
BRANCH  13  14
ATOM     14  C   LIG    1       23.783 -19.624   4.915  0.00  0.00    +0.059 C 
ATOM     15  C   LIG    1       22.333 -20.052   4.766  0.00  0.00    +0.137 C 
ATOM     16  O   LIG    1       21.467 -19.383   4.214  0.00  0.00    -0.297 OA
ATOM     17  C   LIG    1       22.067 -21.394   5.403  0.00  0.00    +0.075 C 
ATOM     18  C   LIG    1       23.305 -21.570   6.270  0.00  0.00    +0.008 C 
ATOM     19  C   LIG    1       24.416 -20.906   5.468  0.00  0.00    +0.012 C 
ENDBRANCH  13  14
ENDBRANCH   4  13
TORSDOF 5
ENDMDL
MODEL 4
REMARK VINA RESULT:      -5.5      1.417      6.369
REMARK  Name = *****
REMARK                            x       y       z     vdW  Elec       q    Type
REMARK                         _______ _______ _______ _____ _____    ______ ____
ROOT
ATOM      1  C   LIG    1       23.264 -18.676   4.133  0.00  0.00    -0.034 A 
ATOM      2  C   LIG    1       22.441 -17.622   4.552  0.00  0.00    +0.005 A 
ATOM      3  C   LIG    1       22.894 -16.295   4.507  0.00  0.00    +0.004 A 
ATOM      4  C   LIG    1       24.176 -15.987   4.032  0.00  0.00    -0.047 A 
ATOM      5  C   LIG    1       24.989 -17.039   3.594  0.00  0.00    +0.004 A 
ATOM      6  C   LIG    1       24.549 -18.368   3.663  0.00  0.00    +0.005 A 
ENDROOT
BRANCH   1   8
ATOM      7  C   LIG    1       21.288 -20.195   4.472  0.00  0.00    +0.024 C 
ATOM      8  C   LIG    1       22.788 -20.126   4.157  0.00  0.00    +0.124 C 
BRANCH   8   9
ATOM      9  C   LIG    1       23.564 -21.054   5.096  0.00  0.00    +0.312 C 
ATOM     10  O   LIG    1       24.632 -21.570   4.813  0.00  0.00    -0.250 OA
BRANCH   9  11
ATOM     11  O   LIG    1       23.021 -21.206   6.327  0.00  0.00    -0.480 OA
ATOM     12  H   LIG    1       22.073 -21.436   6.325  0.00  0.00    +0.295 HD
ENDBRANCH   9  11
ENDBRANCH   8   9
ENDBRANCH   1   8
BRANCH   4  13
ATOM     13  C   LIG    1       24.673 -14.553   3.986  0.00  0.00    +0.046 C 
BRANCH  13  14
ATOM     14  C   LIG    1       26.190 -14.432   4.169  0.00  0.00    +0.059 C 
ATOM     15  C   LIG    1       26.913 -13.862   2.960  0.00  0.00    +0.137 C 
ATOM     16  O   LIG    1       26.767 -14.266   1.812  0.00  0.00    -0.297 OA
ATOM     17  C   LIG    1       27.862 -12.750   3.336  0.00  0.00    +0.075 C 
ATOM     18  C   LIG    1       27.970 -12.939   4.842  0.00  0.00    +0.008 C 
ATOM     19  C   LIG    1       26.588 -13.426   5.254  0.00  0.00    +0.012 C 
ENDBRANCH  13  14
ENDBRANCH   4  13
TORSDOF 5
ENDMDL
MODEL 5
REMARK VINA RESULT:      -5.1      1.666      6.205
REMARK  Name = *****
REMARK                            x       y       z     vdW  Elec       q    Type
REMARK                         _______ _______ _______ _____ _____    ______ ____
ROOT
ATOM      1  C   LIG    1       23.699 -18.092   4.084  0.00  0.00    -0.034 A 
ATOM      2  C   LIG    1       24.856 -17.455   3.613  0.00  0.00    +0.005 A 
ATOM      3  C   LIG    1       24.953 -16.056   3.606  0.00  0.00    +0.004 A 
ATOM      4  C   LIG    1       23.902 -15.258   4.081  0.00  0.00    -0.047 A 
ATOM      5  C   LIG    1       22.757 -15.897   4.571  0.00  0.00    +0.004 A 
ATOM      6  C   LIG    1       22.646 -17.293   4.554  0.00  0.00    +0.005 A 
ENDROOT
BRANCH   1   8
ATOM      7  C   LIG    1       22.267 -20.034   4.795  0.00  0.00    +0.024 C 
ATOM      8  C   LIG    1       23.576 -19.613   4.117  0.00  0.00    +0.124 C 
BRANCH   8   9
ATOM      9  C   LIG    1       24.758 -20.350   4.755  0.00  0.00    +0.312 C 
ATOM     10  O   LIG    1       24.710 -20.900   5.842  0.00  0.00    -0.250 OA
BRANCH   9  11
ATOM     11  O   LIG    1       25.866 -20.430   3.981  0.00  0.00    -0.480 OA
ATOM     12  H   LIG    1       26.378 -19.603   3.922  0.00  0.00    +0.295 HD
ENDBRANCH   9  11
ENDBRANCH   8   9
ENDBRANCH   1   8
BRANCH   4  13
ATOM     13  C   LIG    1       24.001 -13.742   4.071  0.00  0.00    +0.046 C 
BRANCH  13  14
ATOM     14  C   LIG    1       25.403 -13.230   3.721  0.00  0.00    +0.059 C 
ATOM     15  C   LIG    1       26.477 -13.645   4.712  0.00  0.00    +0.137 C 
ATOM     16  O   LIG    1       26.388 -13.507   5.927  0.00  0.00    -0.297 OA
ATOM     17  C   LIG    1       27.690 -14.227   4.028  0.00  0.00    +0.075 C 
ATOM     18  C   LIG    1       27.466 -13.789   2.588  0.00  0.00    +0.008 C 
ATOM     19  C   LIG    1       25.954 -13.827   2.420  0.00  0.00    +0.012 C 
ENDBRANCH  13  14
ENDBRANCH   4  13
TORSDOF 5
ENDMDL
MODEL 6
REMARK VINA RESULT:      -4.9      1.765      2.709
REMARK  Name = *****
REMARK                            x       y       z     vdW  Elec       q    Type
REMARK                         _______ _______ _______ _____ _____    ______ ____
ROOT
ATOM      1  C   LIG    1       25.604 -15.039   3.734  0.00  0.00    -0.034 A 
ATOM      2  C   LIG    1       24.372 -15.705   3.794  0.00  0.00    +0.005 A 
ATOM      3  C   LIG    1       24.299 -17.096   3.628  0.00  0.00    +0.004 A 
ATOM      4  C   LIG    1       25.455 -17.857   3.408  0.00  0.00    -0.047 A 
ATOM      5  C   LIG    1       26.686 -17.193   3.370  0.00  0.00    +0.004 A 
ATOM      6  C   LIG    1       26.760 -15.801   3.510  0.00  0.00    +0.005 A 
ENDROOT
BRANCH   1   8
ATOM      7  C   LIG    1       26.381 -13.205   5.271  0.00  0.00    +0.024 C 
ATOM      8  C   LIG    1       25.711 -13.529   3.930  0.00  0.00    +0.124 C 
BRANCH   8   9
ATOM      9  C   LIG    1       24.393 -12.759   3.802  0.00  0.00    +0.312 C 
ATOM     10  O   LIG    1       23.835 -12.207   4.735  0.00  0.00    -0.250 OA
BRANCH   9  11
ATOM     11  O   LIG    1       23.913 -12.652   2.541  0.00  0.00    -0.480 OA
ATOM     12  H   LIG    1       24.079 -13.431   1.978  0.00  0.00    +0.295 HD
ENDBRANCH   9  11
ENDBRANCH   8   9
ENDBRANCH   1   8
BRANCH   4  13
ATOM     13  C   LIG    1       25.380 -19.363   3.222  0.00  0.00    +0.046 C 
BRANCH  13  14
ATOM     14  C   LIG    1       24.093 -19.978   3.782  0.00  0.00    +0.059 C 
ATOM     15  C   LIG    1       24.275 -20.679   5.118  0.00  0.00    +0.137 C 
ATOM     16  O   LIG    1       25.146 -21.510   5.351  0.00  0.00    -0.297 OA
ATOM     17  C   LIG    1       23.239 -20.256   6.131  0.00  0.00    +0.075 C 
ATOM     18  C   LIG    1       22.205 -19.579   5.242  0.00  0.00    +0.008 C 
ATOM     19  C   LIG    1       23.032 -18.931   4.140  0.00  0.00    +0.012 C 
ENDBRANCH  13  14
ENDBRANCH   4  13
TORSDOF 5
ENDMDL
MODEL 7
REMARK VINA RESULT:      -4.8      1.593      6.575
REMARK  Name = *****
REMARK                            x       y       z     vdW  Elec       q    Type
REMARK                         _______ _______ _______ _____ _____    ______ ____
ROOT
ATOM      1  C   LIG    1       24.148 -19.585   4.298  0.00  0.00    -0.034 A 
ATOM      2  C   LIG    1       23.408 -18.400   4.177  0.00  0.00    +0.005 A 
ATOM      3  C   LIG    1       24.013 -17.217   3.728  0.00  0.00    +0.004 A 
ATOM      4  C   LIG    1       25.370 -17.191   3.378  0.00  0.00    -0.047 A 
ATOM      5  C   LIG    1       26.102 -18.379   3.479  0.00  0.00    +0.004 A 
ATOM      6  C   LIG    1       25.507 -19.555   3.952  0.00  0.00    +0.005 A 
ENDROOT
BRANCH   1   8
ATOM      7  C   LIG    1       21.978 -20.770   4.760  0.00  0.00    +0.024 C 
ATOM      8  C   LIG    1       23.507 -20.888   4.769  0.00  0.00    +0.124 C 
BRANCH   8   9
ATOM      9  C   LIG    1       23.985 -21.396   6.132  0.00  0.00    +0.312 C 
ATOM     10  O   LIG    1       25.157 -21.566   6.421  0.00  0.00    -0.250 OA
BRANCH   9  11
ATOM     11  O   LIG    1       23.008 -21.571   7.052  0.00  0.00    -0.480 OA
ATOM     12  H   LIG    1       22.683 -20.746   7.459  0.00  0.00    +0.295 HD
ENDBRANCH   9  11
ENDBRANCH   8   9
ENDBRANCH   1   8
BRANCH   4  13
ATOM     13  C   LIG    1       26.032 -15.911   2.895  0.00  0.00    +0.046 C 
BRANCH  13  14
ATOM     14  C   LIG    1       25.675 -14.688   3.747  0.00  0.00    +0.059 C 
ATOM     15  C   LIG    1       26.211 -13.376   3.199  0.00  0.00    +0.137 C 
ATOM     16  O   LIG    1       27.374 -13.192   2.858  0.00  0.00    -0.297 OA
ATOM     17  C   LIG    1       25.149 -12.305   3.143  0.00  0.00    +0.075 C 
ATOM     18  C   LIG    1       24.069 -12.902   4.034  0.00  0.00    +0.008 C 
ATOM     19  C   LIG    1       24.169 -14.400   3.786  0.00  0.00    +0.012 C 
ENDBRANCH  13  14
ENDBRANCH   4  13
TORSDOF 5
ENDMDL
MODEL 8
REMARK VINA RESULT:      -4.6      1.653      6.634
REMARK  Name = *****
REMARK                            x       y       z     vdW  Elec       q    Type
REMARK                         _______ _______ _______ _____ _____    ______ ____
ROOT
ATOM      1  C   LIG    1       24.571 -19.729   4.306  0.00  0.00    -0.034 A 
ATOM      2  C   LIG    1       25.951 -19.571   4.115  0.00  0.00    +0.005 A 
ATOM      3  C   LIG    1       26.480 -18.349   3.676  0.00  0.00    +0.004 A 
ATOM      4  C   LIG    1       25.645 -17.250   3.427  0.00  0.00    -0.047 A 
ATOM      5  C   LIG    1       24.270 -17.404   3.638  0.00  0.00    +0.004 A 
ATOM      6  C   LIG    1       23.736 -18.631   4.051  0.00  0.00    +0.005 A 
ENDROOT
BRANCH   1   8
ATOM      7  C   LIG    1       22.478 -21.115   4.469  0.00  0.00    +0.024 C 
ATOM      8  C   LIG    1       23.974 -21.045   4.800  0.00  0.00    +0.124 C 
BRANCH   8   9
ATOM      9  C   LIG    1       24.197 -21.346   6.285  0.00  0.00    +0.312 C 
ATOM     10  O   LIG    1       25.290 -21.570   6.777  0.00  0.00    -0.250 OA
BRANCH   9  11
ATOM     11  O   LIG    1       23.088 -21.265   7.057  0.00  0.00    -0.480 OA
ATOM     12  H   LIG    1       22.293 -20.946   6.591  0.00  0.00    +0.295 HD
ENDBRANCH   9  11
ENDBRANCH   8   9
ENDBRANCH   1   8
BRANCH   4  13
ATOM     13  C   LIG    1       26.212 -15.926   2.946  0.00  0.00    +0.046 C 
BRANCH  13  14
ATOM     14  C   LIG    1       25.743 -14.729   3.780  0.00  0.00    +0.059 C 
ATOM     15  C   LIG    1       25.902 -13.389   3.081  0.00  0.00    +0.137 C 
ATOM     16  O   LIG    1       26.935 -13.009   2.541  0.00  0.00    -0.297 OA
ATOM     17  C   LIG    1       24.644 -12.558   3.147  0.00  0.00    +0.075 C 
ATOM     18  C   LIG    1       23.863 -13.277   4.238  0.00  0.00    +0.008 C 
ATOM     19  C   LIG    1       24.235 -14.742   4.055  0.00  0.00    +0.012 C 
ENDBRANCH  13  14
ENDBRANCH   4  13
TORSDOF 5
ENDMDL
MODEL 9
REMARK VINA RESULT:      -4.4      2.119      6.664
REMARK  Name = *****
REMARK                            x       y       z     vdW  Elec       q    Type
REMARK                         _______ _______ _______ _____ _____    ______ ____
ROOT
ATOM      1  C   LIG    1       25.550 -19.046   3.989  0.00  0.00    -0.034 A 
ATOM      2  C   LIG    1       24.510 -18.165   3.660  0.00  0.00    +0.005 A 
ATOM      3  C   LIG    1       24.767 -16.809   3.415  0.00  0.00    +0.004 A 
ATOM      4  C   LIG    1       26.071 -16.299   3.482  0.00  0.00    -0.047 A 
ATOM      5  C   LIG    1       27.111 -17.184   3.789  0.00  0.00    +0.004 A 
ATOM      6  C   LIG    1       26.854 -18.534   4.060  0.00  0.00    +0.005 A 
ENDROOT
BRANCH   1   8
ATOM      7  C   LIG    1       23.985 -20.973   3.584  0.00  0.00    +0.024 C 
ATOM      8  C   LIG    1       25.297 -20.529   4.243  0.00  0.00    +0.124 C 
BRANCH   8   9
ATOM      9  C   LIG    1       25.314 -20.952   5.715  0.00  0.00    +0.312 C 
ATOM     10  O   LIG    1       24.363 -20.830   6.469  0.00  0.00    -0.250 OA
BRANCH   9  11
ATOM     11  O   LIG    1       26.451 -21.566   6.121  0.00  0.00    -0.480 OA
ATOM     12  H   LIG    1       26.407 -22.540   6.119  0.00  0.00    +0.295 HD
ENDBRANCH   9  11
ENDBRANCH   8   9
ENDBRANCH   1   8
BRANCH   4  13
ATOM     13  C   LIG    1       26.354 -14.829   3.222  0.00  0.00    +0.046 C 
BRANCH  13  14
ATOM     14  C   LIG    1       25.119 -14.048   2.763  0.00  0.00    +0.059 C 
ATOM     15  C   LIG    1       24.289 -13.481   3.903  0.00  0.00    +0.137 C 
ATOM     16  O   LIG    1       23.907 -14.129   4.870  0.00  0.00    -0.297 OA
ATOM     17  C   LIG    1       23.960 -12.022   3.697  0.00  0.00    +0.075 C 
ATOM     18  C   LIG    1       24.285 -11.842   2.222  0.00  0.00    +0.008 C 
ATOM     19  C   LIG    1       25.467 -12.772   1.987  0.00  0.00    +0.012 C 
ENDBRANCH  13  14
ENDBRANCH   4  13
TORSDOF 5
ENDMDL
