MODEL 1
REMARK VINA RESULT:      -8.9      0.000      0.000
REMARK  Name = *****
REMARK                            x       y       z     vdW  Elec       q    Type
REMARK                         _______ _______ _______ _____ _____    ______ ____
ROOT
ATOM      1  C   LIG    1       26.233 -20.984   6.620  0.00  0.00    +0.117 C 
ENDROOT
BRANCH   1   2
ATOM      2  N   LIG    1       25.620 -21.909   5.652  0.00  0.00    -0.310 NA
ATOM      3  H   LIG    1       24.918 -21.409   5.103  0.00  0.00    +0.122 HD
BRANCH   2   5
ATOM      4  C   LIG    1       23.633 -22.771   6.895  0.00  0.00    +0.024 C 
ATOM      5  C   LIG    1       25.009 -23.095   6.293  0.00  0.00    +0.055 C 
BRANCH   5   6
ATOM      6  C   LIG    1       24.910 -24.240   5.245  0.00  0.00    +0.053 C 
BRANCH   6   7
ATOM      7  C   LIG    1       25.026 -25.635   5.830  0.00  0.00    -0.046 A 
ATOM      8  C   LIG    1       24.228 -26.684   5.352  0.00  0.00    +0.007 A 
ATOM      9  C   LIG    1       24.387 -27.981   5.846  0.00  0.00    +0.045 A 
ATOM     10  C   LIG    1       25.323 -28.230   6.842  0.00  0.00    +0.117 A 
ATOM     11  C   LIG    1       26.098 -27.200   7.360  0.00  0.00    +0.045 A 
ATOM     12  C   LIG    1       25.951 -25.905   6.852  0.00  0.00    +0.007 A 
BRANCH  10  13
ATOM     13  O   LIG    1       25.448 -29.512   7.290  0.00  0.00    -0.507 OA
ATOM     14  H   LIG    1       25.613 -29.492   8.247  0.00  0.00    +0.292 HD
ENDBRANCH  10  13
ENDBRANCH   6   7
ENDBRANCH   5   6
ENDBRANCH   2   5
ENDBRANCH   1   2
BRANCH   1  15
ATOM     15  C   LIG    1       27.412 -21.574   7.437  0.00  0.00    +0.158 C 
BRANCH  15  16
ATOM     16  C   LIG    1       28.688 -20.761   7.336  0.00  0.00    -0.011 A 
ATOM     17  C   LIG    1       28.817 -19.771   6.347  0.00  0.00    +0.051 A 
ATOM     18  C   LIG    1       29.980 -19.015   6.261  0.00  0.00    +0.121 A 
ATOM     19  C   LIG    1       31.035 -19.216   7.145  0.00  0.00    +0.090 A 
ATOM     20  C   LIG    1       30.910 -20.197   8.124  0.00  0.00    +0.121 A 
ATOM     21  C   LIG    1       29.758 -20.971   8.222  0.00  0.00    +0.051 A 
BRANCH  18  22
ATOM     22  O   LIG    1       30.048 -18.063   5.286  0.00  0.00    -0.507 OA
ATOM     23  H   LIG    1       30.857 -17.542   5.417  0.00  0.00    +0.292 HD
ENDBRANCH  18  22
BRANCH  20  24
ATOM     24  O   LIG    1       31.954 -20.365   8.985  0.00  0.00    -0.507 OA
ATOM     25  H   LIG    1       32.384 -21.214   8.792  0.00  0.00    +0.292 HD
ENDBRANCH  20  24
ENDBRANCH  15  16
BRANCH  15  26
ATOM     26  O   LIG    1       27.010 -21.641   8.813  0.00  0.00    -0.386 OA
ATOM     27  H   LIG    1       27.766 -21.361   9.356  0.00  0.00    +0.210 HD
ENDBRANCH  15  26
ENDBRANCH   1  15
TORSDOF 10
ENDMDL
MODEL 2
REMARK VINA RESULT:      -8.8      0.063      1.032
REMARK  Name = *****
REMARK                            x       y       z     vdW  Elec       q    Type
REMARK                         _______ _______ _______ _____ _____    ______ ____
ROOT
ATOM      1  C   LIG    1       26.220 -20.969   6.591  0.00  0.00    +0.117 C 
ENDROOT
BRANCH   1   2
ATOM      2  N   LIG    1       25.611 -21.912   5.637  0.00  0.00    -0.310 NA
ATOM      3  H   LIG    1       24.890 -21.431   5.097  0.00  0.00    +0.122 HD
BRANCH   2   5
ATOM      4  C   LIG    1       23.690 -22.792   6.968  0.00  0.00    +0.024 C 
ATOM      5  C   LIG    1       25.035 -23.107   6.295  0.00  0.00    +0.055 C 
BRANCH   5   6
ATOM      6  C   LIG    1       24.886 -24.241   5.242  0.00  0.00    +0.053 C 
BRANCH   6   7
ATOM      7  C   LIG    1       25.068 -25.640   5.800  0.00  0.00    -0.046 A 
ATOM      8  C   LIG    1       26.014 -25.897   6.803  0.00  0.00    +0.007 A 
ATOM      9  C   LIG    1       26.130 -27.172   7.361  0.00  0.00    +0.045 A 
ATOM     10  C   LIG    1       25.323 -28.205   6.899  0.00  0.00    +0.117 A 
ATOM     11  C   LIG    1       24.405 -27.984   5.879  0.00  0.00    +0.045 A 
ATOM     12  C   LIG    1       24.277 -26.703   5.333  0.00  0.00    +0.007 A 
BRANCH  10  13
ATOM     13  O   LIG    1       25.466 -29.431   7.477  0.00  0.00    -0.507 OA
ATOM     14  H   LIG    1       25.650 -30.084   6.780  0.00  0.00    +0.292 HD
ENDBRANCH  10  13
ENDBRANCH   6   7
ENDBRANCH   5   6
ENDBRANCH   2   5
ENDBRANCH   1   2
BRANCH   1  15
ATOM     15  C   LIG    1       27.380 -21.549   7.439  0.00  0.00    +0.158 C 
BRANCH  15  16
ATOM     16  C   LIG    1       28.665 -20.749   7.340  0.00  0.00    -0.011 A 
ATOM     17  C   LIG    1       28.800 -19.751   6.361  0.00  0.00    +0.051 A 
ATOM     18  C   LIG    1       29.971 -19.007   6.276  0.00  0.00    +0.121 A 
ATOM     19  C   LIG    1       31.028 -19.228   7.153  0.00  0.00    +0.090 A 
ATOM     20  C   LIG    1       30.896 -20.217   8.123  0.00  0.00    +0.121 A 
ATOM     21  C   LIG    1       29.737 -20.980   8.219  0.00  0.00    +0.051 A 
BRANCH  18  22
ATOM     22  O   LIG    1       30.044 -18.046   5.311  0.00  0.00    -0.507 OA
ATOM     23  H   LIG    1       30.331 -17.214   5.722  0.00  0.00    +0.292 HD
ENDBRANCH  18  22
BRANCH  20  24
ATOM     24  O   LIG    1       31.943 -20.405   8.977  0.00  0.00    -0.507 OA
ATOM     25  H   LIG    1       31.601 -20.436   9.887  0.00  0.00    +0.292 HD
ENDBRANCH  20  24
ENDBRANCH  15  16
BRANCH  15  26
ATOM     26  O   LIG    1       26.956 -21.582   8.810  0.00  0.00    -0.386 OA
ATOM     27  H   LIG    1       26.988 -20.672   9.151  0.00  0.00    +0.210 HD
ENDBRANCH  15  26
ENDBRANCH   1  15
TORSDOF 10
ENDMDL
MODEL 3
REMARK VINA RESULT:      -8.8      1.902      7.873
REMARK  Name = *****
REMARK                            x       y       z     vdW  Elec       q    Type
REMARK                         _______ _______ _______ _____ _____    ______ ____
ROOT
ATOM      1  C   LIG    1       24.551 -23.828   6.660  0.00  0.00    +0.117 C 
ENDROOT
BRANCH   1   2
ATOM      2  N   LIG    1       23.435 -23.074   6.065  0.00  0.00    -0.310 NA
ATOM      3  H   LIG    1       23.152 -23.521   5.191  0.00  0.00    +0.122 HD
BRANCH   2   5
ATOM      4  C   LIG    1       22.532 -20.849   5.376  0.00  0.00    +0.024 C 
ATOM      5  C   LIG    1       23.765 -21.651   5.820  0.00  0.00    +0.055 C 
BRANCH   5   6
ATOM      6  C   LIG    1       24.394 -21.049   7.108  0.00  0.00    +0.053 C 
BRANCH   6   7
ATOM      7  C   LIG    1       25.838 -20.608   6.952  0.00  0.00    -0.046 A 
ATOM      8  C   LIG    1       26.683 -20.509   8.067  0.00  0.00    +0.007 A 
ATOM      9  C   LIG    1       28.029 -20.169   7.911  0.00  0.00    +0.045 A 
ATOM     10  C   LIG    1       28.529 -19.897   6.643  0.00  0.00    +0.117 A 
ATOM     11  C   LIG    1       27.702 -19.950   5.528  0.00  0.00    +0.045 A 
ATOM     12  C   LIG    1       26.359 -20.308   5.683  0.00  0.00    +0.007 A 
BRANCH  10  13
ATOM     13  O   LIG    1       29.850 -19.575   6.537  0.00  0.00    -0.507 OA
ATOM     14  H   LIG    1       30.163 -19.832   5.653  0.00  0.00    +0.292 HD
ENDBRANCH  10  13
ENDBRANCH   6   7
ENDBRANCH   5   6
ENDBRANCH   2   5
ENDBRANCH   1   2
BRANCH   1  15
ATOM     15  C   LIG    1       25.268 -24.810   5.697  0.00  0.00    +0.158 C 
BRANCH  15  16
ATOM     16  C   LIG    1       25.188 -26.259   6.136  0.00  0.00    -0.011 A 
ATOM     17  C   LIG    1       26.027 -26.734   7.158  0.00  0.00    +0.051 A 
ATOM     18  C   LIG    1       25.945 -28.058   7.572  0.00  0.00    +0.121 A 
ATOM     19  C   LIG    1       25.038 -28.938   6.992  0.00  0.00    +0.090 A 
ATOM     20  C   LIG    1       24.206 -28.470   5.979  0.00  0.00    +0.121 A 
ATOM     21  C   LIG    1       24.277 -27.150   5.543  0.00  0.00    +0.051 A 
BRANCH  18  22
ATOM     22  O   LIG    1       26.779 -28.463   8.573  0.00  0.00    -0.507 OA
ATOM     23  H   LIG    1       26.558 -29.379   8.810  0.00  0.00    +0.292 HD
ENDBRANCH  18  22
BRANCH  20  24
ATOM     24  O   LIG    1       23.317 -29.350   5.437  0.00  0.00    -0.507 OA
ATOM     25  H   LIG    1       23.552 -29.497   4.505  0.00  0.00    +0.292 HD
ENDBRANCH  20  24
ENDBRANCH  15  16
BRANCH  15  26
ATOM     26  O   LIG    1       24.666 -24.681   4.402  0.00  0.00    -0.386 OA
ATOM     27  H   LIG    1       23.950 -25.336   4.341  0.00  0.00    +0.210 HD
ENDBRANCH  15  26
ENDBRANCH   1  15
TORSDOF 10
ENDMDL
MODEL 4
REMARK VINA RESULT:      -8.8      0.096      2.044
REMARK  Name = *****
REMARK                            x       y       z     vdW  Elec       q    Type
REMARK                         _______ _______ _______ _____ _____    ______ ____
ROOT
ATOM      1  C   LIG    1       26.192 -21.056   6.620  0.00  0.00    +0.117 C 
ENDROOT
BRANCH   1   2
ATOM      2  N   LIG    1       25.624 -22.008   5.651  0.00  0.00    -0.310 NA
ATOM      3  H   LIG    1       24.926 -21.532   5.076  0.00  0.00    +0.122 HD
BRANCH   2   5
ATOM      4  C   LIG    1       23.655 -22.874   6.921  0.00  0.00    +0.024 C 
ATOM      5  C   LIG    1       25.021 -23.197   6.295  0.00  0.00    +0.055 C 
BRANCH   5   6
ATOM      6  C   LIG    1       24.904 -24.337   5.244  0.00  0.00    +0.053 C 
BRANCH   6   7
ATOM      7  C   LIG    1       25.078 -25.733   5.812  0.00  0.00    -0.046 A 
ATOM      8  C   LIG    1       26.014 -25.984   6.826  0.00  0.00    +0.007 A 
ATOM      9  C   LIG    1       26.123 -27.256   7.394  0.00  0.00    +0.045 A 
ATOM     10  C   LIG    1       25.319 -28.290   6.930  0.00  0.00    +0.117 A 
ATOM     11  C   LIG    1       24.412 -28.075   5.899  0.00  0.00    +0.045 A 
ATOM     12  C   LIG    1       24.291 -26.797   5.344  0.00  0.00    +0.007 A 
BRANCH  10  13
ATOM     13  O   LIG    1       25.455 -29.513   7.517  0.00  0.00    -0.507 OA
ATOM     14  H   LIG    1       26.390 -29.773   7.480  0.00  0.00    +0.292 HD
ENDBRANCH  10  13
ENDBRANCH   6   7
ENDBRANCH   5   6
ENDBRANCH   2   5
ENDBRANCH   1   2
BRANCH   1  15
ATOM     15  C   LIG    1       27.386 -21.596   7.449  0.00  0.00    +0.158 C 
BRANCH  15  16
ATOM     16  C   LIG    1       28.638 -20.749   7.334  0.00  0.00    -0.011 A 
ATOM     17  C   LIG    1       29.716 -20.960   8.210  0.00  0.00    +0.051 A 
ATOM     18  C   LIG    1       30.871 -20.195   8.097  0.00  0.00    +0.121 A 
ATOM     19  C   LIG    1       30.988 -19.211   7.121  0.00  0.00    +0.090 A 
ATOM     20  C   LIG    1       29.922 -19.000   6.252  0.00  0.00    +0.121 A 
ATOM     21  C   LIG    1       28.753 -19.748   6.354  0.00  0.00    +0.051 A 
BRANCH  18  22
ATOM     22  O   LIG    1       31.888 -20.448   8.970  0.00  0.00    -0.507 OA
ATOM     23  H   LIG    1       32.015 -19.667   9.533  0.00  0.00    +0.292 HD
ENDBRANCH  18  22
BRANCH  20  24
ATOM     24  O   LIG    1       30.069 -18.038   5.297  0.00  0.00    -0.507 OA
ATOM     25  H   LIG    1       29.695 -17.206   5.632  0.00  0.00    +0.292 HD
ENDBRANCH  20  24
ENDBRANCH  15  16
BRANCH  15  26
ATOM     26  O   LIG    1       26.984 -21.647   8.825  0.00  0.00    -0.386 OA
ATOM     27  H   LIG    1       26.750 -22.569   9.031  0.00  0.00    +0.210 HD
ENDBRANCH  15  26
ENDBRANCH   1  15
TORSDOF 10
ENDMDL
MODEL 5
REMARK VINA RESULT:      -8.7      1.839      7.626
REMARK  Name = *****
REMARK                            x       y       z     vdW  Elec       q    Type
REMARK                         _______ _______ _______ _____ _____    ______ ____
ROOT
ATOM      1  C   LIG    1       24.490 -23.855   6.638  0.00  0.00    +0.117 C 
ENDROOT
BRANCH   1   2
ATOM      2  N   LIG    1       23.617 -22.916   5.913  0.00  0.00    -0.310 NA
ATOM      3  H   LIG    1       23.510 -23.230   4.947  0.00  0.00    +0.122 HD
BRANCH   2   5
ATOM      4  C   LIG    1       22.978 -20.505   5.788  0.00  0.00    +0.024 C 
ATOM      5  C   LIG    1       24.118 -21.523   5.939  0.00  0.00    +0.055 C 
BRANCH   5   6
ATOM      6  C   LIG    1       24.905 -21.295   7.261  0.00  0.00    +0.053 C 
BRANCH   6   7
ATOM      7  C   LIG    1       26.380 -20.994   7.066  0.00  0.00    -0.046 A 
ATOM      8  C   LIG    1       26.823 -20.259   5.958  0.00  0.00    +0.007 A 
ATOM      9  C   LIG    1       28.172 -19.925   5.819  0.00  0.00    +0.045 A 
ATOM     10  C   LIG    1       29.091 -20.351   6.772  0.00  0.00    +0.117 A 
ATOM     11  C   LIG    1       28.681 -21.115   7.859  0.00  0.00    +0.045 A 
ATOM     12  C   LIG    1       27.327 -21.432   8.006  0.00  0.00    +0.007 A 
BRANCH  10  13
ATOM     13  O   LIG    1       30.396 -19.998   6.600  0.00  0.00    -0.507 OA
ATOM     14  H   LIG    1       30.627 -20.110   5.663  0.00  0.00    +0.292 HD
ENDBRANCH  10  13
ENDBRANCH   6   7
ENDBRANCH   5   6
ENDBRANCH   2   5
ENDBRANCH   1   2
BRANCH   1  15
ATOM     15  C   LIG    1       25.271 -24.851   5.742  0.00  0.00    +0.158 C 
BRANCH  15  16
ATOM     16  C   LIG    1       25.195 -26.288   6.221  0.00  0.00    -0.011 A 
ATOM     17  C   LIG    1       24.270 -27.175   5.644  0.00  0.00    +0.051 A 
ATOM     18  C   LIG    1       24.208 -28.496   6.070  0.00  0.00    +0.121 A 
ATOM     19  C   LIG    1       25.053 -28.970   7.069  0.00  0.00    +0.090 A 
ATOM     20  C   LIG    1       25.968 -28.092   7.642  0.00  0.00    +0.121 A 
ATOM     21  C   LIG    1       26.042 -26.764   7.236  0.00  0.00    +0.051 A 
BRANCH  18  22
ATOM     22  O   LIG    1       23.296 -29.315   5.470  0.00  0.00    -0.507 OA
ATOM     23  H   LIG    1       23.518 -30.236   5.685  0.00  0.00    +0.292 HD
ENDBRANCH  18  22
BRANCH  20  24
ATOM     24  O   LIG    1       26.793 -28.586   8.609  0.00  0.00    -0.507 OA
ATOM     25  H   LIG    1       26.319 -28.579   9.458  0.00  0.00    +0.292 HD
ENDBRANCH  20  24
ENDBRANCH  15  16
BRANCH  15  26
ATOM     26  O   LIG    1       24.733 -24.772   4.415  0.00  0.00    -0.386 OA
ATOM     27  H   LIG    1       24.418 -23.862   4.276  0.00  0.00    +0.210 HD
ENDBRANCH  15  26
ENDBRANCH   1  15
TORSDOF 10
ENDMDL
MODEL 6
REMARK VINA RESULT:      -8.7      3.031      8.999
REMARK  Name = *****
REMARK                            x       y       z     vdW  Elec       q    Type
REMARK                         _______ _______ _______ _____ _____    ______ ____
ROOT
ATOM      1  C   LIG    1       27.037 -20.461   7.486  0.00  0.00    +0.117 C 
ENDROOT
BRANCH   1   2
ATOM      2  N   LIG    1       27.996 -19.913   8.460  0.00  0.00    -0.310 NA
ATOM      3  H   LIG    1       27.655 -19.013   8.802  0.00  0.00    +0.122 HD
BRANCH   2   5
ATOM      4  C   LIG    1       29.490 -20.424   6.524  0.00  0.00    +0.024 C 
ATOM      5  C   LIG    1       29.360 -19.758   7.903  0.00  0.00    +0.055 C 
BRANCH   5   6
ATOM      6  C   LIG    1       29.707 -18.245   7.833  0.00  0.00    +0.053 C 
BRANCH   6   7
ATOM      7  C   LIG    1       30.576 -17.749   8.974  0.00  0.00    -0.046 A 
ATOM      8  C   LIG    1       31.921 -17.414   8.760  0.00  0.00    +0.007 A 
ATOM      9  C   LIG    1       32.697 -16.893   9.798  0.00  0.00    +0.045 A 
ATOM     10  C   LIG    1       32.142 -16.732  11.062  0.00  0.00    +0.117 A 
ATOM     11  C   LIG    1       30.823 -17.094  11.308  0.00  0.00    +0.045 A 
ATOM     12  C   LIG    1       30.041 -17.599  10.264  0.00  0.00    +0.007 A 
BRANCH  10  13
ATOM     13  O   LIG    1       32.935 -16.215  12.043  0.00  0.00    -0.507 OA
ATOM     14  H   LIG    1       33.206 -16.935  12.637  0.00  0.00    +0.292 HD
ENDBRANCH  10  13
ENDBRANCH   6   7
ENDBRANCH   5   6
ENDBRANCH   2   5
ENDBRANCH   1   2
BRANCH   1  15
ATOM     15  C   LIG    1       25.652 -20.843   8.071  0.00  0.00    +0.158 C 
BRANCH  15  16
ATOM     16  C   LIG    1       25.088 -22.131   7.505  0.00  0.00    -0.011 A 
ATOM     17  C   LIG    1       25.945 -23.200   7.194  0.00  0.00    +0.051 A 
ATOM     18  C   LIG    1       25.429 -24.388   6.689  0.00  0.00    +0.121 A 
ATOM     19  C   LIG    1       24.062 -24.547   6.482  0.00  0.00    +0.090 A 
ATOM     20  C   LIG    1       23.212 -23.488   6.788  0.00  0.00    +0.121 A 
ATOM     21  C   LIG    1       23.709 -22.288   7.287  0.00  0.00    +0.051 A 
BRANCH  18  22
ATOM     22  O   LIG    1       26.306 -25.395   6.412  0.00  0.00    -0.507 OA
ATOM     23  H   LIG    1       26.520 -25.856   7.239  0.00  0.00    +0.292 HD
ENDBRANCH  18  22
BRANCH  20  24
ATOM     24  O   LIG    1       21.876 -23.676   6.588  0.00  0.00    -0.507 OA
ATOM     25  H   LIG    1       21.648 -24.587   6.838  0.00  0.00    +0.292 HD
ENDBRANCH  20  24
ENDBRANCH  15  16
BRANCH  15  26
ATOM     26  O   LIG    1       25.793 -20.980   9.492  0.00  0.00    -0.386 OA
ATOM     27  H   LIG    1       24.949 -21.313   9.843  0.00  0.00    +0.210 HD
ENDBRANCH  15  26
ENDBRANCH   1  15
TORSDOF 10
ENDMDL
MODEL 7
REMARK VINA RESULT:      -8.7      2.951      8.803
REMARK  Name = *****
REMARK                            x       y       z     vdW  Elec       q    Type
REMARK                         _______ _______ _______ _____ _____    ______ ____
ROOT
ATOM      1  C   LIG    1       26.848 -20.335   7.460  0.00  0.00    +0.117 C 
ENDROOT
BRANCH   1   2
ATOM      2  N   LIG    1       27.901 -19.934   8.409  0.00  0.00    -0.310 NA
ATOM      3  H   LIG    1       27.702 -18.995   8.759  0.00  0.00    +0.122 HD
BRANCH   2   5
ATOM      4  C   LIG    1       29.286 -20.791   6.516  0.00  0.00    +0.024 C 
ATOM      5  C   LIG    1       29.258 -19.975   7.817  0.00  0.00    +0.055 C 
BRANCH   5   6
ATOM      6  C   LIG    1       29.750 -18.520   7.580  0.00  0.00    +0.053 C 
BRANCH   6   7
ATOM      7  C   LIG    1       30.517 -17.921   8.745  0.00  0.00    -0.046 A 
ATOM      8  C   LIG    1       31.872 -17.584   8.616  0.00  0.00    +0.007 A 
ATOM      9  C   LIG    1       32.555 -16.971   9.668  0.00  0.00    +0.045 A 
ATOM     10  C   LIG    1       31.897 -16.719  10.866  0.00  0.00    +0.117 A 
ATOM     11  C   LIG    1       30.565 -17.079  11.032  0.00  0.00    +0.045 A 
ATOM     12  C   LIG    1       29.876 -17.677   9.971  0.00  0.00    +0.007 A 
BRANCH  10  13
ATOM     13  O   LIG    1       32.601 -16.113  11.864  0.00  0.00    -0.507 OA
ATOM     14  H   LIG    1       33.389 -15.694  11.478  0.00  0.00    +0.292 HD
ENDBRANCH  10  13
ENDBRANCH   6   7
ENDBRANCH   5   6
ENDBRANCH   2   5
ENDBRANCH   1   2
BRANCH   1  15
ATOM     15  C   LIG    1       25.536 -20.843   8.112  0.00  0.00    +0.158 C 
BRANCH  15  16
ATOM     16  C   LIG    1       25.042 -22.157   7.539  0.00  0.00    -0.011 A 
ATOM     17  C   LIG    1       23.671 -22.351   7.299  0.00  0.00    +0.051 A 
ATOM     18  C   LIG    1       23.217 -23.549   6.760  0.00  0.00    +0.121 A 
ATOM     19  C   LIG    1       24.100 -24.576   6.447  0.00  0.00    +0.090 A 
ATOM     20  C   LIG    1       25.459 -24.387   6.685  0.00  0.00    +0.121 A 
ATOM     21  C   LIG    1       25.933 -23.199   7.232  0.00  0.00    +0.051 A 
BRANCH  18  22
ATOM     22  O   LIG    1       21.877 -23.679   6.541  0.00  0.00    -0.507 OA
ATOM     23  H   LIG    1       21.432 -22.871   6.845  0.00  0.00    +0.292 HD
ENDBRANCH  18  22
BRANCH  20  24
ATOM     24  O   LIG    1       26.304 -25.405   6.357  0.00  0.00    -0.507 OA
ATOM     25  H   LIG    1       26.086 -25.715   5.461  0.00  0.00    +0.292 HD
ENDBRANCH  20  24
ENDBRANCH  15  16
BRANCH  15  26
ATOM     26  O   LIG    1       25.772 -21.006   9.517  0.00  0.00    -0.386 OA
ATOM     27  H   LIG    1       25.259 -21.776   9.816  0.00  0.00    +0.210 HD
ENDBRANCH  15  26
ENDBRANCH   1  15
TORSDOF 10
ENDMDL
MODEL 8
REMARK VINA RESULT:      -8.6      3.693      8.151
REMARK  Name = *****
REMARK                            x       y       z     vdW  Elec       q    Type
REMARK                         _______ _______ _______ _____ _____    ______ ____
ROOT
ATOM      1  C   LIG    1       25.134 -23.930   6.833  0.00  0.00    +0.117 C 
ENDROOT
BRANCH   1   2
ATOM      2  N   LIG    1       26.239 -23.090   7.325  0.00  0.00    -0.310 NA
ATOM      3  H   LIG    1       26.522 -23.411   8.253  0.00  0.00    +0.122 HD
BRANCH   2   5
ATOM      4  C   LIG    1       26.714 -20.904   8.436  0.00  0.00    +0.024 C 
ATOM      5  C   LIG    1       25.895 -21.651   7.372  0.00  0.00    +0.055 C 
BRANCH   5   6
ATOM      6  C   LIG    1       26.108 -21.033   5.961  0.00  0.00    +0.053 C 
BRANCH   6   7
ATOM      7  C   LIG    1       24.876 -20.367   5.377  0.00  0.00    -0.046 A 
ATOM      8  C   LIG    1       23.641 -20.435   6.037  0.00  0.00    +0.007 A 
ATOM      9  C   LIG    1       22.526 -19.763   5.531  0.00  0.00    +0.045 A 
ATOM     10  C   LIG    1       22.632 -19.045   4.346  0.00  0.00    +0.117 A 
ATOM     11  C   LIG    1       23.836 -18.996   3.652  0.00  0.00    +0.045 A 
ATOM     12  C   LIG    1       24.956 -19.654   4.170  0.00  0.00    +0.007 A 
BRANCH  10  13
ATOM     13  O   LIG    1       21.520 -18.400   3.892  0.00  0.00    -0.507 OA
ATOM     14  H   LIG    1       20.794 -19.042   3.823  0.00  0.00    +0.292 HD
ENDBRANCH  10  13
ENDBRANCH   6   7
ENDBRANCH   5   6
ENDBRANCH   2   5
ENDBRANCH   1   2
BRANCH   1  15
ATOM     15  C   LIG    1       25.531 -24.976   5.759  0.00  0.00    +0.158 C 
BRANCH  15  16
ATOM     16  C   LIG    1       25.315 -26.411   6.200  0.00  0.00    -0.011 A 
ATOM     17  C   LIG    1       26.050 -26.937   7.275  0.00  0.00    +0.051 A 
ATOM     18  C   LIG    1       25.844 -28.247   7.691  0.00  0.00    +0.121 A 
ATOM     19  C   LIG    1       24.911 -29.062   7.059  0.00  0.00    +0.090 A 
ATOM     20  C   LIG    1       24.182 -28.544   5.993  0.00  0.00    +0.121 A 
ATOM     21  C   LIG    1       24.379 -27.238   5.556  0.00  0.00    +0.051 A 
BRANCH  18  22
ATOM     22  O   LIG    1       26.581 -28.703   8.745  0.00  0.00    -0.507 OA
ATOM     23  H   LIG    1       26.163 -28.402   9.568  0.00  0.00    +0.292 HD
ENDBRANCH  18  22
BRANCH  20  24
ATOM     24  O   LIG    1       23.265 -29.360   5.400  0.00  0.00    -0.507 OA
ATOM     25  H   LIG    1       23.165 -29.094   4.471  0.00  0.00    +0.292 HD
ENDBRANCH  20  24
ENDBRANCH  15  16
BRANCH  15  26
ATOM     26  O   LIG    1       24.748 -24.726   4.584  0.00  0.00    -0.386 OA
ATOM     27  H   LIG    1       25.152 -25.218   3.848  0.00  0.00    +0.210 HD
ENDBRANCH  15  26
ENDBRANCH   1  15
TORSDOF 10
ENDMDL
MODEL 9
REMARK VINA RESULT:      -8.6      1.851      7.822
REMARK  Name = *****
REMARK                            x       y       z     vdW  Elec       q    Type
REMARK                         _______ _______ _______ _____ _____    ______ ____
ROOT
ATOM      1  C   LIG    1       24.916 -23.037   7.047  0.00  0.00    +0.117 C 
ENDROOT
BRANCH   1   2
ATOM      2  N   LIG    1       24.961 -21.617   6.660  0.00  0.00    -0.310 NA
ATOM      3  H   LIG    1       25.015 -21.544   5.642  0.00  0.00    +0.122 HD
BRANCH   2   5
ATOM      4  C   LIG    1       25.838 -20.604   8.768  0.00  0.00    +0.024 C 
ATOM      5  C   LIG    1       26.090 -20.885   7.279  0.00  0.00    +0.055 C 
BRANCH   5   6
ATOM      6  C   LIG    1       27.396 -21.703   7.073  0.00  0.00    +0.053 C 
BRANCH   6   7
ATOM      7  C   LIG    1       28.670 -20.887   7.184  0.00  0.00    -0.046 A 
ATOM      8  C   LIG    1       28.876 -19.762   6.372  0.00  0.00    +0.007 A 
ATOM      9  C   LIG    1       30.019 -18.974   6.526  0.00  0.00    +0.045 A 
ATOM     10  C   LIG    1       30.977 -19.324   7.470  0.00  0.00    +0.117 A 
ATOM     11  C   LIG    1       30.815 -20.457   8.259  0.00  0.00    +0.045 A 
ATOM     12  C   LIG    1       29.661 -21.235   8.117  0.00  0.00    +0.007 A 
BRANCH  10  13
ATOM     13  O   LIG    1       32.074 -18.523   7.589  0.00  0.00    -0.507 OA
ATOM     14  H   LIG    1       31.958 -17.950   8.365  0.00  0.00    +0.292 HD
ENDBRANCH  10  13
ENDBRANCH   6   7
ENDBRANCH   5   6
ENDBRANCH   2   5
ENDBRANCH   1   2
BRANCH   1  15
ATOM     15  C   LIG    1       24.070 -23.945   6.118  0.00  0.00    +0.158 C 
BRANCH  15  16
ATOM     16  C   LIG    1       24.694 -25.303   5.862  0.00  0.00    -0.011 A 
ATOM     17  C   LIG    1       23.877 -26.429   5.664  0.00  0.00    +0.051 A 
ATOM     18  C   LIG    1       24.447 -27.672   5.415  0.00  0.00    +0.121 A 
ATOM     19  C   LIG    1       25.827 -27.831   5.354  0.00  0.00    +0.090 A 
ATOM     20  C   LIG    1       26.638 -26.717   5.551  0.00  0.00    +0.121 A 
ATOM     21  C   LIG    1       26.089 -25.465   5.810  0.00  0.00    +0.051 A 
BRANCH  18  22
ATOM     22  O   LIG    1       23.605 -28.729   5.224  0.00  0.00    -0.507 OA
ATOM     23  H   LIG    1       23.466 -29.173   6.076  0.00  0.00    +0.292 HD
ENDBRANCH  18  22
BRANCH  20  24
ATOM     24  O   LIG    1       27.987 -26.899   5.473  0.00  0.00    -0.507 OA
ATOM     25  H   LIG    1       28.222 -27.709   5.956  0.00  0.00    +0.292 HD
ENDBRANCH  20  24
ENDBRANCH  15  16
BRANCH  15  26
ATOM     26  O   LIG    1       22.785 -24.130   6.728  0.00  0.00    -0.386 OA
ATOM     27  H   LIG    1       22.921 -24.214   7.687  0.00  0.00    +0.210 HD
ENDBRANCH  15  26
ENDBRANCH   1  15
TORSDOF 10
ENDMDL
