MODEL 1
REMARK VINA RESULT:       8.1      0.000      0.000
REMARK  Name = *****
REMARK                            x       y       z     vdW  Elec       q    Type
REMARK                         _______ _______ _______ _____ _____    ______ ____
ROOT
ATOM      1  C   LIG    1       21.442 -19.250   3.985  0.00  0.00    +0.082 C 
ATOM      2  C   LIG    1       22.522 -19.778   3.008  0.00  0.00    +0.066 C 
ATOM      3  C   LIG    1       23.954 -19.627   3.554  0.00  0.00    +0.157 C 
ATOM      4  C   LIG    1       24.203 -18.148   3.774  0.00  0.00    +0.030 A 
ATOM      5  C   LIG    1       23.175 -17.329   4.281  0.00  0.00    +0.006 A 
ATOM      6  C   LIG    1       23.476 -16.014   4.651  0.00  0.00    +0.132 A 
ATOM      7  C   LIG    1       24.753 -15.476   4.441  0.00  0.00    +0.078 A 
ATOM      8  C   LIG    1       25.040 -14.087   4.830  0.00  0.00    +0.198 C 
ATOM      9  O   LIG    1       24.196 -13.444   5.462  0.00  0.00    -0.286 OA
ATOM     10  C   LIG    1       26.311 -13.466   4.444  0.00  0.00    +0.033 A 
ATOM     11  C   LIG    1       27.284 -14.220   3.790  0.00  0.00    +0.033 A 
ATOM     12  C   LIG    1       28.479 -13.612   3.392  0.00  0.00    +0.012 A 
ATOM     13  C   LIG    1       28.694 -12.257   3.655  0.00  0.00    +0.001 A 
ATOM     14  C   LIG    1       27.722 -11.508   4.321  0.00  0.00    +0.001 A 
ATOM     15  C   LIG    1       27.049 -15.647   3.515  0.00  0.00    +0.198 C 
ATOM     16  O   LIG    1       27.931 -16.341   3.002  0.00  0.00    -0.286 OA
ATOM     17  C   LIG    1       26.531 -12.109   4.718  0.00  0.00    +0.012 A 
ATOM     18  C   LIG    1       25.740 -16.250   3.834  0.00  0.00    +0.078 A 
ATOM     19  C   LIG    1       25.465 -17.586   3.513  0.00  0.00    +0.135 A 
ATOM     20  C   LIG    1       21.723 -17.772   4.322  0.00  0.00    +0.069 C 
ENDROOT
BRANCH   1  22
ATOM     21  C   LIG    1       19.507 -18.190   2.550  0.00  0.00    +0.088 C 
ATOM     22  C   LIG    1       20.042 -19.377   3.319  0.00  0.00    +0.150 C 
ATOM     23  O   LIG    1       19.358 -20.400   3.417  0.00  0.00    -0.296 OA
ENDBRANCH   1  22
BRANCH   1  24
ATOM     24  N   LIG    1       21.397 -20.028   5.246  0.00  0.00    -0.318 NA
ATOM     25  H   LIG    1       20.659 -19.644   5.840  0.00  0.00    +0.119 HD
ATOM     26  H   LIG    1       21.044 -20.964   5.011  0.00  0.00    +0.119 HD
ENDBRANCH   1  24
BRANCH   6  27
ATOM     27  O   LIG    1       22.455 -15.274   5.193  0.00  0.00    -0.506 OA
ATOM     28  H   LIG    1       22.224 -15.650   6.072  0.00  0.00    +0.292 HD
ENDBRANCH   6  27
BRANCH  19  29
ATOM     29  O   LIG    1       26.403 -18.391   2.920  0.00  0.00    -0.506 OA
ATOM     30  H   LIG    1       26.365 -19.289   3.321  0.00  0.00    +0.292 HD
ENDBRANCH  19  29
BRANCH   3  31
ATOM     31  O   LIG    1       24.081 -20.357   4.790  0.00  0.00    -0.343 OA
BRANCH  31  32
ATOM     32  C   LIG    1       25.427 -20.674   5.190  0.00  0.00    +0.253 C 
ATOM     33  O   LIG    1       25.548 -20.656   6.612  0.00  0.00    -0.349 OA
ATOM     34  C   LIG    1       26.883 -20.877   7.060  0.00  0.00    +0.196 C 
ATOM     35  C   LIG    1       27.777 -19.723   6.614  0.00  0.00    +0.169 C 
ATOM     36  C   LIG    1       27.759 -19.653   5.085  0.00  0.00    +0.150 C 
ATOM     37  C   LIG    1       26.331 -19.605   4.558  0.00  0.00    +0.095 C 
BRANCH  35  38
ATOM     38  O   LIG    1       29.123 -19.903   7.062  0.00  0.00    -0.387 OA
ATOM     39  H   LIG    1       29.586 -20.416   6.374  0.00  0.00    +0.210 HD
ENDBRANCH  35  38
BRANCH  36  40
ATOM     40  O   LIG    1       28.441 -20.795   4.550  0.00  0.00    -0.389 OA
ATOM     41  H   LIG    1       28.519 -20.609   3.590  0.00  0.00    +0.210 HD
ENDBRANCH  36  40
ENDBRANCH  31  32
ENDBRANCH   3  31
TORSDOF 8
ENDMDL
