MODEL 1
REMARK VINA RESULT:      -4.0      0.000      0.000
REMARK  Name = *****
REMARK                            x       y       z     vdW  Elec       q    Type
REMARK                         _______ _______ _______ _____ _____    ______ ____
ROOT
ATOM      1  C   LIG    1       27.792 -14.072   3.378  0.00  0.00    +0.011 C 
ATOM      2  C   LIG    1       26.340 -13.689   3.682  0.00  0.00    -0.030 C 
ATOM      3  C   LIG    1       25.459 -14.958   3.752  0.00  0.00    +0.013 C 
ATOM      4  C   LIG    1       23.989 -14.590   4.062  0.00  0.00    -0.030 C 
ATOM      5  C   LIG    1       23.132 -15.856   4.131  0.00  0.00    +0.011 C 
ATOM      6  C   LIG    1       23.939 -13.836   5.410  0.00  0.00    +0.010 C 
ATOM      7  C   LIG    1       24.800 -12.564   5.346  0.00  0.00    -0.008 C 
ATOM      8  C   LIG    1       24.268 -11.645   4.235  0.00  0.00    +0.025 C 
ATOM      9  C   LIG    1       24.327 -12.371   2.875  0.00  0.00    +0.018 C 
ATOM     10  C   LIG    1       23.468 -13.651   2.948  0.00  0.00    +0.028 C 
ATOM     11  C   LIG    1       25.789 -12.762   2.573  0.00  0.00    +0.028 C 
ATOM     12  C   LIG    1       26.255 -12.949   5.036  0.00  0.00    +0.010 C 
ENDROOT
BRANCH   9  13
ATOM     13  N   LIG    1       23.822 -11.502   1.812  0.00  0.00    -0.325 NA
ATOM     14  H   LIG    1       24.235 -11.771   0.919  0.00  0.00    +0.119 HD
ATOM     15  H   LIG    1       22.816 -11.631   1.709  0.00  0.00    +0.119 HD
ENDBRANCH   9  13
TORSDOF 1
ENDMDL
MODEL 2
REMARK VINA RESULT:      -3.8      1.865      3.143
REMARK  Name = *****
REMARK                            x       y       z     vdW  Elec       q    Type
REMARK                         _______ _______ _______ _____ _____    ______ ____
ROOT
ATOM      1  C   LIG    1       24.890 -11.665   1.813  0.00  0.00    +0.011 C 
ATOM      2  C   LIG    1       25.258 -12.833   2.734  0.00  0.00    -0.030 C 
ATOM      3  C   LIG    1       23.976 -13.542   3.231  0.00  0.00    +0.013 C 
ATOM      4  C   LIG    1       24.328 -14.727   4.160  0.00  0.00    -0.030 C 
ATOM      5  C   LIG    1       23.050 -15.419   4.641  0.00  0.00    +0.011 C 
ATOM      6  C   LIG    1       25.215 -15.724   3.380  0.00  0.00    +0.010 C 
ATOM      7  C   LIG    1       26.500 -15.033   2.894  0.00  0.00    -0.008 C 
ATOM      8  C   LIG    1       27.283 -14.504   4.106  0.00  0.00    +0.025 C 
ATOM      9  C   LIG    1       26.423 -13.491   4.891  0.00  0.00    +0.018 C 
ATOM     10  C   LIG    1       25.131 -14.188   5.368  0.00  0.00    +0.028 C 
ATOM     11  C   LIG    1       26.048 -12.319   3.960  0.00  0.00    +0.028 C 
ATOM     12  C   LIG    1       26.130 -13.858   1.975  0.00  0.00    +0.010 C 
ENDROOT
BRANCH   9  13
ATOM     13  N   LIG    1       27.162 -12.983   6.046  0.00  0.00    -0.325 NA
ATOM     14  H   LIG    1       27.451 -12.021   5.877  0.00  0.00    +0.119 HD
ATOM     15  H   LIG    1       26.551 -12.957   6.863  0.00  0.00    +0.119 HD
ENDBRANCH   9  13
TORSDOF 1
ENDMDL
MODEL 3
REMARK VINA RESULT:      -3.8      1.538      3.285
REMARK  Name = *****
REMARK                            x       y       z     vdW  Elec       q    Type
REMARK                         _______ _______ _______ _____ _____    ______ ____
ROOT
ATOM      1  C   LIG    1       23.096 -15.837   4.062  0.00  0.00    +0.011 C 
ATOM      2  C   LIG    1       24.089 -14.671   4.021  0.00  0.00    -0.030 C 
ATOM      3  C   LIG    1       23.667 -13.650   2.940  0.00  0.00    +0.013 C 
ATOM      4  C   LIG    1       24.657 -12.464   2.886  0.00  0.00    -0.030 C 
ATOM      5  C   LIG    1       24.223 -11.461   1.814  0.00  0.00    +0.011 C 
ATOM      6  C   LIG    1       24.692 -11.782   4.273  0.00  0.00    +0.010 C 
ATOM      7  C   LIG    1       25.127 -12.785   5.354  0.00  0.00    -0.008 C 
ATOM      8  C   LIG    1       26.529 -13.318   5.020  0.00  0.00    +0.025 C 
ATOM      9  C   LIG    1       26.514 -14.021   3.646  0.00  0.00    +0.018 C 
ATOM     10  C   LIG    1       26.069 -13.010   2.566  0.00  0.00    +0.028 C 
ATOM     11  C   LIG    1       25.507 -15.190   3.687  0.00  0.00    +0.028 C 
ATOM     12  C   LIG    1       24.132 -13.956   5.390  0.00  0.00    +0.010 C 
ENDROOT
BRANCH   9  13
ATOM     13  N   LIG    1       27.846 -14.530   3.321  0.00  0.00    -0.325 NA
ATOM     14  H   LIG    1       27.769 -15.450   2.889  0.00  0.00    +0.119 HD
ATOM     15  H   LIG    1       28.287 -13.927   2.627  0.00  0.00    +0.119 HD
ENDBRANCH   9  13
TORSDOF 1
ENDMDL
MODEL 4
REMARK VINA RESULT:      -3.8      2.080      3.588
REMARK  Name = *****
REMARK                            x       y       z     vdW  Elec       q    Type
REMARK                         _______ _______ _______ _____ _____    ______ ____
ROOT
ATOM      1  C   LIG    1       23.408 -12.865   4.635  0.00  0.00    +0.011 C 
ATOM      2  C   LIG    1       24.799 -13.284   4.149  0.00  0.00    -0.030 C 
ATOM      3  C   LIG    1       24.865 -14.821   3.986  0.00  0.00    +0.013 C 
ATOM      4  C   LIG    1       26.261 -15.262   3.492  0.00  0.00    -0.030 C 
ATOM      5  C   LIG    1       26.309 -16.784   3.333  0.00  0.00    +0.011 C 
ATOM      6  C   LIG    1       26.551 -14.574   2.138  0.00  0.00    +0.010 C 
ATOM      7  C   LIG    1       26.504 -13.046   2.292  0.00  0.00    -0.008 C 
ATOM      8  C   LIG    1       27.560 -12.604   3.317  0.00  0.00    +0.025 C 
ATOM      9  C   LIG    1       27.280 -13.265   4.684  0.00  0.00    +0.018 C 
ATOM     10  C   LIG    1       27.321 -14.799   4.520  0.00  0.00    +0.028 C 
ATOM     11  C   LIG    1       25.876 -12.847   5.169  0.00  0.00    +0.028 C 
ATOM     12  C   LIG    1       25.109 -12.627   2.785  0.00  0.00    +0.010 C 
ENDROOT
BRANCH   9  13
ATOM     13  N   LIG    1       28.282 -12.850   5.664  0.00  0.00    -0.325 NA
ATOM     14  H   LIG    1       28.814 -13.660   5.981  0.00  0.00    +0.119 HD
ATOM     15  H   LIG    1       28.956 -12.222   5.226  0.00  0.00    +0.119 HD
ENDBRANCH   9  13
TORSDOF 1
ENDMDL
MODEL 5
REMARK VINA RESULT:      -3.7      1.995      3.667
REMARK  Name = *****
REMARK                            x       y       z     vdW  Elec       q    Type
REMARK                         _______ _______ _______ _____ _____    ______ ____
ROOT
ATOM      1  C   LIG    1       24.577 -11.843   1.814  0.00  0.00    +0.011 C 
ATOM      2  C   LIG    1       25.306 -12.755   2.807  0.00  0.00    -0.030 C 
ATOM      3  C   LIG    1       26.802 -12.370   2.883  0.00  0.00    +0.013 C 
ATOM      4  C   LIG    1       27.553 -13.277   3.884  0.00  0.00    -0.030 C 
ATOM      5  C   LIG    1       29.030 -12.882   3.950  0.00  0.00    +0.011 C 
ATOM      6  C   LIG    1       26.897 -13.132   5.276  0.00  0.00    +0.010 C 
ATOM      7  C   LIG    1       25.413 -13.528   5.215  0.00  0.00    -0.008 C 
ATOM      8  C   LIG    1       25.295 -14.989   4.753  0.00  0.00    +0.025 C 
ATOM      9  C   LIG    1       25.926 -15.154   3.354  0.00  0.00    +0.018 C 
ATOM     10  C   LIG    1       27.414 -14.747   3.421  0.00  0.00    +0.028 C 
ATOM     11  C   LIG    1       25.195 -14.230   2.357  0.00  0.00    +0.028 C 
ATOM     12  C   LIG    1       24.685 -12.616   4.215  0.00  0.00    +0.010 C 
ENDROOT
BRANCH   9  13
ATOM     13  N   LIG    1       25.817 -16.542   2.908  0.00  0.00    -0.325 NA
ATOM     14  H   LIG    1       25.859 -16.584   1.890  0.00  0.00    +0.119 HD
ATOM     15  H   LIG    1       26.616 -17.078   3.247  0.00  0.00    +0.119 HD
ENDBRANCH   9  13
TORSDOF 1
ENDMDL
MODEL 6
REMARK VINA RESULT:      -3.6      2.114      3.193
REMARK  Name = *****
REMARK                            x       y       z     vdW  Elec       q    Type
REMARK                         _______ _______ _______ _____ _____    ______ ____
ROOT
ATOM      1  C   LIG    1       25.731 -16.667   3.304  0.00  0.00    +0.011 C 
ATOM      2  C   LIG    1       25.953 -15.177   3.583  0.00  0.00    -0.030 C 
ATOM      3  C   LIG    1       25.167 -14.322   2.561  0.00  0.00    +0.013 C 
ATOM      4  C   LIG    1       25.375 -12.814   2.829  0.00  0.00    -0.030 C 
ATOM      5  C   LIG    1       24.589 -11.983   1.812  0.00  0.00    +0.011 C 
ATOM      6  C   LIG    1       24.899 -12.493   4.264  0.00  0.00    +0.010 C 
ATOM      7  C   LIG    1       25.685 -13.326   5.290  0.00  0.00    -0.008 C 
ATOM      8  C   LIG    1       27.182 -12.998   5.171  0.00  0.00    +0.025 C 
ATOM      9  C   LIG    1       27.685 -13.329   3.750  0.00  0.00    +0.018 C 
ATOM     10  C   LIG    1       26.886 -12.496   2.725  0.00  0.00    +0.028 C 
ATOM     11  C   LIG    1       27.455 -14.829   3.469  0.00  0.00    +0.028 C 
ATOM     12  C   LIG    1       25.467 -14.820   5.006  0.00  0.00    +0.010 C 
ENDROOT
BRANCH   9  13
ATOM     13  N   LIG    1       29.109 -13.020   3.630  0.00  0.00    -0.325 NA
ATOM     14  H   LIG    1       29.514 -12.886   4.556  0.00  0.00    +0.119 HD
ATOM     15  H   LIG    1       29.602 -13.811   3.217  0.00  0.00    +0.119 HD
ENDBRANCH   9  13
TORSDOF 1
ENDMDL
MODEL 7
REMARK VINA RESULT:      -3.5      2.066      3.191
REMARK  Name = *****
REMARK                            x       y       z     vdW  Elec       q    Type
REMARK                         _______ _______ _______ _____ _____    ______ ____
ROOT
ATOM      1  C   LIG    1       28.412 -12.810   5.529  0.00  0.00    +0.011 C 
ATOM      2  C   LIG    1       27.309 -13.286   4.578  0.00  0.00    -0.030 C 
ATOM      3  C   LIG    1       25.918 -12.975   5.180  0.00  0.00    +0.013 C 
ATOM      4  C   LIG    1       24.791 -13.446   4.232  0.00  0.00    -0.030 C 
ATOM      5  C   LIG    1       23.422 -13.129   4.841  0.00  0.00    +0.011 C 
ATOM      6  C   LIG    1       24.952 -12.727   2.873  0.00  0.00    +0.010 C 
ATOM      7  C   LIG    1       26.325 -13.041   2.258  0.00  0.00    -0.008 C 
ATOM      8  C   LIG    1       26.451 -14.558   2.044  0.00  0.00    +0.025 C 
ATOM      9  C   LIG    1       26.313 -15.296   3.392  0.00  0.00    +0.018 C 
ATOM     10  C   LIG    1       24.936 -14.970   4.008  0.00  0.00    +0.028 C 
ATOM     11  C   LIG    1       27.421 -14.811   4.350  0.00  0.00    +0.028 C 
ATOM     12  C   LIG    1       27.431 -12.568   3.215  0.00  0.00    +0.010 C 
ENDROOT
BRANCH   9  13
ATOM     13  N   LIG    1       26.432 -16.740   3.195  0.00  0.00    -0.325 NA
ATOM     14  H   LIG    1       25.519 -17.136   2.972  0.00  0.00    +0.119 HD
ATOM     15  H   LIG    1       27.028 -16.932   2.390  0.00  0.00    +0.119 HD
ENDBRANCH   9  13
TORSDOF 1
ENDMDL
MODEL 8
REMARK VINA RESULT:      -3.4      1.587      3.369
REMARK  Name = *****
REMARK                            x       y       z     vdW  Elec       q    Type
REMARK                         _______ _______ _______ _____ _____    ______ ____
ROOT
ATOM      1  C   LIG    1       26.142 -16.788   3.335  0.00  0.00    +0.011 C 
ATOM      2  C   LIG    1       26.135 -15.261   3.468  0.00  0.00    -0.030 C 
ATOM      3  C   LIG    1       27.294 -14.802   4.383  0.00  0.00    +0.013 C 
ATOM      4  C   LIG    1       27.305 -13.262   4.526  0.00  0.00    -0.030 C 
ATOM      5  C   LIG    1       28.459 -12.824   5.431  0.00  0.00    +0.011 C 
ATOM      6  C   LIG    1       27.457 -12.633   3.122  0.00  0.00    +0.010 C 
ATOM      7  C   LIG    1       26.300 -13.071   2.210  0.00  0.00    -0.008 C 
ATOM      8  C   LIG    1       24.967 -12.616   2.824  0.00  0.00    +0.025 C 
ATOM      9  C   LIG    1       24.784 -13.248   4.220  0.00  0.00    +0.018 C 
ATOM     10  C   LIG    1       25.953 -12.812   5.129  0.00  0.00    +0.028 C 
ATOM     11  C   LIG    1       24.798 -14.785   4.084  0.00  0.00    +0.028 C 
ATOM     12  C   LIG    1       26.305 -14.602   2.081  0.00  0.00    +0.010 C 
ENDROOT
BRANCH   9  13
ATOM     13  N   LIG    1       23.517 -12.819   4.811  0.00  0.00    -0.325 NA
ATOM     14  H   LIG    1       23.553 -11.823   5.022  0.00  0.00    +0.119 HD
ATOM     15  H   LIG    1       22.762 -12.938   4.135  0.00  0.00    +0.119 HD
ENDBRANCH   9  13
TORSDOF 1
ENDMDL
MODEL 9
REMARK VINA RESULT:      -3.4      1.251      3.355
REMARK  Name = *****
REMARK                            x       y       z     vdW  Elec       q    Type
REMARK                         _______ _______ _______ _____ _____    ______ ____
ROOT
ATOM      1  C   LIG    1       22.949 -15.884   4.397  0.00  0.00    +0.011 C 
ATOM      2  C   LIG    1       23.838 -14.674   4.094  0.00  0.00    -0.030 C 
ATOM      3  C   LIG    1       25.313 -15.119   3.961  0.00  0.00    +0.013 C 
ATOM      4  C   LIG    1       26.226 -13.910   3.651  0.00  0.00    -0.030 C 
ATOM      5  C   LIG    1       27.681 -14.367   3.519  0.00  0.00    +0.011 C 
ATOM      6  C   LIG    1       25.751 -13.251   2.336  0.00  0.00    +0.010 C 
ATOM      7  C   LIG    1       24.289 -12.791   2.464  0.00  0.00    -0.008 C 
ATOM      8  C   LIG    1       24.175 -11.771   3.608  0.00  0.00    +0.025 C 
ATOM      9  C   LIG    1       24.627 -12.414   4.936  0.00  0.00    +0.018 C 
ATOM     10  C   LIG    1       26.092 -12.880   4.799  0.00  0.00    +0.028 C 
ATOM     11  C   LIG    1       23.734 -13.636   5.236  0.00  0.00    +0.028 C 
ATOM     12  C   LIG    1       23.399 -14.005   2.773  0.00  0.00    +0.010 C 
ENDROOT
BRANCH   9  13
ATOM     13  N   LIG    1       24.520 -11.448   6.030  0.00  0.00    -0.325 NA
ATOM     14  H   LIG    1       25.311 -11.555   6.664  0.00  0.00    +0.119 HD
ATOM     15  H   LIG    1       24.579 -10.499   5.660  0.00  0.00    +0.119 HD
ENDBRANCH   9  13
TORSDOF 1
ENDMDL
