MODEL 1
REMARK VINA RESULT:      -8.3      0.000      0.000
REMARK  Name = *****
REMARK                            x       y       z     vdW  Elec       q    Type
REMARK                         _______ _______ _______ _____ _____    ______ ____
ROOT
ATOM      1  N   LIG    1       27.095 -20.153   5.045  0.00  0.00    -0.313 NA
ATOM      2  H   LIG    1       27.404 -21.038   4.641  0.00  0.00    +0.122 HD
ENDROOT
BRANCH   1   3
ATOM      3  C   LIG    1       25.916 -19.682   4.310  0.00  0.00    +0.081 C 
BRANCH   3   4
ATOM      4  C   LIG    1       24.753 -20.698   4.211  0.00  0.00    +0.015 C 
BRANCH   4   5
ATOM      5  C   LIG    1       23.346 -20.091   4.375  0.00  0.00    +0.001 C 
BRANCH   5   6
ATOM      6  C   LIG    1       22.543 -20.714   5.538  0.00  0.00    +0.002 C 
BRANCH   6   7
ATOM      7  C   LIG    1       23.226 -20.630   6.919  0.00  0.00    +0.028 C 
BRANCH   7   8
ATOM      8  C   LIG    1       23.667 -21.976   7.494  0.00  0.00    +0.160 C 
BRANCH   8   9
ATOM      9  O   LIG    1       22.804 -23.016   7.011  0.00  0.00    -0.380 OA
BRANCH   9  10
ATOM     10  C   LIG    1       23.563 -24.110   6.490  0.00  0.00    +0.160 C 
BRANCH  10  11
ATOM     11  C   LIG    1       25.042 -23.739   6.354  0.00  0.00    +0.028 C 
BRANCH  11  12
ATOM     12  C   LIG    1       25.963 -24.874   6.833  0.00  0.00    +0.007 C 
BRANCH  12  13
ATOM     13  C   LIG    1       26.055 -26.075   5.871  0.00  0.00    +0.035 C 
BRANCH  13  14
ATOM     14  C   LIG    1       25.407 -27.355   6.352  0.00  0.00    -0.047 A 
ATOM     15  C   LIG    1       25.724 -27.920   7.595  0.00  0.00    +0.003 A 
ATOM     16  C   LIG    1       25.264 -29.196   7.941  0.00  0.00    +0.000 A 
ATOM     17  C   LIG    1       24.433 -29.884   7.073  0.00  0.00    +0.000 A 
ATOM     18  C   LIG    1       24.011 -29.287   5.886  0.00  0.00    +0.000 A 
ATOM     19  C   LIG    1       24.490 -28.024   5.531  0.00  0.00    +0.003 A 
ENDBRANCH  13  14
ENDBRANCH  12  13
ENDBRANCH  11  12
ENDBRANCH  10  11
ENDBRANCH   9  10
ENDBRANCH   8   9
ENDBRANCH   7   8
ENDBRANCH   6   7
ENDBRANCH   5   6
ENDBRANCH   4   5
ENDBRANCH   3   4
ENDBRANCH   1   3
BRANCH   1  20
ATOM     20  C   LIG    1       26.835 -20.339   6.503  0.00  0.00    +0.117 C 
BRANCH  20  21
ATOM     21  C   LIG    1       27.969 -20.936   7.419  0.00  0.00    +0.158 C 
BRANCH  21  26
ATOM     22  C   LIG    1       30.232 -18.273   9.092  0.00  0.00    +0.019 A 
ATOM     23  C   LIG    1       31.307 -18.228   8.223  0.00  0.00    +0.122 A 
ATOM     24  C   LIG    1       31.338 -19.028   7.077  0.00  0.00    +0.046 A 
ATOM     25  C   LIG    1       30.268 -19.900   6.819  0.00  0.00    +0.010 A 
ATOM     26  C   LIG    1       29.162 -19.995   7.677  0.00  0.00    -0.017 A 
ATOM     27  C   LIG    1       29.144 -19.136   8.800  0.00  0.00    +0.015 A 
BRANCH  23  28
ATOM     28  O   LIG    1       32.347 -17.366   8.468  0.00  0.00    -0.506 OA
ATOM     29  H   LIG    1       32.408 -16.732   7.752  0.00  0.00    +0.292 HD
ENDBRANCH  23  28
BRANCH  22  30
ATOM     30  C   LIG    1       30.204 -17.459  10.368  0.00  0.00    +0.194 C 
BRANCH  30  31
ATOM     31  O   LIG    1       31.108 -18.033  11.309  0.00  0.00    -0.390 OA
ATOM     32  H   LIG    1       30.707 -18.870  11.602  0.00  0.00    +0.210 HD
ENDBRANCH  30  31
ENDBRANCH  22  30
ENDBRANCH  21  26
BRANCH  21  33
ATOM     33  O   LIG    1       27.410 -21.346   8.675  0.00  0.00    -0.386 OA
ATOM     34  H   LIG    1       26.444 -21.314   8.583  0.00  0.00    +0.210 HD
ENDBRANCH  21  33
ENDBRANCH  20  21
ENDBRANCH   1  20
TORSDOF 19
ENDMDL
MODEL 2
REMARK VINA RESULT:      -8.0      1.678      2.040
REMARK  Name = *****
REMARK                            x       y       z     vdW  Elec       q    Type
REMARK                         _______ _______ _______ _____ _____    ______ ____
ROOT
ATOM      1  N   LIG    1       26.032 -20.408   4.274  0.00  0.00    -0.313 NA
ATOM      2  H   LIG    1       25.821 -21.369   4.546  0.00  0.00    +0.122 HD
ENDROOT
BRANCH   1   3
ATOM      3  C   LIG    1       24.773 -19.672   4.111  0.00  0.00    +0.081 C 
BRANCH   3   4
ATOM      4  C   LIG    1       23.549 -20.541   3.735  0.00  0.00    +0.015 C 
BRANCH   4   5
ATOM      5  C   LIG    1       22.493 -20.689   4.848  0.00  0.00    +0.001 C 
BRANCH   5   6
ATOM      6  C   LIG    1       23.004 -20.249   6.237  0.00  0.00    +0.002 C 
BRANCH   6   7
ATOM      7  C   LIG    1       23.445 -21.403   7.163  0.00  0.00    +0.028 C 
BRANCH   7   8
ATOM      8  C   LIG    1       23.199 -22.801   6.598  0.00  0.00    +0.160 C 
BRANCH   8   9
ATOM      9  O   LIG    1       24.402 -23.299   5.995  0.00  0.00    -0.380 OA
BRANCH   9  10
ATOM     10  C   LIG    1       25.316 -23.770   6.989  0.00  0.00    +0.160 C 
BRANCH  10  11
ATOM     11  C   LIG    1       25.894 -25.135   6.605  0.00  0.00    +0.028 C 
BRANCH  11  12
ATOM     12  C   LIG    1       25.041 -25.837   5.535  0.00  0.00    +0.007 C 
BRANCH  12  13
ATOM     13  C   LIG    1       25.659 -27.132   4.971  0.00  0.00    +0.035 C 
BRANCH  13  14
ATOM     14  C   LIG    1       25.223 -28.417   5.643  0.00  0.00    -0.047 A 
ATOM     15  C   LIG    1       24.557 -28.414   6.877  0.00  0.00    +0.003 A 
ATOM     16  C   LIG    1       24.334 -29.606   7.573  0.00  0.00    +0.000 A 
ATOM     17  C   LIG    1       24.717 -30.812   7.010  0.00  0.00    +0.000 A 
ATOM     18  C   LIG    1       25.272 -30.843   5.732  0.00  0.00    +0.000 A 
ATOM     19  C   LIG    1       25.517 -29.650   5.048  0.00  0.00    +0.003 A 
ENDBRANCH  13  14
ENDBRANCH  12  13
ENDBRANCH  11  12
ENDBRANCH  10  11
ENDBRANCH   9  10
ENDBRANCH   8   9
ENDBRANCH   7   8
ENDBRANCH   6   7
ENDBRANCH   5   6
ENDBRANCH   4   5
ENDBRANCH   3   4
ENDBRANCH   1   3
BRANCH   1  20
ATOM     20  C   LIG    1       26.937 -19.794   5.290  0.00  0.00    +0.117 C 
BRANCH  20  21
ATOM     21  C   LIG    1       27.226 -20.565   6.634  0.00  0.00    +0.158 C 
BRANCH  21  26
ATOM     22  C   LIG    1       30.510 -21.053   8.631  0.00  0.00    +0.019 A 
ATOM     23  C   LIG    1       31.118 -19.820   8.481  0.00  0.00    +0.122 A 
ATOM     24  C   LIG    1       30.500 -18.797   7.756  0.00  0.00    +0.046 A 
ATOM     25  C   LIG    1       29.251 -19.036   7.161  0.00  0.00    +0.010 A 
ATOM     26  C   LIG    1       28.599 -20.274   7.270  0.00  0.00    -0.017 A 
ATOM     27  C   LIG    1       29.233 -21.267   8.051  0.00  0.00    +0.015 A 
BRANCH  23  28
ATOM     28  O   LIG    1       32.333 -19.582   9.074  0.00  0.00    -0.506 OA
ATOM     29  H   LIG    1       32.245 -19.671  10.024  0.00  0.00    +0.292 HD
ENDBRANCH  23  28
BRANCH  22  30
ATOM     30  C   LIG    1       31.187 -22.193   9.362  0.00  0.00    +0.194 C 
BRANCH  30  31
ATOM     31  O   LIG    1       32.297 -22.648   8.593  0.00  0.00    -0.390 OA
ATOM     32  H   LIG    1       32.586 -23.485   8.996  0.00  0.00    +0.210 HD
ENDBRANCH  30  31
ENDBRANCH  22  30
ENDBRANCH  21  26
BRANCH  21  33
ATOM     33  O   LIG    1       26.192 -20.279   7.586  0.00  0.00    -0.386 OA
ATOM     34  H   LIG    1       25.373 -20.673   7.248  0.00  0.00    +0.210 HD
ENDBRANCH  21  33
ENDBRANCH  20  21
ENDBRANCH   1  20
TORSDOF 19
ENDMDL
MODEL 3
REMARK VINA RESULT:      -7.9      3.554      5.450
REMARK  Name = *****
REMARK                            x       y       z     vdW  Elec       q    Type
REMARK                         _______ _______ _______ _____ _____    ______ ____
ROOT
ATOM      1  N   LIG    1       25.311 -22.743   5.808  0.00  0.00    -0.313 NA
ATOM      2  H   LIG    1       26.059 -23.395   5.567  0.00  0.00    +0.122 HD
ENDROOT
BRANCH   1   3
ATOM      3  C   LIG    1       24.223 -23.486   6.453  0.00  0.00    +0.081 C 
BRANCH   3   4
ATOM      4  C   LIG    1       24.315 -25.026   6.329  0.00  0.00    +0.015 C 
BRANCH   4   5
ATOM      5  C   LIG    1       25.368 -25.533   5.324  0.00  0.00    +0.001 C 
BRANCH   5   6
ATOM      6  C   LIG    1       25.446 -27.073   5.247  0.00  0.00    +0.002 C 
BRANCH   6   7
ATOM      7  C   LIG    1       24.482 -27.822   6.191  0.00  0.00    +0.028 C 
BRANCH   7   8
ATOM      8  C   LIG    1       24.127 -29.240   5.744  0.00  0.00    +0.160 C 
BRANCH   8   9
ATOM      9  O   LIG    1       23.695 -30.011   6.874  0.00  0.00    -0.380 OA
BRANCH   9  10
ATOM     10  C   LIG    1       24.503 -29.734   8.021  0.00  0.00    +0.160 C 
BRANCH  10  11
ATOM     11  C   LIG    1       23.782 -30.133   9.312  0.00  0.00    +0.028 C 
BRANCH  11  12
ATOM     12  C   LIG    1       24.618 -29.803  10.560  0.00  0.00    +0.007 C 
BRANCH  12  13
ATOM     13  C   LIG    1       23.902 -30.066  11.900  0.00  0.00    +0.035 C 
BRANCH  13  14
ATOM     14  C   LIG    1       23.156 -28.889  12.490  0.00  0.00    -0.047 A 
ATOM     15  C   LIG    1       21.756 -28.808  12.451  0.00  0.00    +0.003 A 
ATOM     16  C   LIG    1       21.096 -27.633  12.826  0.00  0.00    +0.000 A 
ATOM     17  C   LIG    1       21.826 -26.558  13.303  0.00  0.00    +0.000 A 
ATOM     18  C   LIG    1       23.207 -26.663  13.461  0.00  0.00    +0.000 A 
ATOM     19  C   LIG    1       23.868 -27.828  13.064  0.00  0.00    +0.003 A 
ENDBRANCH  13  14
ENDBRANCH  12  13
ENDBRANCH  11  12
ENDBRANCH  10  11
ENDBRANCH   9  10
ENDBRANCH   8   9
ENDBRANCH   7   8
ENDBRANCH   6   7
ENDBRANCH   5   6
ENDBRANCH   4   5
ENDBRANCH   3   4
ENDBRANCH   1   3
BRANCH   1  20
ATOM     20  C   LIG    1       25.862 -21.654   6.667  0.00  0.00    +0.117 C 
BRANCH  20  21
ATOM     21  C   LIG    1       26.499 -20.383   5.989  0.00  0.00    +0.158 C 
BRANCH  21  26
ATOM     22  C   LIG    1       29.930 -20.649   7.770  0.00  0.00    +0.019 A 
ATOM     23  C   LIG    1       30.668 -19.685   7.108  0.00  0.00    +0.122 A 
ATOM     24  C   LIG    1       30.097 -18.914   6.091  0.00  0.00    +0.046 A 
ATOM     25  C   LIG    1       28.759 -19.139   5.729  0.00  0.00    +0.010 A 
ATOM     26  C   LIG    1       27.971 -20.116   6.358  0.00  0.00    -0.017 A 
ATOM     27  C   LIG    1       28.570 -20.841   7.414  0.00  0.00    +0.015 A 
BRANCH  23  28
ATOM     28  O   LIG    1       31.972 -19.456   7.471  0.00  0.00    -0.506 OA
ATOM     29  H   LIG    1       32.051 -19.515   8.424  0.00  0.00    +0.292 HD
ENDBRANCH  23  28
BRANCH  22  30
ATOM     30  C   LIG    1       30.545 -21.534   8.833  0.00  0.00    +0.194 C 
BRANCH  30  31
ATOM     31  O   LIG    1       31.812 -22.002   8.378  0.00  0.00    -0.390 OA
ATOM     32  H   LIG    1       32.093 -22.689   9.006  0.00  0.00    +0.210 HD
ENDBRANCH  30  31
ENDBRANCH  22  30
ENDBRANCH  21  26
BRANCH  21  33
ATOM     33  O   LIG    1       26.380 -20.485   4.563  0.00  0.00    -0.386 OA
ATOM     34  H   LIG    1       25.710 -21.162   4.379  0.00  0.00    +0.210 HD
ENDBRANCH  21  33
ENDBRANCH  20  21
ENDBRANCH   1  20
TORSDOF 19
ENDMDL
MODEL 4
REMARK VINA RESULT:      -7.8      2.842      9.881
REMARK  Name = *****
REMARK                            x       y       z     vdW  Elec       q    Type
REMARK                         _______ _______ _______ _____ _____    ______ ____
ROOT
ATOM      1  N   LIG    1       24.853 -24.849   4.626  0.00  0.00    -0.313 NA
ATOM      2  H   LIG    1       23.965 -24.779   4.129  0.00  0.00    +0.122 HD
ENDROOT
BRANCH   1   3
ATOM      3  C   LIG    1       24.827 -23.940   5.777  0.00  0.00    +0.081 C 
BRANCH   3   4
ATOM      4  C   LIG    1       23.607 -24.104   6.715  0.00  0.00    +0.015 C 
BRANCH   4   5
ATOM      5  C   LIG    1       22.692 -22.867   6.810  0.00  0.00    +0.001 C 
BRANCH   5   6
ATOM      6  C   LIG    1       23.336 -21.586   6.236  0.00  0.00    +0.002 C 
BRANCH   6   7
ATOM      7  C   LIG    1       23.918 -20.621   7.291  0.00  0.00    +0.028 C 
BRANCH   7   8
ATOM      8  C   LIG    1       25.434 -20.706   7.464  0.00  0.00    +0.160 C 
BRANCH   8   9
ATOM      9  O   LIG    1       26.070 -20.701   6.177  0.00  0.00    -0.380 OA
BRANCH   9  10
ATOM     10  C   LIG    1       27.400 -20.184   6.266  0.00  0.00    +0.160 C 
BRANCH  10  11
ATOM     11  C   LIG    1       27.915 -20.233   7.707  0.00  0.00    +0.028 C 
BRANCH  11  12
ATOM     12  C   LIG    1       29.451 -20.188   7.769  0.00  0.00    +0.007 C 
BRANCH  12  13
ATOM     13  C   LIG    1       30.067 -18.815   7.437  0.00  0.00    +0.035 C 
BRANCH  13  14
ATOM     14  C   LIG    1       30.624 -18.042   8.613  0.00  0.00    -0.047 A 
ATOM     15  C   LIG    1       31.905 -17.472   8.581  0.00  0.00    +0.003 A 
ATOM     16  C   LIG    1       32.477 -16.930   9.737  0.00  0.00    +0.000 A 
ATOM     17  C   LIG    1       31.747 -16.895  10.913  0.00  0.00    +0.000 A 
ATOM     18  C   LIG    1       30.429 -17.348  10.933  0.00  0.00    +0.000 A 
ATOM     19  C   LIG    1       29.867 -17.912   9.784  0.00  0.00    +0.003 A 
ENDBRANCH  13  14
ENDBRANCH  12  13
ENDBRANCH  11  12
ENDBRANCH  10  11
ENDBRANCH   9  10
ENDBRANCH   8   9
ENDBRANCH   7   8
ENDBRANCH   6   7
ENDBRANCH   5   6
ENDBRANCH   4   5
ENDBRANCH   3   4
ENDBRANCH   1   3
BRANCH   1  20
ATOM     20  C   LIG    1       25.093 -26.271   5.012  0.00  0.00    +0.117 C 
BRANCH  20  21
ATOM     21  C   LIG    1       26.216 -26.606   6.065  0.00  0.00    +0.158 C 
BRANCH  21  26
ATOM     22  C   LIG    1       24.781 -29.960   7.370  0.00  0.00    +0.019 A 
ATOM     23  C   LIG    1       25.248 -29.981   8.672  0.00  0.00    +0.122 A 
ATOM     24  C   LIG    1       26.018 -28.928   9.176  0.00  0.00    +0.046 A 
ATOM     25  C   LIG    1       26.331 -27.845   8.340  0.00  0.00    +0.010 A 
ATOM     26  C   LIG    1       25.894 -27.783   7.007  0.00  0.00    -0.017 A 
ATOM     27  C   LIG    1       25.079 -28.842   6.548  0.00  0.00    +0.015 A 
BRANCH  23  28
ATOM     28  O   LIG    1       24.932 -31.033   9.494  0.00  0.00    -0.506 OA
ATOM     29  H   LIG    1       24.618 -30.695  10.335  0.00  0.00    +0.292 HD
ENDBRANCH  23  28
BRANCH  22  30
ATOM     30  C   LIG    1       23.996 -31.115   6.786  0.00  0.00    +0.194 C 
BRANCH  30  31
ATOM     31  O   LIG    1       23.301 -30.669   5.625  0.00  0.00    -0.390 OA
ATOM     32  H   LIG    1       22.739 -29.927   5.908  0.00  0.00    +0.210 HD
ENDBRANCH  30  31
ENDBRANCH  22  30
ENDBRANCH  21  26
BRANCH  21  33
ATOM     33  O   LIG    1       27.453 -26.866   5.387  0.00  0.00    -0.386 OA
ATOM     34  H   LIG    1       27.271 -27.532   4.705  0.00  0.00    +0.210 HD
ENDBRANCH  21  33
ENDBRANCH  20  21
ENDBRANCH   1  20
TORSDOF 19
ENDMDL
MODEL 5
REMARK VINA RESULT:      -7.8      2.980      9.204
REMARK  Name = *****
REMARK                            x       y       z     vdW  Elec       q    Type
REMARK                         _______ _______ _______ _____ _____    ______ ____
ROOT
ATOM      1  N   LIG    1       23.757 -25.842   5.472  0.00  0.00    -0.313 NA
ATOM      2  H   LIG    1       23.266 -26.627   5.902  0.00  0.00    +0.122 HD
ENDROOT
BRANCH   1   3
ATOM      3  C   LIG    1       23.950 -24.793   6.479  0.00  0.00    +0.081 C 
BRANCH   3   4
ATOM      4  C   LIG    1       24.935 -23.669   6.075  0.00  0.00    +0.015 C 
BRANCH   4   5
ATOM      5  C   LIG    1       25.830 -23.151   7.218  0.00  0.00    +0.001 C 
BRANCH   5   6
ATOM      6  C   LIG    1       25.147 -22.071   8.085  0.00  0.00    +0.002 C 
BRANCH   6   7
ATOM      7  C   LIG    1       26.101 -21.010   8.674  0.00  0.00    +0.028 C 
BRANCH   7   8
ATOM      8  C   LIG    1       27.565 -21.176   8.270  0.00  0.00    +0.160 C 
BRANCH   8   9
ATOM      9  O   LIG    1       28.250 -19.923   8.402  0.00  0.00    -0.380 OA
BRANCH   9  10
ATOM     10  C   LIG    1       28.860 -19.540   7.166  0.00  0.00    +0.160 C 
BRANCH  10  11
ATOM     11  C   LIG    1       28.304 -20.362   6.000  0.00  0.00    +0.028 C 
BRANCH  11  12
ATOM     12  C   LIG    1       27.185 -19.616   5.254  0.00  0.00    +0.007 C 
BRANCH  12  13
ATOM     13  C   LIG    1       26.117 -20.528   4.620  0.00  0.00    +0.035 C 
BRANCH  13  14
ATOM     14  C   LIG    1       24.718 -19.955   4.551  0.00  0.00    -0.047 A 
ATOM     15  C   LIG    1       24.364 -18.988   3.598  0.00  0.00    +0.003 A 
ATOM     16  C   LIG    1       23.131 -18.332   3.668  0.00  0.00    +0.000 A 
ATOM     17  C   LIG    1       22.220 -18.684   4.651  0.00  0.00    +0.000 A 
ATOM     18  C   LIG    1       22.508 -19.726   5.532  0.00  0.00    +0.000 A 
ATOM     19  C   LIG    1       23.750 -20.364   5.476  0.00  0.00    +0.003 A 
ENDBRANCH  13  14
ENDBRANCH  12  13
ENDBRANCH  11  12
ENDBRANCH  10  11
ENDBRANCH   9  10
ENDBRANCH   8   9
ENDBRANCH   7   8
ENDBRANCH   6   7
ENDBRANCH   5   6
ENDBRANCH   4   5
ENDBRANCH   3   4
ENDBRANCH   1   3
BRANCH   1  20
ATOM     20  C   LIG    1       25.040 -26.326   4.881  0.00  0.00    +0.117 C 
BRANCH  20  21
ATOM     21  C   LIG    1       26.220 -26.747   5.836  0.00  0.00    +0.158 C 
BRANCH  21  26
ATOM     22  C   LIG    1       24.813 -30.060   7.271  0.00  0.00    +0.019 A 
ATOM     23  C   LIG    1       25.208 -29.986   8.594  0.00  0.00    +0.122 A 
ATOM     24  C   LIG    1       25.918 -28.880   9.071  0.00  0.00    +0.046 A 
ATOM     25  C   LIG    1       26.246 -27.840   8.186  0.00  0.00    +0.010 A 
ATOM     26  C   LIG    1       25.881 -27.874   6.831  0.00  0.00    -0.017 A 
ATOM     27  C   LIG    1       25.123 -28.985   6.397  0.00  0.00    +0.015 A 
BRANCH  23  28
ATOM     28  O   LIG    1       24.877 -30.996   9.463  0.00  0.00    -0.506 OA
ATOM     29  H   LIG    1       25.501 -31.716   9.364  0.00  0.00    +0.292 HD
ENDBRANCH  23  28
BRANCH  22  30
ATOM     30  C   LIG    1       24.095 -31.273   6.720  0.00  0.00    +0.194 C 
BRANCH  30  31
ATOM     31  O   LIG    1       23.262 -30.872   5.635  0.00  0.00    -0.390 OA
ATOM     32  H   LIG    1       22.353 -31.114   5.882  0.00  0.00    +0.210 HD
ENDBRANCH  30  31
ENDBRANCH  22  30
ENDBRANCH  21  26
BRANCH  21  33
ATOM     33  O   LIG    1       27.360 -27.132   5.054  0.00  0.00    -0.386 OA
ATOM     34  H   LIG    1       27.601 -26.370   4.505  0.00  0.00    +0.210 HD
ENDBRANCH  21  33
ENDBRANCH  20  21
ENDBRANCH   1  20
TORSDOF 19
ENDMDL
MODEL 6
REMARK VINA RESULT:      -7.7      3.189      9.123
REMARK  Name = *****
REMARK                            x       y       z     vdW  Elec       q    Type
REMARK                         _______ _______ _______ _____ _____    ______ ____
ROOT
ATOM      1  N   LIG    1       24.532 -26.907   5.572  0.00  0.00    -0.313 NA
ATOM      2  H   LIG    1       24.453 -26.684   6.564  0.00  0.00    +0.122 HD
ENDROOT
BRANCH   1   3
ATOM      3  C   LIG    1       25.214 -25.802   4.889  0.00  0.00    +0.081 C 
BRANCH   3   4
ATOM      4  C   LIG    1       24.954 -24.399   5.488  0.00  0.00    +0.015 C 
BRANCH   4   5
ATOM      5  C   LIG    1       25.748 -24.085   6.771  0.00  0.00    +0.001 C 
BRANCH   5   6
ATOM      6  C   LIG    1       25.152 -22.916   7.586  0.00  0.00    +0.002 C 
BRANCH   6   7
ATOM      7  C   LIG    1       26.132 -22.243   8.570  0.00  0.00    +0.028 C 
BRANCH   7   8
ATOM      8  C   LIG    1       26.045 -20.718   8.611  0.00  0.00    +0.160 C 
BRANCH   8   9
ATOM      9  O   LIG    1       27.344 -20.152   8.380  0.00  0.00    -0.380 OA
BRANCH   9  10
ATOM     10  C   LIG    1       28.191 -21.078   7.696  0.00  0.00    +0.160 C 
BRANCH  10  11
ATOM     11  C   LIG    1       28.564 -20.560   6.304  0.00  0.00    +0.028 C 
BRANCH  11  12
ATOM     12  C   LIG    1       27.410 -19.776   5.656  0.00  0.00    +0.007 C 
BRANCH  12  13
ATOM     13  C   LIG    1       26.345 -20.654   4.969  0.00  0.00    +0.035 C 
BRANCH  13  14
ATOM     14  C   LIG    1       24.960 -20.052   4.870  0.00  0.00    -0.047 A 
ATOM     15  C   LIG    1       23.927 -20.430   5.741  0.00  0.00    +0.003 A 
ATOM     16  C   LIG    1       22.612 -20.011   5.516  0.00  0.00    +0.000 A 
ATOM     17  C   LIG    1       22.333 -19.160   4.459  0.00  0.00    +0.000 A 
ATOM     18  C   LIG    1       23.366 -18.679   3.656  0.00  0.00    +0.000 A 
ATOM     19  C   LIG    1       24.676 -19.118   3.866  0.00  0.00    +0.003 A 
ENDBRANCH  13  14
ENDBRANCH  12  13
ENDBRANCH  11  12
ENDBRANCH  10  11
ENDBRANCH   9  10
ENDBRANCH   8   9
ENDBRANCH   7   8
ENDBRANCH   6   7
ENDBRANCH   5   6
ENDBRANCH   4   5
ENDBRANCH   3   4
ENDBRANCH   1   3
BRANCH   1  20
ATOM     20  C   LIG    1       25.235 -28.214   5.412  0.00  0.00    +0.117 C 
BRANCH  20  21
ATOM     21  C   LIG    1       24.575 -29.522   5.990  0.00  0.00    +0.158 C 
BRANCH  21  26
ATOM     22  C   LIG    1       25.834 -29.169   9.638  0.00  0.00    +0.019 A 
ATOM     23  C   LIG    1       24.890 -29.901  10.335  0.00  0.00    +0.122 A 
ATOM     24  C   LIG    1       23.839 -30.538   9.669  0.00  0.00    +0.046 A 
ATOM     25  C   LIG    1       23.735 -30.415   8.275  0.00  0.00    +0.010 A 
ATOM     26  C   LIG    1       24.657 -29.671   7.522  0.00  0.00    -0.017 A 
ATOM     27  C   LIG    1       25.734 -29.083   8.225  0.00  0.00    +0.015 A 
BRANCH  23  28
ATOM     28  O   LIG    1       24.999 -30.033  11.697  0.00  0.00    -0.506 OA
ATOM     29  H   LIG    1       24.489 -29.341  12.124  0.00  0.00    +0.292 HD
ENDBRANCH  23  28
BRANCH  22  30
ATOM     30  C   LIG    1       26.947 -28.424  10.344  0.00  0.00    +0.194 C 
BRANCH  30  31
ATOM     31  O   LIG    1       27.991 -29.339  10.668  0.00  0.00    -0.390 OA
ATOM     32  H   LIG    1       27.719 -29.787  11.488  0.00  0.00    +0.210 HD
ENDBRANCH  30  31
ENDBRANCH  22  30
ENDBRANCH  21  26
BRANCH  21  33
ATOM     33  O   LIG    1       23.202 -29.591   5.582  0.00  0.00    -0.386 OA
ATOM     34  H   LIG    1       22.945 -28.703   5.287  0.00  0.00    +0.210 HD
ENDBRANCH  21  33
ENDBRANCH  20  21
ENDBRANCH   1  20
TORSDOF 19
ENDMDL
MODEL 7
REMARK VINA RESULT:      -7.7      3.483      9.189
REMARK  Name = *****
REMARK                            x       y       z     vdW  Elec       q    Type
REMARK                         _______ _______ _______ _____ _____    ______ ____
ROOT
ATOM      1  N   LIG    1       24.002 -26.636   5.679  0.00  0.00    -0.313 NA
ATOM      2  H   LIG    1       23.626 -26.596   6.626  0.00  0.00    +0.122 HD
ENDROOT
BRANCH   1   3
ATOM      3  C   LIG    1       24.561 -25.324   5.332  0.00  0.00    +0.081 C 
BRANCH   3   4
ATOM      4  C   LIG    1       25.495 -24.706   6.400  0.00  0.00    +0.015 C 
BRANCH   4   5
ATOM      5  C   LIG    1       25.037 -23.339   6.947  0.00  0.00    +0.001 C 
BRANCH   5   6
ATOM      6  C   LIG    1       23.502 -23.170   6.960  0.00  0.00    +0.002 C 
BRANCH   6   7
ATOM      7  C   LIG    1       23.008 -21.710   6.874  0.00  0.00    +0.028 C 
BRANCH   7   8
ATOM      8  C   LIG    1       22.601 -21.259   5.472  0.00  0.00    +0.160 C 
BRANCH   8   9
ATOM      9  O   LIG    1       22.569 -19.825   5.414  0.00  0.00    -0.380 OA
BRANCH   9  10
ATOM     10  C   LIG    1       23.405 -19.337   4.362  0.00  0.00    +0.160 C 
BRANCH  10  11
ATOM     11  C   LIG    1       24.551 -20.310   4.072  0.00  0.00    +0.028 C 
BRANCH  11  12
ATOM     12  C   LIG    1       25.901 -19.772   4.576  0.00  0.00    +0.007 C 
BRANCH  12  13
ATOM     13  C   LIG    1       26.438 -20.472   5.840  0.00  0.00    +0.035 C 
BRANCH  13  14
ATOM     14  C   LIG    1       27.875 -20.162   6.204  0.00  0.00    -0.047 A 
ATOM     15  C   LIG    1       28.553 -20.878   7.201  0.00  0.00    +0.003 A 
ATOM     16  C   LIG    1       29.807 -20.457   7.656  0.00  0.00    +0.000 A 
ATOM     17  C   LIG    1       30.416 -19.358   7.073  0.00  0.00    +0.000 A 
ATOM     18  C   LIG    1       29.809 -18.708   6.000  0.00  0.00    +0.000 A 
ATOM     19  C   LIG    1       28.546 -19.114   5.562  0.00  0.00    +0.003 A 
ENDBRANCH  13  14
ENDBRANCH  12  13
ENDBRANCH  11  12
ENDBRANCH  10  11
ENDBRANCH   9  10
ENDBRANCH   8   9
ENDBRANCH   7   8
ENDBRANCH   6   7
ENDBRANCH   5   6
ENDBRANCH   4   5
ENDBRANCH   3   4
ENDBRANCH   1   3
BRANCH   1  20
ATOM     20  C   LIG    1       25.005 -27.738   5.591  0.00  0.00    +0.117 C 
BRANCH  20  21
ATOM     21  C   LIG    1       24.550 -29.220   5.867  0.00  0.00    +0.158 C 
BRANCH  21  26
ATOM     22  C   LIG    1       25.822 -29.401   9.523  0.00  0.00    +0.019 A 
ATOM     23  C   LIG    1       25.160 -30.518   9.998  0.00  0.00    +0.122 A 
ATOM     24  C   LIG    1       24.306 -31.253   9.171  0.00  0.00    +0.046 A 
ATOM     25  C   LIG    1       24.107 -30.836   7.845  0.00  0.00    +0.010 A 
ATOM     26  C   LIG    1       24.742 -29.700   7.319  0.00  0.00    -0.017 A 
ATOM     27  C   LIG    1       25.636 -29.012   8.171  0.00  0.00    +0.015 A 
BRANCH  23  28
ATOM     28  O   LIG    1       25.364 -30.934  11.290  0.00  0.00    -0.506 OA
ATOM     29  H   LIG    1       26.142 -30.499  11.644  0.00  0.00    +0.292 HD
ENDBRANCH  23  28
BRANCH  22  30
ATOM     30  C   LIG    1       26.706 -28.557  10.417  0.00  0.00    +0.194 C 
BRANCH  30  31
ATOM     31  O   LIG    1       27.928 -29.250  10.655  0.00  0.00    -0.390 OA
ATOM     32  H   LIG    1       28.138 -29.123  11.596  0.00  0.00    +0.210 HD
ENDBRANCH  30  31
ENDBRANCH  22  30
ENDBRANCH  21  26
BRANCH  21  33
ATOM     33  O   LIG    1       23.174 -29.381   5.494  0.00  0.00    -0.386 OA
ATOM     34  H   LIG    1       23.070 -30.288   5.167  0.00  0.00    +0.210 HD
ENDBRANCH  21  33
ENDBRANCH  20  21
ENDBRANCH   1  20
TORSDOF 19
ENDMDL
MODEL 8
REMARK VINA RESULT:      -7.7      3.302      8.805
REMARK  Name = *****
REMARK                            x       y       z     vdW  Elec       q    Type
REMARK                         _______ _______ _______ _____ _____    ______ ____
ROOT
ATOM      1  N   LIG    1       23.821 -25.283   5.666  0.00  0.00    -0.313 NA
ATOM      2  H   LIG    1       23.349 -26.010   6.205  0.00  0.00    +0.122 HD
ENDROOT
BRANCH   1   3
ATOM      3  C   LIG    1       24.035 -24.115   6.527  0.00  0.00    +0.081 C 
BRANCH   3   4
ATOM      4  C   LIG    1       22.775 -23.256   6.794  0.00  0.00    +0.015 C 
BRANCH   4   5
ATOM      5  C   LIG    1       22.994 -21.734   6.688  0.00  0.00    +0.001 C 
BRANCH   5   6
ATOM      6  C   LIG    1       22.347 -21.110   5.433  0.00  0.00    +0.002 C 
BRANCH   6   7
ATOM      7  C   LIG    1       22.589 -19.596   5.260  0.00  0.00    +0.028 C 
BRANCH   7   8
ATOM      8  C   LIG    1       23.377 -19.217   4.007  0.00  0.00    +0.160 C 
BRANCH   8   9
ATOM      9  O   LIG    1       24.367 -20.219   3.734  0.00  0.00    -0.380 OA
BRANCH   9  10
ATOM     10  C   LIG    1       25.617 -19.881   4.340  0.00  0.00    +0.160 C 
BRANCH  10  11
ATOM     11  C   LIG    1       26.008 -20.908   5.407  0.00  0.00    +0.028 C 
BRANCH  11  12
ATOM     12  C   LIG    1       26.880 -20.284   6.510  0.00  0.00    +0.007 C 
BRANCH  12  13
ATOM     13  C   LIG    1       28.251 -19.769   6.029  0.00  0.00    +0.035 C 
BRANCH  13  14
ATOM     14  C   LIG    1       29.336 -19.700   7.083  0.00  0.00    -0.047 A 
ATOM     15  C   LIG    1       30.041 -18.515   7.338  0.00  0.00    +0.003 A 
ATOM     16  C   LIG    1       31.163 -18.516   8.173  0.00  0.00    +0.000 A 
ATOM     17  C   LIG    1       31.546 -19.686   8.807  0.00  0.00    +0.000 A 
ATOM     18  C   LIG    1       30.786 -20.844   8.659  0.00  0.00    +0.000 A 
ATOM     19  C   LIG    1       29.679 -20.849   7.806  0.00  0.00    +0.003 A 
ENDBRANCH  13  14
ENDBRANCH  12  13
ENDBRANCH  11  12
ENDBRANCH  10  11
ENDBRANCH   9  10
ENDBRANCH   8   9
ENDBRANCH   7   8
ENDBRANCH   6   7
ENDBRANCH   5   6
ENDBRANCH   4   5
ENDBRANCH   3   4
ENDBRANCH   1   3
BRANCH   1  20
ATOM     20  C   LIG    1       25.090 -25.831   5.103  0.00  0.00    +0.117 C 
BRANCH  20  21
ATOM     21  C   LIG    1       26.169 -26.438   6.077  0.00  0.00    +0.158 C 
BRANCH  21  26
ATOM     22  C   LIG    1       25.857 -28.952   9.009  0.00  0.00    +0.019 A 
ATOM     23  C   LIG    1       24.853 -29.790   8.558  0.00  0.00    +0.122 A 
ATOM     24  C   LIG    1       24.258 -29.591   7.309  0.00  0.00    +0.046 A 
ATOM     25  C   LIG    1       24.678 -28.514   6.512  0.00  0.00    +0.010 A 
ATOM     26  C   LIG    1       25.681 -27.626   6.930  0.00  0.00    -0.017 A 
ATOM     27  C   LIG    1       26.292 -27.888   8.177  0.00  0.00    +0.015 A 
BRANCH  23  28
ATOM     28  O   LIG    1       24.451 -30.851   9.331  0.00  0.00    -0.506 OA
ATOM     29  H   LIG    1       24.805 -30.751  10.216  0.00  0.00    +0.292 HD
ENDBRANCH  23  28
BRANCH  22  30
ATOM     30  C   LIG    1       26.474 -29.114  10.382  0.00  0.00    +0.194 C 
BRANCH  30  31
ATOM     31  O   LIG    1       25.459 -28.970  11.371  0.00  0.00    -0.390 OA
ATOM     32  H   LIG    1       24.926 -28.200  11.110  0.00  0.00    +0.210 HD
ENDBRANCH  30  31
ENDBRANCH  22  30
ENDBRANCH  21  26
BRANCH  21  33
ATOM     33  O   LIG    1       27.326 -26.837   5.329  0.00  0.00    -0.386 OA
ATOM     34  H   LIG    1       27.743 -27.567   5.813  0.00  0.00    +0.210 HD
ENDBRANCH  21  33
ENDBRANCH  20  21
ENDBRANCH   1  20
TORSDOF 19
ENDMDL
MODEL 9
REMARK VINA RESULT:      -7.6      2.902     10.070
REMARK  Name = *****
REMARK                            x       y       z     vdW  Elec       q    Type
REMARK                         _______ _______ _______ _____ _____    ______ ____
ROOT
ATOM      1  N   LIG    1       24.907 -24.214   4.952  0.00  0.00    -0.313 NA
ATOM      2  H   LIG    1       24.039 -24.020   4.452  0.00  0.00    +0.122 HD
ENDROOT
BRANCH   1   3
ATOM      3  C   LIG    1       24.741 -23.835   6.359  0.00  0.00    +0.081 C 
BRANCH   3   4
ATOM      4  C   LIG    1       23.328 -23.334   6.742  0.00  0.00    +0.015 C 
BRANCH   4   5
ATOM      5  C   LIG    1       23.246 -21.838   7.102  0.00  0.00    +0.001 C 
BRANCH   5   6
ATOM      6  C   LIG    1       24.572 -21.080   6.868  0.00  0.00    +0.002 C 
BRANCH   6   7
ATOM      7  C   LIG    1       25.315 -20.658   8.153  0.00  0.00    +0.028 C 
BRANCH   7   8
ATOM      8  C   LIG    1       26.832 -20.833   8.096  0.00  0.00    +0.160 C 
BRANCH   8   9
ATOM      9  O   LIG    1       27.271 -20.829   6.729  0.00  0.00    -0.380 OA
BRANCH   9  10
ATOM     10  C   LIG    1       28.386 -19.952   6.552  0.00  0.00    +0.160 C 
BRANCH  10  11
ATOM     11  C   LIG    1       29.659 -20.550   7.157  0.00  0.00    +0.028 C 
BRANCH  11  12
ATOM     12  C   LIG    1       30.737 -19.479   7.395  0.00  0.00    +0.007 C 
BRANCH  12  13
ATOM     13  C   LIG    1       30.206 -18.151   7.971  0.00  0.00    +0.035 C 
BRANCH  13  14
ATOM     14  C   LIG    1       30.946 -17.613   9.176  0.00  0.00    -0.047 A 
ATOM     15  C   LIG    1       30.414 -17.705  10.470  0.00  0.00    +0.003 A 
ATOM     16  C   LIG    1       31.016 -17.037  11.541  0.00  0.00    +0.000 A 
ATOM     17  C   LIG    1       32.187 -16.327  11.337  0.00  0.00    +0.000 A 
ATOM     18  C   LIG    1       32.795 -16.324  10.082  0.00  0.00    +0.000 A 
ATOM     19  C   LIG    1       32.180 -16.971   9.008  0.00  0.00    +0.003 A 
ENDBRANCH  13  14
ENDBRANCH  12  13
ENDBRANCH  11  12
ENDBRANCH  10  11
ENDBRANCH   9  10
ENDBRANCH   8   9
ENDBRANCH   7   8
ENDBRANCH   6   7
ENDBRANCH   5   6
ENDBRANCH   4   5
ENDBRANCH   3   4
ENDBRANCH   1   3
BRANCH   1  20
ATOM     20  C   LIG    1       25.269 -25.651   4.775  0.00  0.00    +0.117 C 
BRANCH  20  21
ATOM     21  C   LIG    1       26.037 -26.402   5.928  0.00  0.00    +0.158 C 
BRANCH  21  26
ATOM     22  C   LIG    1       25.048 -29.385   8.194  0.00  0.00    +0.019 A 
ATOM     23  C   LIG    1       24.215 -30.109   7.361  0.00  0.00    +0.122 A 
ATOM     24  C   LIG    1       23.955 -29.682   6.055  0.00  0.00    +0.046 A 
ATOM     25  C   LIG    1       24.538 -28.490   5.595  0.00  0.00    +0.010 A 
ATOM     26  C   LIG    1       25.378 -27.710   6.405  0.00  0.00    -0.017 A 
ATOM     27  C   LIG    1       25.655 -28.200   7.702  0.00  0.00    +0.015 A 
BRANCH  23  28
ATOM     28  O   LIG    1       23.656 -31.281   7.806  0.00  0.00    -0.506 OA
ATOM     29  H   LIG    1       23.636 -31.916   7.088  0.00  0.00    +0.292 HD
ENDBRANCH  23  28
BRANCH  22  30
ATOM     30  C   LIG    1       25.297 -29.798   9.629  0.00  0.00    +0.194 C 
BRANCH  30  31
ATOM     31  O   LIG    1       26.327 -30.782   9.661  0.00  0.00    -0.390 OA
ATOM     32  H   LIG    1       25.964 -31.575   9.230  0.00  0.00    +0.210 HD
ENDBRANCH  30  31
ENDBRANCH  22  30
ENDBRANCH  21  26
BRANCH  21  33
ATOM     33  O   LIG    1       27.384 -26.674   5.514  0.00  0.00    -0.386 OA
ATOM     34  H   LIG    1       27.408 -26.593   4.547  0.00  0.00    +0.210 HD
ENDBRANCH  21  33
ENDBRANCH  20  21
ENDBRANCH   1  20
TORSDOF 19
ENDMDL
