MODEL 1
REMARK VINA RESULT:      25.0      0.000      0.000
REMARK  Name = *****
REMARK                            x       y       z     vdW  Elec       q    Type
REMARK                         _______ _______ _______ _____ _____    ______ ____
ROOT
ATOM      1  C   LIG    1       21.677 -16.188   5.858  0.00  0.00    +0.061 C 
ATOM      2  C   LIG    1       22.754 -15.329   5.253  0.00  0.00    +0.016 C 
ATOM      3  N   LIG    1       22.645 -13.960   5.473  0.00  0.00    -0.321 N 
ATOM      4  H   LIG    1       21.805 -13.642   5.952  0.00  0.00    +0.152 HD
ATOM      5  C   LIG    1       23.309 -13.020   4.691  0.00  0.00    +0.017 C 
ATOM      6  C   LIG    1       22.762 -11.622   4.744  0.00  0.00    +0.061 C 
ATOM      7  C   LIG    1       24.370 -13.404   3.939  0.00  0.00    +0.070 C 
ATOM      8  C   LIG    1       24.908 -14.824   4.109  0.00  0.00    +0.097 C 
ATOM      9  C   LIG    1       23.802 -15.787   4.524  0.00  0.00    +0.065 C 
ENDROOT
BRANCH   7  10
ATOM     10  P   LIG    1       25.241 -12.436   2.769  0.00  0.00    +0.362 P 
ATOM     11  O   LIG    1       26.340 -11.573   3.596  0.00  0.00    -0.304 OA
ATOM     12  C   LIG    1       27.385 -12.247   4.277  0.00  0.00    +0.179 C 
ATOM     13  C   LIG    1       28.234 -13.077   3.313  0.00  0.00    +0.013 C 
ATOM     14  C   LIG    1       28.932 -12.150   2.302  0.00  0.00    +0.015 C 
ATOM     15  C   LIG    1       29.299 -13.852   4.103  0.00  0.00    +0.015 C 
ATOM     16  C   LIG    1       27.310 -14.065   2.586  0.00  0.00    +0.179 C 
ATOM     17  O   LIG    1       26.238 -13.410   1.936  0.00  0.00    -0.304 OA
ATOM     18  O   LIG    1       24.497 -11.541   1.816  0.00  0.00    -0.253 OA
ENDBRANCH   7  10
BRANCH   8  19
ATOM     19  C   LIG    1       26.105 -14.871   5.070  0.00  0.00    -0.029 A 
ATOM     20  C   LIG    1       27.037 -15.922   5.005  0.00  0.00    +0.088 A 
ATOM     21  C   LIG    1       28.125 -15.955   5.896  0.00  0.00    +0.273 A 
ATOM     22  C   LIG    1       28.307 -14.944   6.848  0.00  0.00    +0.084 A 
ATOM     23  C   LIG    1       27.388 -13.901   6.916  0.00  0.00    +0.007 A 
ATOM     24  C   LIG    1       26.301 -13.869   6.041  0.00  0.00    +0.005 A 
BRANCH  21  25
ATOM     25  N   LIG    1       29.079 -17.071   5.848  0.00  0.00    +0.080 N 
ATOM     26  O   LIG    1       29.437 -17.480   4.732  0.00  0.00    -0.576 OA
ATOM     27  O   LIG    1       29.465 -17.549   6.925  0.00  0.00    +0.041 OA
ENDBRANCH  21  25
ENDBRANCH   8  19
BRANCH   9  28
ATOM     28  C   LIG    1       23.936 -17.136   3.960  0.00  0.00    +0.338 C 
ATOM     29  O   LIG    1       23.226 -18.064   4.311  0.00  0.00    -0.245 OA
BRANCH  28  30
ATOM     30  O   LIG    1       25.051 -17.241   3.224  0.00  0.00    -0.460 OA
BRANCH  30  31
ATOM     31  C   LIG    1       25.335 -18.539   2.689  0.00  0.00    +0.251 C 
BRANCH  31  32
ATOM     32  C   LIG    1       24.039 -19.338   2.481  0.00  0.00    +0.146 C 
BRANCH  32  33
ATOM     33  N   LIG    1       24.101 -20.658   3.151  0.00  0.00    -0.322 N 
BRANCH  33  34
ATOM     34  C   LIG    1       23.072 -20.977   4.052  0.00  0.00    +0.030 A 
ATOM     35  C   LIG    1       21.771 -21.299   3.611  0.00  0.00    +0.023 A 
ATOM     36  C   LIG    1       20.718 -21.571   4.500  0.00  0.00    +0.002 A 
ATOM     37  C   LIG    1       20.941 -21.569   5.869  0.00  0.00    +0.000 A 
ATOM     38  C   LIG    1       22.221 -21.322   6.341  0.00  0.00    +0.002 A 
ATOM     39  C   LIG    1       23.262 -21.033   5.445  0.00  0.00    +0.023 A 
ENDBRANCH  33  34
BRANCH  33  40
ATOM     40  C   LIG    1       25.448 -21.249   3.300  0.00  0.00    +0.140 C 
BRANCH  40  41
ATOM     41  C   LIG    1       26.105 -20.872   4.614  0.00  0.00    -0.030 A 
ATOM     42  C   LIG    1       27.116 -19.896   4.650  0.00  0.00    +0.005 A 
ATOM     43  C   LIG    1       27.673 -19.497   5.866  0.00  0.00    +0.000 A 
ATOM     44  C   LIG    1       27.205 -20.041   7.061  0.00  0.00    +0.000 A 
ATOM     45  C   LIG    1       26.210 -21.016   7.039  0.00  0.00    +0.000 A 
ATOM     46  C   LIG    1       25.684 -21.451   5.821  0.00  0.00    +0.005 A 
ENDBRANCH  40  41
ENDBRANCH  33  40
ENDBRANCH  32  33
ENDBRANCH  31  32
ENDBRANCH  30  31
ENDBRANCH  28  30
ENDBRANCH   9  28
TORSDOF 11
ENDMDL
