MODEL 1
REMARK VINA RESULT:      -4.4      0.000      0.000
REMARK  Name = *****
REMARK                            x       y       z     vdW  Elec       q    Type
REMARK                         _______ _______ _______ _____ _____    ______ ____
ROOT
ATOM      1  C   LIG    1       25.189 -13.766   3.673  0.00  0.00    +0.072 C 
ATOM      2  C   LIG    1       26.023 -13.269   4.879  0.00  0.00    +0.230 C 
ATOM      3  O   LIG    1       25.546 -12.760   5.891  0.00  0.00    -0.274 OA
ATOM      4  N   LIG    1       27.387 -13.443   4.796  0.00  0.00    -0.256 N 
ATOM      5  H   LIG    1       27.907 -13.161   5.616  0.00  0.00    +0.158 HD
ATOM      6  C   LIG    1       28.136 -13.541   3.654  0.00  0.00    +0.219 C 
ATOM      7  O   LIG    1       29.360 -13.426   3.690  0.00  0.00    -0.275 OA
ATOM      8  C   LIG    1       27.391 -13.803   2.372  0.00  0.00    +0.097 C 
ATOM      9  C   LIG    1       25.973 -13.246   2.433  0.00  0.00    +0.030 C 
ENDROOT
BRANCH   1  10
ATOM     10  C   LIG    1       25.021 -15.299   3.681  0.00  0.00    -0.032 A 
ATOM     11  C   LIG    1       23.810 -15.895   4.073  0.00  0.00    +0.006 A 
ATOM     12  C   LIG    1       23.658 -17.287   4.095  0.00  0.00    +0.023 A 
ATOM     13  C   LIG    1       24.688 -18.127   3.678  0.00  0.00    +0.025 A 
ATOM     14  C   LIG    1       25.902 -17.551   3.314  0.00  0.00    +0.023 A 
ATOM     15  C   LIG    1       26.057 -16.158   3.280  0.00  0.00    +0.006 A 
BRANCH  13  16
ATOM     16  N   LIG    1       24.581 -19.512   3.840  0.00  0.00    -0.358 N 
ATOM     17  H   LIG    1       23.639 -19.830   4.047  0.00  0.00    +0.142 HD
ATOM     18  H   LIG    1       25.011 -20.048   3.092  0.00  0.00    +0.142 HD
ENDBRANCH  13  16
ENDBRANCH   1  10
BRANCH   1  20
ATOM     19  C   LIG    1       23.726 -11.643   3.128  0.00  0.00    +0.005 C 
ATOM     20  C   LIG    1       23.790 -13.079   3.644  0.00  0.00    +0.017 C 
ENDBRANCH   1  20
TORSDOF 3
ENDMDL
MODEL 2
REMARK VINA RESULT:      -4.2      1.927      3.237
REMARK  Name = *****
REMARK                            x       y       z     vdW  Elec       q    Type
REMARK                         _______ _______ _______ _____ _____    ______ ____
ROOT
ATOM      1  C   LIG    1       25.889 -14.262   3.918  0.00  0.00    +0.072 C 
ATOM      2  C   LIG    1       26.145 -13.804   2.461  0.00  0.00    +0.230 C 
ATOM      3  O   LIG    1       27.151 -14.082   1.813  0.00  0.00    -0.274 OA
ATOM      4  N   LIG    1       25.152 -13.055   1.869  0.00  0.00    -0.256 N 
ATOM      5  H   LIG    1       25.316 -12.813   0.902  0.00  0.00    +0.158 HD
ATOM      6  C   LIG    1       24.223 -12.273   2.502  0.00  0.00    +0.219 C 
ATOM      7  O   LIG    1       23.562 -11.447   1.876  0.00  0.00    -0.275 OA
ATOM      8  C   LIG    1       24.051 -12.484   3.983  0.00  0.00    +0.097 C 
ATOM      9  C   LIG    1       25.341 -12.987   4.623  0.00  0.00    +0.030 C 
ENDROOT
BRANCH   1  10
ATOM     10  C   LIG    1       24.914 -15.455   3.984  0.00  0.00    -0.032 A 
ATOM     11  C   LIG    1       23.587 -15.287   4.417  0.00  0.00    +0.006 A 
ATOM     12  C   LIG    1       22.703 -16.370   4.491  0.00  0.00    +0.023 A 
ATOM     13  C   LIG    1       23.096 -17.644   4.088  0.00  0.00    +0.025 A 
ATOM     14  C   LIG    1       24.416 -17.830   3.684  0.00  0.00    +0.023 A 
ATOM     15  C   LIG    1       25.302 -16.749   3.597  0.00  0.00    +0.006 A 
BRANCH  13  16
ATOM     16  N   LIG    1       22.259 -18.744   4.302  0.00  0.00    -0.358 N 
ATOM     17  H   LIG    1       22.757 -19.619   4.436  0.00  0.00    +0.142 HD
ATOM     18  H   LIG    1       21.554 -18.592   5.017  0.00  0.00    +0.142 HD
ENDBRANCH  13  16
ENDBRANCH   1  10
BRANCH   1  20
ATOM     19  C   LIG    1       28.051 -13.483   5.207  0.00  0.00    +0.005 C 
ATOM     20  C   LIG    1       27.227 -14.631   4.628  0.00  0.00    +0.017 C 
ENDBRANCH   1  20
TORSDOF 3
ENDMDL
MODEL 3
REMARK VINA RESULT:      -3.6      4.085      6.855
REMARK  Name = *****
REMARK                            x       y       z     vdW  Elec       q    Type
REMARK                         _______ _______ _______ _____ _____    ______ ____
ROOT
ATOM      1  C   LIG    1       23.090 -20.105   4.635  0.00  0.00    +0.072 C 
ATOM      2  C   LIG    1       24.211 -20.949   3.983  0.00  0.00    +0.230 C 
ATOM      3  O   LIG    1       24.102 -21.538   2.910  0.00  0.00    -0.274 OA
ATOM      4  N   LIG    1       25.408 -21.010   4.662  0.00  0.00    -0.256 N 
ATOM      5  H   LIG    1       26.142 -21.521   4.193  0.00  0.00    +0.158 HD
ATOM      6  C   LIG    1       25.600 -20.844   6.007  0.00  0.00    +0.219 C 
ATOM      7  O   LIG    1       26.657 -21.180   6.540  0.00  0.00    -0.275 OA
ATOM      8  C   LIG    1       24.469 -20.229   6.786  0.00  0.00    +0.097 C 
ATOM      9  C   LIG    1       23.123 -20.526   6.133  0.00  0.00    +0.030 C 
ENDROOT
BRANCH   1  10
ATOM     10  C   LIG    1       23.312 -18.593   4.428  0.00  0.00    -0.032 A 
ATOM     11  C   LIG    1       24.475 -18.108   3.805  0.00  0.00    +0.006 A 
ATOM     12  C   LIG    1       24.686 -16.735   3.628  0.00  0.00    +0.023 A 
ATOM     13  C   LIG    1       23.725 -15.805   4.018  0.00  0.00    +0.025 A 
ATOM     14  C   LIG    1       22.582 -16.271   4.662  0.00  0.00    +0.023 A 
ATOM     15  C   LIG    1       22.358 -17.644   4.833  0.00  0.00    +0.006 A 
BRANCH  13  16
ATOM     16  N   LIG    1       24.005 -14.435   3.973  0.00  0.00    -0.358 N 
ATOM     17  H   LIG    1       23.658 -13.920   4.775  0.00  0.00    +0.142 HD
ATOM     18  H   LIG    1       24.976 -14.221   3.769  0.00  0.00    +0.142 HD
ENDBRANCH  13  16
ENDBRANCH   1  10
BRANCH   1  20
ATOM     19  C   LIG    1       20.912 -21.572   4.862  0.00  0.00    +0.005 C 
ATOM     20  C   LIG    1       21.691 -20.515   4.081  0.00  0.00    +0.017 C 
ENDBRANCH   1  20
TORSDOF 3
ENDMDL
MODEL 4
REMARK VINA RESULT:      -2.9      4.702      6.975
REMARK  Name = *****
REMARK                            x       y       z     vdW  Elec       q    Type
REMARK                         _______ _______ _______ _____ _____    ______ ____
ROOT
ATOM      1  C   LIG    1       24.786 -19.391   3.971  0.00  0.00    +0.072 C 
ATOM      2  C   LIG    1       24.075 -20.611   3.336  0.00  0.00    +0.230 C 
ATOM      3  O   LIG    1       24.208 -20.960   2.166  0.00  0.00    -0.274 OA
ATOM      4  N   LIG    1       23.263 -21.350   4.167  0.00  0.00    -0.256 N 
ATOM      5  H   LIG    1       22.852 -22.172   3.747  0.00  0.00    +0.158 HD
ATOM      6  C   LIG    1       22.630 -20.913   5.300  0.00  0.00    +0.219 C 
ATOM      7  O   LIG    1       21.726 -21.572   5.812  0.00  0.00    -0.275 OA
ATOM      8  C   LIG    1       23.099 -19.606   5.882  0.00  0.00    +0.097 C 
ATOM      9  C   LIG    1       23.669 -18.694   4.801  0.00  0.00    +0.030 C 
ENDROOT
BRANCH   1  10
ATOM     10  C   LIG    1       25.999 -19.811   4.825  0.00  0.00    -0.032 A 
ATOM     11  C   LIG    1       27.209 -19.098   4.770  0.00  0.00    +0.006 A 
ATOM     12  C   LIG    1       28.317 -19.485   5.534  0.00  0.00    +0.023 A 
ATOM     13  C   LIG    1       28.240 -20.561   6.415  0.00  0.00    +0.025 A 
ATOM     14  C   LIG    1       27.057 -21.294   6.458  0.00  0.00    +0.023 A 
ATOM     15  C   LIG    1       25.940 -20.906   5.704  0.00  0.00    +0.006 A 
BRANCH  13  16
ATOM     16  N   LIG    1       29.388 -21.031   7.062  0.00  0.00    -0.358 N 
ATOM     17  H   LIG    1       29.902 -21.727   6.531  0.00  0.00    +0.142 HD
ATOM     18  H   LIG    1       29.991 -20.294   7.414  0.00  0.00    +0.142 HD
ENDBRANCH  13  16
ENDBRANCH   1  10
BRANCH   1  20
ATOM     19  C   LIG    1       25.463 -16.931   3.312  0.00  0.00    +0.005 C 
ATOM     20  C   LIG    1       25.235 -18.377   2.875  0.00  0.00    +0.017 C 
ENDBRANCH   1  20
TORSDOF 3
ENDMDL
MODEL 5
REMARK VINA RESULT:      -2.6      1.714      3.274
REMARK  Name = *****
REMARK                            x       y       z     vdW  Elec       q    Type
REMARK                         _______ _______ _______ _____ _____    ______ ____
ROOT
ATOM      1  C   LIG    1       26.939 -13.931   3.781  0.00  0.00    +0.072 C 
ATOM      2  C   LIG    1       25.948 -13.103   2.928  0.00  0.00    +0.230 C 
ATOM      3  O   LIG    1       26.198 -12.654   1.812  0.00  0.00    -0.274 OA
ATOM      4  N   LIG    1       24.700 -12.887   3.472  0.00  0.00    -0.256 N 
ATOM      5  H   LIG    1       24.052 -12.391   2.877  0.00  0.00    +0.158 HD
ATOM      6  C   LIG    1       24.373 -12.879   4.801  0.00  0.00    +0.219 C 
ATOM      7  O   LIG    1       23.300 -12.417   5.184  0.00  0.00    -0.275 OA
ATOM      8  C   LIG    1       25.380 -13.466   5.754  0.00  0.00    +0.097 C 
ATOM      9  C   LIG    1       26.798 -13.333   5.211  0.00  0.00    +0.030 C 
ENDROOT
BRANCH   1  10
ATOM     10  C   LIG    1       26.626 -15.440   3.724  0.00  0.00    -0.032 A 
ATOM     11  C   LIG    1       25.364 -15.907   3.318  0.00  0.00    +0.006 A 
ATOM     12  C   LIG    1       25.072 -17.276   3.279  0.00  0.00    +0.023 A 
ATOM     13  C   LIG    1       26.043 -18.224   3.592  0.00  0.00    +0.025 A 
ATOM     14  C   LIG    1       27.288 -17.776   4.023  0.00  0.00    +0.023 A 
ATOM     15  C   LIG    1       27.590 -16.408   4.054  0.00  0.00    +0.006 A 
BRANCH  13  16
ATOM     16  N   LIG    1       25.703 -19.578   3.692  0.00  0.00    -0.358 N 
ATOM     17  H   LIG    1       25.024 -19.882   3.002  0.00  0.00    +0.142 HD
ATOM     18  H   LIG    1       26.504 -20.200   3.743  0.00  0.00    +0.142 HD
ENDBRANCH  13  16
ENDBRANCH   1  10
BRANCH   1  20
ATOM     19  C   LIG    1       29.118 -12.455   3.906  0.00  0.00    +0.005 C 
ATOM     20  C   LIG    1       28.409 -13.678   3.327  0.00  0.00    +0.017 C 
ENDBRANCH   1  20
TORSDOF 3
ENDMDL
MODEL 6
REMARK VINA RESULT:      -2.5      1.660      3.401
REMARK  Name = *****
REMARK                            x       y       z     vdW  Elec       q    Type
REMARK                         _______ _______ _______ _____ _____    ______ ____
ROOT
ATOM      1  C   LIG    1       26.187 -14.075   3.972  0.00  0.00    +0.072 C 
ATOM      2  C   LIG    1       25.830 -13.147   2.786  0.00  0.00    +0.230 C 
ATOM      3  O   LIG    1       26.555 -12.954   1.812  0.00  0.00    -0.274 OA
ATOM      4  N   LIG    1       24.602 -12.526   2.839  0.00  0.00    -0.256 N 
ATOM      5  H   LIG    1       24.366 -11.968   2.031  0.00  0.00    +0.158 HD
ATOM      6  C   LIG    1       23.878 -12.232   3.963  0.00  0.00    +0.219 C 
ATOM      7  O   LIG    1       22.932 -11.447   3.918  0.00  0.00    -0.275 OA
ATOM      8  C   LIG    1       24.289 -12.919   5.238  0.00  0.00    +0.097 C 
ATOM      9  C   LIG    1       25.777 -13.254   5.229  0.00  0.00    +0.030 C 
ENDROOT
BRANCH   1  10
ATOM     10  C   LIG    1       25.467 -15.435   3.877  0.00  0.00    -0.032 A 
ATOM     11  C   LIG    1       26.157 -16.599   3.495  0.00  0.00    +0.006 A 
ATOM     12  C   LIG    1       25.503 -17.833   3.395  0.00  0.00    +0.023 A 
ATOM     13  C   LIG    1       24.155 -17.958   3.722  0.00  0.00    +0.025 A 
ATOM     14  C   LIG    1       23.453 -16.808   4.074  0.00  0.00    +0.023 A 
ATOM     15  C   LIG    1       24.103 -15.572   4.187  0.00  0.00    +0.006 A 
BRANCH  13  16
ATOM     16  N   LIG    1       23.476 -19.157   3.479  0.00  0.00    -0.358 N 
ATOM     17  H   LIG    1       23.754 -19.916   4.093  0.00  0.00    +0.142 HD
ATOM     18  H   LIG    1       22.467 -19.055   3.429  0.00  0.00    +0.142 HD
ENDBRANCH  13  16
ENDBRANCH   1  10
BRANCH   1  20
ATOM     19  C   LIG    1       28.590 -13.086   4.414  0.00  0.00    +0.005 C 
ATOM     20  C   LIG    1       27.728 -14.297   4.060  0.00  0.00    +0.017 C 
ENDBRANCH   1  20
TORSDOF 3
ENDMDL
MODEL 7
REMARK VINA RESULT:      -2.3      3.936      6.593
REMARK  Name = *****
REMARK                            x       y       z     vdW  Elec       q    Type
REMARK                         _______ _______ _______ _____ _____    ______ ____
ROOT
ATOM      1  C   LIG    1       23.331 -19.885   4.272  0.00  0.00    +0.072 C 
ATOM      2  C   LIG    1       24.322 -20.967   3.780  0.00  0.00    +0.230 C 
ATOM      3  O   LIG    1       24.220 -21.570   2.714  0.00  0.00    -0.274 OA
ATOM      4  N   LIG    1       25.395 -21.238   4.602  0.00  0.00    -0.256 N 
ATOM      5  H   LIG    1       26.057 -21.907   4.237  0.00  0.00    +0.158 HD
ATOM      6  C   LIG    1       25.460 -21.053   5.956  0.00  0.00    +0.219 C 
ATOM      7  O   LIG    1       26.355 -21.570   6.622  0.00  0.00    -0.275 OA
ATOM      8  C   LIG    1       24.396 -20.187   6.578  0.00  0.00    +0.097 C 
ATOM      9  C   LIG    1       23.103 -20.236   5.771  0.00  0.00    +0.030 C 
ENDROOT
BRANCH   1  10
ATOM     10  C   LIG    1       23.883 -18.460   4.062  0.00  0.00    -0.032 A 
ATOM     11  C   LIG    1       23.145 -17.330   4.452  0.00  0.00    +0.006 A 
ATOM     12  C   LIG    1       23.637 -16.034   4.251  0.00  0.00    +0.023 A 
ATOM     13  C   LIG    1       24.901 -15.825   3.703  0.00  0.00    +0.025 A 
ATOM     14  C   LIG    1       25.630 -16.935   3.286  0.00  0.00    +0.023 A 
ATOM     15  C   LIG    1       25.148 -18.234   3.494  0.00  0.00    +0.006 A 
BRANCH  13  16
ATOM     16  N   LIG    1       25.323 -14.533   3.371  0.00  0.00    -0.358 N 
ATOM     17  H   LIG    1       26.069 -14.511   2.682  0.00  0.00    +0.142 HD
ATOM     18  H   LIG    1       24.565 -13.900   3.137  0.00  0.00    +0.142 HD
ENDBRANCH  13  16
ENDBRANCH   1  10
BRANCH   1  20
ATOM     19  C   LIG    1       20.758 -20.434   4.421  0.00  0.00    +0.005 C 
ATOM     20  C   LIG    1       21.952 -20.029   3.558  0.00  0.00    +0.017 C 
ENDBRANCH   1  20
TORSDOF 3
ENDMDL
MODEL 8
REMARK VINA RESULT:      -1.8      1.360      2.000
REMARK  Name = *****
REMARK                            x       y       z     vdW  Elec       q    Type
REMARK                         _______ _______ _______ _____ _____    ______ ____
ROOT
ATOM      1  C   LIG    1       24.448 -13.782   4.441  0.00  0.00    +0.072 C 
ATOM      2  C   LIG    1       25.909 -13.710   4.948  0.00  0.00    +0.230 C 
ATOM      3  O   LIG    1       26.232 -13.418   6.096  0.00  0.00    -0.274 OA
ATOM      4  N   LIG    1       26.893 -14.022   4.035  0.00  0.00    -0.256 N 
ATOM      5  H   LIG    1       27.834 -14.021   4.400  0.00  0.00    +0.158 HD
ATOM      6  C   LIG    1       26.811 -13.920   2.672  0.00  0.00    +0.219 C 
ATOM      7  O   LIG    1       27.823 -13.968   1.974  0.00  0.00    -0.275 OA
ATOM      8  C   LIG    1       25.436 -13.759   2.081  0.00  0.00    +0.097 C 
ATOM      9  C   LIG    1       24.493 -13.066   3.059  0.00  0.00    +0.030 C 
ENDROOT
BRANCH   1  10
ATOM     10  C   LIG    1       23.940 -15.235   4.352  0.00  0.00    -0.032 A 
ATOM     11  C   LIG    1       24.724 -16.245   3.768  0.00  0.00    +0.006 A 
ATOM     12  C   LIG    1       24.260 -17.563   3.673  0.00  0.00    +0.023 A 
ATOM     13  C   LIG    1       23.024 -17.928   4.203  0.00  0.00    +0.025 A 
ATOM     14  C   LIG    1       22.225 -16.931   4.758  0.00  0.00    +0.023 A 
ATOM     15  C   LIG    1       22.688 -15.613   4.866  0.00  0.00    +0.006 A 
BRANCH  13  16
ATOM     16  N   LIG    1       22.506 -19.207   3.975  0.00  0.00    -0.358 N 
ATOM     17  H   LIG    1       22.066 -19.622   4.791  0.00  0.00    +0.142 HD
ATOM     18  H   LIG    1       21.919 -19.272   3.149  0.00  0.00    +0.142 HD
ENDBRANCH  13  16
ENDBRANCH   1  10
BRANCH   1  20
ATOM     19  C   LIG    1       23.789 -11.450   5.475  0.00  0.00    +0.005 C 
ATOM     20  C   LIG    1       23.501 -12.945   5.354  0.00  0.00    +0.017 C 
ENDBRANCH   1  20
TORSDOF 3
ENDMDL
