MODEL 1
REMARK VINA RESULT:      -7.8      0.000      0.000
REMARK  Name = *****
REMARK                            x       y       z     vdW  Elec       q    Type
REMARK                         _______ _______ _______ _____ _____    ______ ____
ROOT
ATOM      1  C   LIG    1       22.954 -19.657   4.587  0.00  0.00    +0.117 A 
ATOM      2  C   LIG    1       23.096 -20.598   5.606  0.00  0.00    +0.050 A 
ATOM      3  C   LIG    1       24.368 -21.066   5.983  0.00  0.00    -0.032 A 
ATOM      4  C   LIG    1       24.545 -22.039   7.171  0.00  0.00    +0.028 C 
ATOM      5  C   LIG    1       24.493 -21.164   8.452  0.00  0.00    +0.030 C 
ATOM      6  C   LIG    1       25.685 -20.196   8.533  0.00  0.00    +0.086 C 
ATOM      7  N   LIG    1       27.004 -20.823   8.280  0.00  0.00    -0.296 NA
ATOM      8  C   LIG    1       27.027 -21.668   7.039  0.00  0.00    +0.093 C 
ATOM      9  C   LIG    1       26.898 -20.940   5.687  0.00  0.00    +0.057 C 
ATOM     10  C   LIG    1       25.931 -22.761   7.158  0.00  0.00    +0.091 C 
ATOM     11  C   LIG    1       26.046 -23.897   6.113  0.00  0.00    +0.037 C 
ATOM     12  C   LIG    1       24.800 -24.102   5.258  0.00  0.00    +0.003 C 
ATOM     13  C   LIG    1       23.511 -24.136   6.073  0.00  0.00    +0.001 C 
ATOM     14  C   LIG    1       23.456 -23.136   7.234  0.00  0.00    +0.014 C 
ATOM     15  C   LIG    1       25.493 -20.534   5.319  0.00  0.00    -0.042 A 
ATOM     16  C   LIG    1       25.328 -19.604   4.278  0.00  0.00    +0.007 A 
ATOM     17  C   LIG    1       24.058 -19.162   3.915  0.00  0.00    +0.045 A 
ENDROOT
BRANCH   1  18
ATOM     18  O   LIG    1       21.694 -19.230   4.290  0.00  0.00    -0.507 OA
ATOM     19  H   LIG    1       21.736 -18.679   3.491  0.00  0.00    +0.292 HD
ENDBRANCH   1  18
BRANCH  10  20
ATOM     20  O   LIG    1       26.152 -23.424   8.435  0.00  0.00    -0.386 OA
ATOM     21  H   LIG    1       25.513 -24.168   8.449  0.00  0.00    +0.210 HD
ENDBRANCH  10  20
BRANCH   7  22
ATOM     22  C   LIG    1       28.044 -19.773   8.320  0.00  0.00    +0.088 C 
BRANCH  22  23
ATOM     23  C   LIG    1       29.280 -20.082   7.477  0.00  0.00    +0.003 C 
ATOM     24  C   LIG    1       29.899 -18.994   6.548  0.00  0.00    +0.005 C 
ATOM     25  C   LIG    1       31.285 -19.499   6.990  0.00  0.00    +0.001 C 
ATOM     26  C   LIG    1       30.609 -19.990   8.283  0.00  0.00    +0.005 C 
ENDBRANCH  22  23
ENDBRANCH   7  22
TORSDOF 4
ENDMDL
MODEL 2
REMARK VINA RESULT:      -6.9      7.967     10.943
REMARK  Name = *****
REMARK                            x       y       z     vdW  Elec       q    Type
REMARK                         _______ _______ _______ _____ _____    ______ ____
ROOT
ATOM      1  C   LIG    1       25.406 -27.674   6.830  0.00  0.00    +0.117 A 
ATOM      2  C   LIG    1       25.644 -28.643   7.803  0.00  0.00    +0.050 A 
ATOM      3  C   LIG    1       25.077 -29.927   7.697  0.00  0.00    -0.032 A 
ATOM      4  C   LIG    1       25.409 -31.037   8.720  0.00  0.00    +0.028 C 
ATOM      5  C   LIG    1       26.784 -31.615   8.293  0.00  0.00    +0.030 C 
ATOM      6  C   LIG    1       26.710 -32.322   6.930  0.00  0.00    +0.086 C 
ATOM      7  N   LIG    1       25.583 -33.274   6.793  0.00  0.00    -0.296 NA
ATOM      8  C   LIG    1       24.265 -32.693   7.217  0.00  0.00    +0.093 C 
ATOM      9  C   LIG    1       23.675 -31.570   6.343  0.00  0.00    +0.057 C 
ATOM     10  C   LIG    1       24.381 -32.213   8.689  0.00  0.00    +0.091 C 
ATOM     11  C   LIG    1       23.025 -31.892   9.363  0.00  0.00    +0.037 C 
ATOM     12  C   LIG    1       22.914 -30.477   9.922  0.00  0.00    +0.003 C 
ATOM     13  C   LIG    1       24.131 -30.056  10.740  0.00  0.00    +0.001 C 
ATOM     14  C   LIG    1       25.478 -30.527  10.180  0.00  0.00    +0.014 C 
ATOM     15  C   LIG    1       24.285 -30.209   6.566  0.00  0.00    -0.042 A 
ATOM     16  C   LIG    1       24.035 -29.210   5.607  0.00  0.00    +0.007 A 
ATOM     17  C   LIG    1       24.599 -27.944   5.737  0.00  0.00    +0.045 A 
ENDROOT
BRANCH   1  18
ATOM     18  O   LIG    1       26.006 -26.460   6.985  0.00  0.00    -0.507 OA
ATOM     19  H   LIG    1       25.914 -25.963   6.155  0.00  0.00    +0.292 HD
ENDBRANCH   1  18
BRANCH  10  20
ATOM     20  O   LIG    1       24.900 -33.341   9.446  0.00  0.00    -0.386 OA
ATOM     21  H   LIG    1       25.661 -33.671   8.922  0.00  0.00    +0.210 HD
ENDBRANCH  10  20
BRANCH   7  22
ATOM     22  C   LIG    1       25.591 -33.825   5.420  0.00  0.00    +0.088 C 
BRANCH  22  23
ATOM     23  C   LIG    1       26.446 -33.033   4.433  0.00  0.00    +0.003 C 
ATOM     24  C   LIG    1       27.490 -33.757   3.528  0.00  0.00    +0.005 C 
ATOM     25  C   LIG    1       27.053 -32.819   2.387  0.00  0.00    +0.001 C 
ATOM     26  C   LIG    1       25.699 -32.696   3.108  0.00  0.00    +0.005 C 
ENDBRANCH  22  23
ENDBRANCH   7  22
TORSDOF 4
ENDMDL
MODEL 3
REMARK VINA RESULT:      -6.8      7.482      9.872
REMARK  Name = *****
REMARK                            x       y       z     vdW  Elec       q    Type
REMARK                         _______ _______ _______ _____ _____    ______ ____
ROOT
ATOM      1  C   LIG    1       24.697 -28.045   6.479  0.00  0.00    +0.117 A 
ATOM      2  C   LIG    1       24.363 -29.313   6.950  0.00  0.00    +0.050 A 
ATOM      3  C   LIG    1       24.996 -29.851   8.085  0.00  0.00    -0.032 A 
ATOM      4  C   LIG    1       24.569 -31.217   8.670  0.00  0.00    +0.028 C 
ATOM      5  C   LIG    1       23.299 -30.941   9.517  0.00  0.00    +0.030 C 
ATOM      6  C   LIG    1       23.603 -30.050  10.733  0.00  0.00    +0.086 C 
ATOM      7  N   LIG    1       24.780 -30.476  11.527  0.00  0.00    -0.296 NA
ATOM      8  C   LIG    1       25.994 -30.742  10.684  0.00  0.00    +0.093 C 
ATOM      9  C   LIG    1       26.654 -29.532   9.996  0.00  0.00    +0.057 C 
ATOM     10  C   LIG    1       25.643 -31.825   9.629  0.00  0.00    +0.091 C 
ATOM     11  C   LIG    1       26.869 -32.433   8.907  0.00  0.00    +0.037 C 
ATOM     12  C   LIG    1       26.834 -32.315   7.386  0.00  0.00    +0.003 C 
ATOM     13  C   LIG    1       25.493 -32.720   6.783  0.00  0.00    +0.001 C 
ATOM     14  C   LIG    1       24.265 -32.281   7.588  0.00  0.00    +0.014 C 
ATOM     15  C   LIG    1       25.957 -29.059   8.745  0.00  0.00    -0.042 A 
ATOM     16  C   LIG    1       26.299 -27.791   8.241  0.00  0.00    +0.007 A 
ATOM     17  C   LIG    1       25.666 -27.282   7.110  0.00  0.00    +0.045 A 
ENDROOT
BRANCH   1  18
ATOM     18  O   LIG    1       24.027 -27.576   5.388  0.00  0.00    -0.507 OA
ATOM     19  H   LIG    1       23.084 -27.505   5.613  0.00  0.00    +0.292 HD
ENDBRANCH   1  18
BRANCH  10  20
ATOM     20  O   LIG    1       25.069 -32.941  10.365  0.00  0.00    -0.386 OA
ATOM     21  H   LIG    1       24.707 -32.545  11.187  0.00  0.00    +0.210 HD
ENDBRANCH  10  20
BRANCH   7  22
ATOM     22  C   LIG    1       24.997 -29.498  12.615  0.00  0.00    +0.088 C 
BRANCH  22  23
ATOM     23  C   LIG    1       24.127 -28.247  12.516  0.00  0.00    +0.003 C 
ATOM     24  C   LIG    1       22.906 -28.052  13.466  0.00  0.00    +0.005 C 
ATOM     25  C   LIG    1       23.308 -26.569  13.570  0.00  0.00    +0.001 C 
ATOM     26  C   LIG    1       24.744 -27.014  13.240  0.00  0.00    +0.005 C 
ENDBRANCH  22  23
ENDBRANCH   7  22
TORSDOF 4
ENDMDL
MODEL 4
REMARK VINA RESULT:      -6.2      1.720      3.798
REMARK  Name = *****
REMARK                            x       y       z     vdW  Elec       q    Type
REMARK                         _______ _______ _______ _____ _____    ______ ____
ROOT
ATOM      1  C   LIG    1       25.507 -25.478   5.009  0.00  0.00    +0.117 A 
ATOM      2  C   LIG    1       24.921 -24.223   4.846  0.00  0.00    +0.050 A 
ATOM      3  C   LIG    1       24.949 -23.275   5.884  0.00  0.00    -0.032 A 
ATOM      4  C   LIG    1       24.385 -21.849   5.684  0.00  0.00    +0.028 C 
ATOM      5  C   LIG    1       25.487 -21.054   4.936  0.00  0.00    +0.030 C 
ATOM      6  C   LIG    1       26.750 -20.878   5.794  0.00  0.00    +0.086 C 
ATOM      7  N   LIG    1       26.492 -20.405   7.175  0.00  0.00    -0.296 NA
ATOM      8  C   LIG    1       25.419 -21.187   7.876  0.00  0.00    +0.093 C 
ATOM      9  C   LIG    1       25.731 -22.653   8.230  0.00  0.00    +0.057 C 
ATOM     10  C   LIG    1       24.116 -21.111   7.035  0.00  0.00    +0.091 C 
ATOM     11  C   LIG    1       22.847 -21.590   7.780  0.00  0.00    +0.037 C 
ATOM     12  C   LIG    1       22.089 -22.716   7.085  0.00  0.00    +0.003 C 
ATOM     13  C   LIG    1       21.878 -22.467   5.594  0.00  0.00    +0.001 C 
ATOM     14  C   LIG    1       23.066 -21.819   4.874  0.00  0.00    +0.014 C 
ATOM     15  C   LIG    1       25.610 -23.621   7.081  0.00  0.00    -0.042 A 
ATOM     16  C   LIG    1       26.173 -24.900   7.235  0.00  0.00    +0.007 A 
ATOM     17  C   LIG    1       26.126 -25.827   6.197  0.00  0.00    +0.045 A 
ENDROOT
BRANCH   1  18
ATOM     18  O   LIG    1       25.464 -26.339   3.953  0.00  0.00    -0.507 OA
ATOM     19  H   LIG    1       24.570 -26.316   3.573  0.00  0.00    +0.292 HD
ENDBRANCH   1  18
BRANCH  10  20
ATOM     20  O   LIG    1       23.873 -19.699   6.784  0.00  0.00    -0.386 OA
ATOM     21  H   LIG    1       23.097 -19.677   6.184  0.00  0.00    +0.210 HD
ENDBRANCH  10  20
BRANCH   7  22
ATOM     22  C   LIG    1       27.778 -20.348   7.904  0.00  0.00    +0.088 C 
BRANCH  22  23
ATOM     23  C   LIG    1       29.001 -20.177   7.005  0.00  0.00    +0.003 C 
ATOM     24  C   LIG    1       29.540 -18.755   6.661  0.00  0.00    +0.005 C 
ATOM     25  C   LIG    1       30.961 -19.327   6.821  0.00  0.00    +0.001 C 
ATOM     26  C   LIG    1       30.348 -20.383   7.759  0.00  0.00    +0.005 C 
ENDBRANCH  22  23
ENDBRANCH   7  22
TORSDOF 4
ENDMDL
MODEL 5
REMARK VINA RESULT:      -6.2      7.926     10.316
REMARK  Name = *****
REMARK                            x       y       z     vdW  Elec       q    Type
REMARK                         _______ _______ _______ _____ _____    ______ ____
ROOT
ATOM      1  C   LIG    1       25.061 -28.473   7.160  0.00  0.00    +0.117 A 
ATOM      2  C   LIG    1       24.359 -29.587   7.618  0.00  0.00    +0.050 A 
ATOM      3  C   LIG    1       24.664 -30.170   8.861  0.00  0.00    -0.032 A 
ATOM      4  C   LIG    1       23.832 -31.347   9.421  0.00  0.00    +0.028 C 
ATOM      5  C   LIG    1       22.556 -30.715  10.036  0.00  0.00    +0.030 C 
ATOM      6  C   LIG    1       22.883 -29.829  11.250  0.00  0.00    +0.086 C 
ATOM      7  N   LIG    1       23.787 -30.458  12.242  0.00  0.00    -0.296 NA
ATOM      8  C   LIG    1       25.011 -31.067  11.622  0.00  0.00    +0.093 C 
ATOM      9  C   LIG    1       26.043 -30.104  11.005  0.00  0.00    +0.057 C 
ATOM     10  C   LIG    1       24.568 -32.115  10.566  0.00  0.00    +0.091 C 
ATOM     11  C   LIG    1       25.702 -33.049  10.079  0.00  0.00    +0.037 C 
ATOM     12  C   LIG    1       25.926 -33.044   8.570  0.00  0.00    +0.003 C 
ATOM     13  C   LIG    1       24.632 -33.167   7.771  0.00  0.00    +0.001 C 
ATOM     14  C   LIG    1       23.442 -32.390   8.345  0.00  0.00    +0.014 C 
ATOM     15  C   LIG    1       25.680 -29.578   9.640  0.00  0.00    -0.042 A 
ATOM     16  C   LIG    1       26.393 -28.470   9.149  0.00  0.00    +0.007 A 
ATOM     17  C   LIG    1       26.081 -27.914   7.911  0.00  0.00    +0.045 A 
ENDROOT
BRANCH   1  18
ATOM     18  O   LIG    1       24.697 -27.946   5.956  0.00  0.00    -0.507 OA
ATOM     19  H   LIG    1       25.499 -27.643   5.498  0.00  0.00    +0.292 HD
ENDBRANCH   1  18
BRANCH  10  20
ATOM     20  O   LIG    1       23.635 -33.005  11.240  0.00  0.00    -0.386 OA
ATOM     21  H   LIG    1       24.199 -33.645  11.725  0.00  0.00    +0.210 HD
ENDBRANCH  10  20
BRANCH   7  22
ATOM     22  C   LIG    1       24.071 -29.478  13.313  0.00  0.00    +0.088 C 
BRANCH  22  23
ATOM     23  C   LIG    1       23.716 -28.037  12.953  0.00  0.00    +0.003 C 
ATOM     24  C   LIG    1       22.735 -27.216  13.845  0.00  0.00    +0.005 C 
ATOM     25  C   LIG    1       23.660 -26.003  13.631  0.00  0.00    +0.001 C 
ATOM     26  C   LIG    1       24.800 -27.011  13.396  0.00  0.00    +0.005 C 
ENDBRANCH  22  23
ENDBRANCH   7  22
TORSDOF 4
ENDMDL
MODEL 6
REMARK VINA RESULT:      -5.9      7.574     10.618
REMARK  Name = *****
REMARK                            x       y       z     vdW  Elec       q    Type
REMARK                         _______ _______ _______ _____ _____    ______ ____
ROOT
ATOM      1  C   LIG    1       27.767 -29.783  10.745  0.00  0.00    +0.117 A 
ATOM      2  C   LIG    1       27.359 -30.902  10.020  0.00  0.00    +0.050 A 
ATOM      3  C   LIG    1       26.128 -30.910   9.339  0.00  0.00    -0.032 A 
ATOM      4  C   LIG    1       25.707 -32.107   8.457  0.00  0.00    +0.028 C 
ATOM      5  C   LIG    1       26.447 -31.924   7.105  0.00  0.00    +0.030 C 
ATOM      6  C   LIG    1       25.966 -30.672   6.354  0.00  0.00    +0.086 C 
ATOM      7  N   LIG    1       24.493 -30.540   6.261  0.00  0.00    -0.296 NA
ATOM      8  C   LIG    1       23.800 -30.726   7.581  0.00  0.00    +0.093 C 
ATOM      9  C   LIG    1       24.023 -29.644   8.654  0.00  0.00    +0.057 C 
ATOM     10  C   LIG    1       24.175 -32.121   8.149  0.00  0.00    +0.091 C 
ATOM     11  C   LIG    1       23.292 -32.585   9.333  0.00  0.00    +0.037 C 
ATOM     12  C   LIG    1       24.063 -32.927  10.604  0.00  0.00    +0.003 C 
ATOM     13  C   LIG    1       25.279 -33.813  10.350  0.00  0.00    +0.001 C 
ATOM     14  C   LIG    1       26.063 -33.481   9.075  0.00  0.00    +0.014 C 
ATOM     15  C   LIG    1       25.335 -29.745   9.390  0.00  0.00    -0.042 A 
ATOM     16  C   LIG    1       25.752 -28.636  10.148  0.00  0.00    +0.007 A 
ATOM     17  C   LIG    1       26.971 -28.653  10.821  0.00  0.00    +0.045 A 
ENDROOT
BRANCH   1  18
ATOM     18  O   LIG    1       28.982 -29.836  11.361  0.00  0.00    -0.507 OA
ATOM     19  H   LIG    1       28.839 -29.891  12.320  0.00  0.00    +0.292 HD
ENDBRANCH   1  18
BRANCH  10  20
ATOM     20  O   LIG    1       23.894 -33.082   7.093  0.00  0.00    -0.386 OA
ATOM     21  H   LIG    1       23.082 -32.748   6.655  0.00  0.00    +0.210 HD
ENDBRANCH  10  20
BRANCH   7  22
ATOM     22  C   LIG    1       24.173 -29.266   5.581  0.00  0.00    +0.088 C 
BRANCH  22  23
ATOM     23  C   LIG    1       25.137 -28.125   5.901  0.00  0.00    +0.003 C 
ATOM     24  C   LIG    1       25.843 -27.339   4.755  0.00  0.00    +0.005 C 
ATOM     25  C   LIG    1       25.607 -26.058   5.577  0.00  0.00    +0.001 C 
ATOM     26  C   LIG    1       24.412 -26.784   6.223  0.00  0.00    +0.005 C 
ENDBRANCH  22  23
ENDBRANCH   7  22
TORSDOF 4
ENDMDL
MODEL 7
REMARK VINA RESULT:      -5.9      8.127     10.496
REMARK  Name = *****
REMARK                            x       y       z     vdW  Elec       q    Type
REMARK                         _______ _______ _______ _____ _____    ______ ____
ROOT
ATOM      1  C   LIG    1       22.798 -27.204  13.250  0.00  0.00    +0.117 A 
ATOM      2  C   LIG    1       24.183 -27.284  13.385  0.00  0.00    +0.050 A 
ATOM      3  C   LIG    1       24.893 -28.391  12.886  0.00  0.00    -0.032 A 
ATOM      4  C   LIG    1       26.437 -28.448  12.947  0.00  0.00    +0.028 C 
ATOM      5  C   LIG    1       26.944 -27.592  11.756  0.00  0.00    +0.030 C 
ATOM      6  C   LIG    1       26.564 -28.213  10.402  0.00  0.00    +0.086 C 
ATOM      7  N   LIG    1       26.867 -29.659  10.283  0.00  0.00    -0.296 NA
ATOM      8  C   LIG    1       26.371 -30.464  11.450  0.00  0.00    +0.093 C 
ATOM      9  C   LIG    1       24.846 -30.601  11.615  0.00  0.00    +0.057 C 
ATOM     10  C   LIG    1       26.996 -29.893  12.751  0.00  0.00    +0.091 C 
ATOM     11  C   LIG    1       26.838 -30.810  13.989  0.00  0.00    +0.037 C 
ATOM     12  C   LIG    1       26.143 -30.156  15.179  0.00  0.00    +0.003 C 
ATOM     13  C   LIG    1       26.683 -28.765  15.499  0.00  0.00    +0.001 C 
ATOM     14  C   LIG    1       27.020 -27.906  14.275  0.00  0.00    +0.014 C 
ATOM     15  C   LIG    1       24.166 -29.401  12.223  0.00  0.00    -0.042 A 
ATOM     16  C   LIG    1       22.766 -29.314  12.119  0.00  0.00    +0.007 A 
ATOM     17  C   LIG    1       22.082 -28.213  12.629  0.00  0.00    +0.045 A 
ENDROOT
BRANCH   1  18
ATOM     18  O   LIG    1       22.177 -26.091  13.737  0.00  0.00    -0.507 OA
ATOM     19  H   LIG    1       21.479 -25.831  13.114  0.00  0.00    +0.292 HD
ENDBRANCH   1  18
BRANCH  10  20
ATOM     20  O   LIG    1       28.432 -29.839  12.526  0.00  0.00    -0.386 OA
ATOM     21  H   LIG    1       28.642 -28.884  12.447  0.00  0.00    +0.210 HD
ENDBRANCH  10  20
BRANCH   7  22
ATOM     22  C   LIG    1       26.390 -30.138   8.967  0.00  0.00    +0.088 C 
BRANCH  22  23
ATOM     23  C   LIG    1       25.279 -29.285   8.356  0.00  0.00    +0.003 C 
ATOM     24  C   LIG    1       25.561 -28.393   7.108  0.00  0.00    +0.005 C 
ATOM     25  C   LIG    1       24.179 -28.818   6.575  0.00  0.00    +0.001 C 
ATOM     26  C   LIG    1       24.329 -30.094   7.424  0.00  0.00    +0.005 C 
ENDBRANCH  22  23
ENDBRANCH   7  22
TORSDOF 4
ENDMDL
MODEL 8
REMARK VINA RESULT:      -5.7      7.938     10.326
REMARK  Name = *****
REMARK                            x       y       z     vdW  Elec       q    Type
REMARK                         _______ _______ _______ _____ _____    ______ ____
ROOT
ATOM      1  C   LIG    1       24.647 -28.095   6.317  0.00  0.00    +0.117 A 
ATOM      2  C   LIG    1       24.342 -29.340   6.864  0.00  0.00    +0.050 A 
ATOM      3  C   LIG    1       25.005 -29.804   8.015  0.00  0.00    -0.032 A 
ATOM      4  C   LIG    1       24.611 -31.141   8.684  0.00  0.00    +0.028 C 
ATOM      5  C   LIG    1       23.353 -30.837   9.539  0.00  0.00    +0.030 C 
ATOM      6  C   LIG    1       23.665 -29.875  10.697  0.00  0.00    +0.086 C 
ATOM      7  N   LIG    1       24.863 -30.238  11.490  0.00  0.00    -0.296 NA
ATOM      8  C   LIG    1       26.066 -30.532  10.640  0.00  0.00    +0.093 C 
ATOM      9  C   LIG    1       26.693 -29.353   9.872  0.00  0.00    +0.057 C 
ATOM     10  C   LIG    1       25.712 -31.678   9.654  0.00  0.00    +0.091 C 
ATOM     11  C   LIG    1       26.935 -32.307   8.943  0.00  0.00    +0.037 C 
ATOM     12  C   LIG    1       26.869 -32.275   7.419  0.00  0.00    +0.003 C 
ATOM     13  C   LIG    1       25.524 -32.733   6.866  0.00  0.00    +0.001 C 
ATOM     14  C   LIG    1       24.304 -32.269   7.669  0.00  0.00    +0.014 C 
ATOM     15  C   LIG    1       25.966 -28.961   8.611  0.00  0.00    -0.042 A 
ATOM     16  C   LIG    1       26.278 -27.719   8.030  0.00  0.00    +0.007 A 
ATOM     17  C   LIG    1       25.615 -27.284   6.885  0.00  0.00    +0.045 A 
ENDROOT
BRANCH   1  18
ATOM     18  O   LIG    1       23.949 -27.699   5.214  0.00  0.00    -0.507 OA
ATOM     19  H   LIG    1       23.001 -27.742   5.419  0.00  0.00    +0.292 HD
ENDBRANCH   1  18
BRANCH  10  20
ATOM     20  O   LIG    1       25.171 -32.760  10.462  0.00  0.00    -0.386 OA
ATOM     21  H   LIG    1       24.225 -32.532  10.591  0.00  0.00    +0.210 HD
ENDBRANCH  10  20
BRANCH   7  22
ATOM     22  C   LIG    1       25.085 -29.197  12.518  0.00  0.00    +0.088 C 
BRANCH  22  23
ATOM     23  C   LIG    1       24.760 -29.645  13.941  0.00  0.00    +0.003 C 
ATOM     24  C   LIG    1       23.294 -29.597  14.472  0.00  0.00    +0.005 C 
ATOM     25  C   LIG    1       23.570 -30.946  15.162  0.00  0.00    +0.001 C 
ATOM     26  C   LIG    1       24.642 -31.191  14.085  0.00  0.00    +0.005 C 
ENDBRANCH  22  23
ENDBRANCH   7  22
TORSDOF 4
ENDMDL
MODEL 9
REMARK VINA RESULT:      -5.6      8.314     10.831
REMARK  Name = *****
REMARK                            x       y       z     vdW  Elec       q    Type
REMARK                         _______ _______ _______ _____ _____    ______ ____
ROOT
ATOM      1  C   LIG    1       24.659 -26.384  14.033  0.00  0.00    +0.117 A 
ATOM      2  C   LIG    1       25.507 -27.455  13.756  0.00  0.00    +0.050 A 
ATOM      3  C   LIG    1       25.049 -28.568  13.028  0.00  0.00    -0.032 A 
ATOM      4  C   LIG    1       26.003 -29.719  12.635  0.00  0.00    +0.028 C 
ATOM      5  C   LIG    1       26.775 -29.225  11.383  0.00  0.00    +0.030 C 
ATOM      6  C   LIG    1       25.845 -29.033  10.174  0.00  0.00    +0.086 C 
ATOM      7  N   LIG    1       24.934 -30.173   9.914  0.00  0.00    -0.296 NA
ATOM      8  C   LIG    1       24.203 -30.635  11.142  0.00  0.00    +0.093 C 
ATOM      9  C   LIG    1       23.151 -29.681  11.738  0.00  0.00    +0.057 C 
ATOM     10  C   LIG    1       25.244 -31.021  12.227  0.00  0.00    +0.091 C 
ATOM     11  C   LIG    1       24.657 -31.815  13.420  0.00  0.00    +0.037 C 
ATOM     12  C   LIG    1       24.898 -31.180  14.785  0.00  0.00    +0.003 C 
ATOM     13  C   LIG    1       26.339 -30.725  14.990  0.00  0.00    +0.001 C 
ATOM     14  C   LIG    1       27.000 -30.100  13.756  0.00  0.00    +0.014 C 
ATOM     15  C   LIG    1       23.716 -28.555  12.566  0.00  0.00    -0.042 A 
ATOM     16  C   LIG    1       22.869 -27.476  12.877  0.00  0.00    +0.007 A 
ATOM     17  C   LIG    1       23.342 -26.389  13.607  0.00  0.00    +0.045 A 
ENDROOT
BRANCH   1  18
ATOM     18  O   LIG    1       25.176 -25.328  14.723  0.00  0.00    -0.507 OA
ATOM     19  H   LIG    1       24.830 -24.508  14.335  0.00  0.00    +0.292 HD
ENDBRANCH   1  18
BRANCH  10  20
ATOM     20  O   LIG    1       26.166 -31.952  11.596  0.00  0.00    -0.386 OA
ATOM     21  H   LIG    1       26.930 -31.403  11.316  0.00  0.00    +0.210 HD
ENDBRANCH  10  20
BRANCH   7  22
ATOM     22  C   LIG    1       24.054 -29.828   8.776  0.00  0.00    +0.088 C 
BRANCH  22  23
ATOM     23  C   LIG    1       24.788 -29.652   7.448  0.00  0.00    +0.003 C 
ATOM     24  C   LIG    1       24.265 -30.349   6.155  0.00  0.00    +0.005 C 
ATOM     25  C   LIG    1       24.619 -29.057   5.395  0.00  0.00    +0.001 C 
ATOM     26  C   LIG    1       24.444 -28.313   6.731  0.00  0.00    +0.005 C 
ENDBRANCH  22  23
ENDBRANCH   7  22
TORSDOF 4
ENDMDL
