MODEL 1
REMARK VINA RESULT:     -10.6      0.000      0.000
REMARK  Name = *****
REMARK                            x       y       z     vdW  Elec       q    Type
REMARK                         _______ _______ _______ _____ _____    ______ ____
ROOT
ATOM      1  C   LIG    1       24.919 -21.287   6.911  0.00  0.00    +0.148 C 
ENDROOT
BRANCH   1   2
ATOM      2  C   LIG    1       24.913 -22.808   6.781  0.00  0.00    -0.020 A 
ATOM      3  C   LIG    1       26.082 -23.573   6.889  0.00  0.00    +0.006 A 
ATOM      4  C   LIG    1       26.047 -24.967   6.759  0.00  0.00    +0.009 A 
ATOM      5  C   LIG    1       24.849 -25.662   6.519  0.00  0.00    -0.018 A 
ATOM      6  C   LIG    1       23.676 -24.890   6.446  0.00  0.00    +0.009 A 
ATOM      7  C   LIG    1       23.703 -23.493   6.582  0.00  0.00    +0.006 A 
BRANCH   5   8
ATOM      8  C   LIG    1       24.832 -27.137   6.357  0.00  0.00    -0.018 A 
ATOM      9  C   LIG    1       24.426 -27.745   5.156  0.00  0.00    +0.008 A 
ATOM     10  C   LIG    1       24.397 -29.138   5.010  0.00  0.00    +0.001 A 
ATOM     11  C   LIG    1       24.768 -29.959   6.070  0.00  0.00    +0.000 A 
ATOM     12  C   LIG    1       25.176 -29.388   7.270  0.00  0.00    +0.001 A 
ATOM     13  C   LIG    1       25.214 -27.996   7.407  0.00  0.00    +0.008 A 
ENDBRANCH   5   8
ENDBRANCH   1   2
BRANCH   1  14
ATOM     14  C   LIG    1       24.239 -20.523   5.769  0.00  0.00    -0.020 A 
ATOM     15  C   LIG    1       24.842 -20.351   4.511  0.00  0.00    +0.006 A 
ATOM     16  C   LIG    1       24.211 -19.619   3.502  0.00  0.00    +0.000 A 
ATOM     17  C   LIG    1       22.955 -19.063   3.721  0.00  0.00    +0.000 A 
ATOM     18  C   LIG    1       22.323 -19.249   4.948  0.00  0.00    +0.000 A 
ATOM     19  C   LIG    1       22.956 -19.974   5.963  0.00  0.00    +0.006 A 
ENDBRANCH   1  14
BRANCH   1  23
ATOM     20  C   LIG    1       28.312 -20.017   7.128  0.00  0.00    +0.130 A 
ATOM     21  N   LIG    1       27.950 -20.009   8.449  0.00  0.00    -0.244 NA
ATOM     22  C   LIG    1       26.718 -20.457   8.472  0.00  0.00    +0.200 A 
ATOM     23  N   LIG    1       26.264 -20.768   7.216  0.00  0.00    -0.325 N 
ATOM     24  C   LIG    1       27.285 -20.478   6.344  0.00  0.00    +0.108 A 
ENDBRANCH   1  23
TORSDOF 4
ENDMDL
MODEL 2
REMARK VINA RESULT:     -10.0      2.525      7.489
REMARK  Name = *****
REMARK                            x       y       z     vdW  Elec       q    Type
REMARK                         _______ _______ _______ _____ _____    ______ ____
ROOT
ATOM      1  C   LIG    1       25.922 -21.261   5.476  0.00  0.00    +0.148 C 
ENDROOT
BRANCH   1   2
ATOM      2  C   LIG    1       26.994 -20.563   6.310  0.00  0.00    -0.020 A 
ATOM      3  C   LIG    1       26.926 -20.494   7.708  0.00  0.00    +0.006 A 
ATOM      4  C   LIG    1       27.921 -19.842   8.448  0.00  0.00    +0.009 A 
ATOM      5  C   LIG    1       29.027 -19.232   7.831  0.00  0.00    -0.018 A 
ATOM      6  C   LIG    1       29.104 -19.336   6.431  0.00  0.00    +0.009 A 
ATOM      7  C   LIG    1       28.114 -19.995   5.684  0.00  0.00    +0.006 A 
BRANCH   5   8
ATOM      8  C   LIG    1       30.059 -18.521   8.626  0.00  0.00    -0.018 A 
ATOM      9  C   LIG    1       29.758 -17.924   9.863  0.00  0.00    +0.008 A 
ATOM     10  C   LIG    1       30.731 -17.241  10.604  0.00  0.00    +0.001 A 
ATOM     11  C   LIG    1       32.030 -17.133  10.120  0.00  0.00    +0.000 A 
ATOM     12  C   LIG    1       32.359 -17.715   8.901  0.00  0.00    +0.001 A 
ATOM     13  C   LIG    1       31.387 -18.406   8.169  0.00  0.00    +0.008 A 
ENDBRANCH   5   8
ENDBRANCH   1   2
BRANCH   1  14
ATOM     14  C   LIG    1       24.701 -20.406   5.118  0.00  0.00    -0.020 A 
ATOM     15  C   LIG    1       23.548 -20.362   5.921  0.00  0.00    +0.006 A 
ATOM     16  C   LIG    1       22.438 -19.599   5.549  0.00  0.00    +0.000 A 
ATOM     17  C   LIG    1       22.466 -18.847   4.380  0.00  0.00    +0.000 A 
ATOM     18  C   LIG    1       23.610 -18.847   3.586  0.00  0.00    +0.000 A 
ATOM     19  C   LIG    1       24.719 -19.617   3.951  0.00  0.00    +0.006 A 
ENDBRANCH   1  14
BRANCH   1  23
ATOM     20  C   LIG    1       24.577 -24.459   6.544  0.00  0.00    +0.130 A 
ATOM     21  N   LIG    1       25.721 -24.398   7.295  0.00  0.00    -0.244 NA
ATOM     22  C   LIG    1       26.286 -23.260   6.972  0.00  0.00    +0.200 A 
ATOM     23  N   LIG    1       25.549 -22.569   6.045  0.00  0.00    -0.325 N 
ATOM     24  C   LIG    1       24.450 -23.341   5.758  0.00  0.00    +0.108 A 
ENDBRANCH   1  23
TORSDOF 4
ENDMDL
MODEL 3
REMARK VINA RESULT:      -9.8      2.206      7.638
REMARK  Name = *****
REMARK                            x       y       z     vdW  Elec       q    Type
REMARK                         _______ _______ _______ _____ _____    ______ ____
ROOT
ATOM      1  C   LIG    1       24.601 -21.721   6.844  0.00  0.00    +0.148 C 
ENDROOT
BRANCH   1   2
ATOM      2  C   LIG    1       25.911 -21.030   7.213  0.00  0.00    -0.020 A 
ATOM      3  C   LIG    1       26.272 -20.772   8.543  0.00  0.00    +0.006 A 
ATOM      4  C   LIG    1       27.478 -20.130   8.852  0.00  0.00    +0.009 A 
ATOM      5  C   LIG    1       28.379 -19.720   7.854  0.00  0.00    -0.018 A 
ATOM      6  C   LIG    1       28.025 -20.013   6.525  0.00  0.00    +0.009 A 
ATOM      7  C   LIG    1       26.821 -20.662   6.209  0.00  0.00    +0.006 A 
BRANCH   5   8
ATOM      8  C   LIG    1       29.641 -19.017   8.195  0.00  0.00    -0.018 A 
ATOM      9  C   LIG    1       29.694 -18.041   9.206  0.00  0.00    +0.008 A 
ATOM     10  C   LIG    1       30.883 -17.370   9.517  0.00  0.00    +0.001 A 
ATOM     11  C   LIG    1       32.050 -17.654   8.816  0.00  0.00    +0.000 A 
ATOM     12  C   LIG    1       32.030 -18.616   7.811  0.00  0.00    +0.001 A 
ATOM     13  C   LIG    1       30.843 -19.292   7.512  0.00  0.00    +0.008 A 
ENDBRANCH   5   8
ENDBRANCH   1   2
BRANCH   1  14
ATOM     14  C   LIG    1       24.687 -23.239   6.647  0.00  0.00    -0.020 A 
ATOM     15  C   LIG    1       23.549 -24.042   6.456  0.00  0.00    +0.006 A 
ATOM     16  C   LIG    1       23.658 -25.428   6.314  0.00  0.00    +0.000 A 
ATOM     17  C   LIG    1       24.907 -26.037   6.338  0.00  0.00    +0.000 A 
ATOM     18  C   LIG    1       26.052 -25.259   6.492  0.00  0.00    +0.000 A 
ATOM     19  C   LIG    1       25.945 -23.872   6.643  0.00  0.00    +0.006 A 
ENDBRANCH   1  14
BRANCH   1  23
ATOM     20  C   LIG    1       23.240 -20.347   3.773  0.00  0.00    +0.130 A 
ATOM     21  N   LIG    1       22.469 -19.705   4.705  0.00  0.00    -0.244 NA
ATOM     22  C   LIG    1       22.892 -20.145   5.865  0.00  0.00    +0.200 A 
ATOM     23  N   LIG    1       23.918 -21.044   5.728  0.00  0.00    -0.325 N 
ATOM     24  C   LIG    1       24.142 -21.185   4.380  0.00  0.00    +0.108 A 
ENDBRANCH   1  23
TORSDOF 4
ENDMDL
MODEL 4
REMARK VINA RESULT:      -8.5      1.580      3.597
REMARK  Name = *****
REMARK                            x       y       z     vdW  Elec       q    Type
REMARK                         _______ _______ _______ _____ _____    ______ ____
ROOT
ATOM      1  C   LIG    1       25.517 -21.902   5.480  0.00  0.00    +0.148 C 
ENDROOT
BRANCH   1   2
ATOM      2  C   LIG    1       25.371 -23.400   5.741  0.00  0.00    -0.020 A 
ATOM      3  C   LIG    1       24.794 -24.268   4.804  0.00  0.00    +0.006 A 
ATOM      4  C   LIG    1       24.667 -25.637   5.072  0.00  0.00    +0.009 A 
ATOM      5  C   LIG    1       25.110 -26.203   6.281  0.00  0.00    -0.018 A 
ATOM      6  C   LIG    1       25.719 -25.330   7.200  0.00  0.00    +0.009 A 
ATOM      7  C   LIG    1       25.855 -23.958   6.934  0.00  0.00    +0.006 A 
BRANCH   5   8
ATOM      8  C   LIG    1       24.945 -27.650   6.562  0.00  0.00    -0.018 A 
ATOM      9  C   LIG    1       24.230 -28.495   5.694  0.00  0.00    +0.008 A 
ATOM     10  C   LIG    1       24.063 -29.859   5.969  0.00  0.00    +0.001 A 
ATOM     11  C   LIG    1       24.603 -30.410   7.126  0.00  0.00    +0.000 A 
ATOM     12  C   LIG    1       25.318 -29.601   8.002  0.00  0.00    +0.001 A 
ATOM     13  C   LIG    1       25.491 -28.242   7.718  0.00  0.00    +0.008 A 
ENDBRANCH   5   8
ENDBRANCH   1   2
BRANCH   1  14
ATOM     14  C   LIG    1       26.393 -21.140   6.481  0.00  0.00    -0.020 A 
ATOM     15  C   LIG    1       27.648 -20.608   6.136  0.00  0.00    +0.006 A 
ATOM     16  C   LIG    1       28.438 -19.948   7.081  0.00  0.00    +0.000 A 
ATOM     17  C   LIG    1       27.981 -19.787   8.384  0.00  0.00    +0.000 A 
ATOM     18  C   LIG    1       26.726 -20.274   8.741  0.00  0.00    +0.000 A 
ATOM     19  C   LIG    1       25.937 -20.943   7.800  0.00  0.00    +0.006 A 
ENDBRANCH   1  14
BRANCH   1  23
ATOM     20  C   LIG    1       22.106 -20.680   5.274  0.00  0.00    +0.130 A 
ATOM     21  N   LIG    1       22.754 -19.765   4.488  0.00  0.00    -0.244 NA
ATOM     22  C   LIG    1       24.014 -20.128   4.503  0.00  0.00    +0.200 A 
ATOM     23  N   LIG    1       24.213 -21.253   5.262  0.00  0.00    -0.325 N 
ATOM     24  C   LIG    1       22.987 -21.610   5.768  0.00  0.00    +0.108 A 
ENDBRANCH   1  23
TORSDOF 4
ENDMDL
