MODEL 1
REMARK VINA RESULT:     -10.5      0.000      0.000
REMARK  Name = *****
REMARK                            x       y       z     vdW  Elec       q    Type
REMARK                         _______ _______ _______ _____ _____    ______ ____
ROOT
ATOM      1  C   LIG    1       25.866 -31.388   5.173  0.00  0.00    +0.111 A 
ATOM      2  N   LIG    1       25.316 -30.222   5.721  0.00  0.00    -0.323 N 
ATOM      3  C   LIG    1       25.638 -30.252   7.120  0.00  0.00    +0.070 A 
ATOM      4  C   LIG    1       25.478 -29.390   8.251  0.00  0.00    +0.039 A 
ATOM      5  C   LIG    1       25.983 -29.797   9.530  0.00  0.00    +0.020 A 
ATOM      6  C   LIG    1       26.601 -31.052   9.632  0.00  0.00    +0.017 A 
ATOM      7  C   LIG    1       26.708 -31.934   8.552  0.00  0.00    -0.022 A 
ATOM      8  C   LIG    1       27.263 -33.315   8.772  0.00  0.00    +0.046 C 
ATOM      9  C   LIG    1       26.253 -31.486   7.301  0.00  0.00    +0.092 A 
ATOM     10  N   LIG    1       26.356 -32.148   6.134  0.00  0.00    -0.232 NA
ENDROOT
BRANCH   5  11
ATOM     11  C   LIG    1       25.901 -28.903  10.728  0.00  0.00    +0.142 A 
ATOM     12  N   LIG    1       24.946 -28.940  11.749  0.00  0.00    -0.327 N 
ATOM     13  C   LIG    1       23.845 -29.860  11.912  0.00  0.00    +0.151 C 
ATOM     14  C   LIG    1       25.212 -27.933  12.654  0.00  0.00    +0.069 A 
ATOM     15  C   LIG    1       26.384 -27.357  12.185  0.00  0.00    +0.090 A 
ATOM     16  C   LIG    1       26.974 -26.319  12.929  0.00  0.00    +0.030 A 
ATOM     17  C   LIG    1       26.345 -25.873  14.102  0.00  0.00    +0.002 A 
ATOM     18  C   LIG    1       25.147 -26.442  14.530  0.00  0.00    +0.002 A 
ATOM     19  C   LIG    1       24.559 -27.489  13.818  0.00  0.00    +0.028 A 
ATOM     20  N   LIG    1       26.775 -27.941  11.000  0.00  0.00    -0.228 NA
ENDBRANCH   5  11
BRANCH   1  21
ATOM     21  C   LIG    1       25.896 -32.046   3.821  0.00  0.00    +0.074 C 
BRANCH  21  23
ATOM     22  C   LIG    1       26.949 -33.566   2.009  0.00  0.00    +0.004 C 
ATOM     23  C   LIG    1       26.681 -33.286   3.476  0.00  0.00    +0.004 C 
ENDBRANCH  21  23
ENDBRANCH   1  21
BRANCH   2  24
ATOM     24  C   LIG    1       24.658 -29.050   5.086  0.00  0.00    +0.158 C 
BRANCH  24  25
ATOM     25  C   LIG    1       25.028 -27.599   5.433  0.00  0.00    -0.028 A 
ATOM     26  C   LIG    1       26.309 -27.020   5.607  0.00  0.00    +0.006 A 
ATOM     27  C   LIG    1       26.500 -25.657   6.080  0.00  0.00    +0.009 A 
ATOM     28  C   LIG    1       25.421 -24.867   6.524  0.00  0.00    -0.017 A 
ATOM     29  C   LIG    1       24.209 -25.556   6.487  0.00  0.00    +0.009 A 
ATOM     30  C   LIG    1       23.987 -26.797   5.867  0.00  0.00    +0.006 A 
BRANCH  28  31
ATOM     31  C   LIG    1       25.423 -23.422   7.019  0.00  0.00    -0.004 A 
ATOM     32  C   LIG    1       24.285 -22.543   6.960  0.00  0.00    +0.067 A 
ATOM     33  C   LIG    1       24.346 -21.211   7.448  0.00  0.00    +0.015 A 
ATOM     34  C   LIG    1       25.511 -20.676   7.973  0.00  0.00    +0.001 A 
ATOM     35  C   LIG    1       26.617 -21.502   8.095  0.00  0.00    +0.001 A 
ATOM     36  C   LIG    1       26.578 -22.844   7.636  0.00  0.00    +0.009 A 
BRANCH  32  37
ATOM     37  C   LIG    1       22.884 -22.918   6.446  0.00  0.00    +0.337 C 
ATOM     38  O   LIG    1       22.117 -23.710   6.896  0.00  0.00    -0.245 OA
BRANCH  37  39
ATOM     39  O   LIG    1       22.500 -22.094   5.410  0.00  0.00    -0.477 OA
ATOM     40  H   LIG    1       21.597 -21.785   5.414  0.00  0.00    +0.295 HD
ENDBRANCH  37  39
ENDBRANCH  32  37
ENDBRANCH  28  31
ENDBRANCH  24  25
ENDBRANCH   2  24
TORSDOF 8
ENDMDL
MODEL 2
REMARK VINA RESULT:      -9.6      1.138      1.692
REMARK  Name = *****
REMARK                            x       y       z     vdW  Elec       q    Type
REMARK                         _______ _______ _______ _____ _____    ______ ____
ROOT
ATOM      1  C   LIG    1       24.968 -31.751   5.652  0.00  0.00    +0.111 A 
ATOM      2  N   LIG    1       25.211 -30.452   6.117  0.00  0.00    -0.323 N 
ATOM      3  C   LIG    1       25.038 -30.502   7.542  0.00  0.00    +0.070 A 
ATOM      4  C   LIG    1       25.195 -29.608   8.649  0.00  0.00    +0.039 A 
ATOM      5  C   LIG    1       24.932 -30.075   9.979  0.00  0.00    +0.020 A 
ATOM      6  C   LIG    1       24.502 -31.399  10.146  0.00  0.00    +0.017 A 
ATOM      7  C   LIG    1       24.281 -32.266   9.071  0.00  0.00    -0.022 A 
ATOM      8  C   LIG    1       23.692 -33.627   9.322  0.00  0.00    +0.046 C 
ATOM      9  C   LIG    1       24.599 -31.798   7.785  0.00  0.00    +0.092 A 
ATOM     10  N   LIG    1       24.546 -32.511   6.645  0.00  0.00    -0.232 NA
ENDROOT
BRANCH   5  11
ATOM     11  C   LIG    1       25.146 -29.200  11.175  0.00  0.00    +0.142 A 
ATOM     12  N   LIG    1       26.368 -28.769  11.701  0.00  0.00    -0.327 N 
ATOM     13  C   LIG    1       27.698 -29.029  11.204  0.00  0.00    +0.151 C 
ATOM     14  C   LIG    1       26.130 -27.997  12.820  0.00  0.00    +0.069 A 
ATOM     15  C   LIG    1       24.748 -27.921  12.892  0.00  0.00    +0.090 A 
ATOM     16  C   LIG    1       24.164 -27.137  13.904  0.00  0.00    +0.030 A 
ATOM     17  C   LIG    1       24.993 -26.484  14.830  0.00  0.00    +0.002 A 
ATOM     18  C   LIG    1       26.378 -26.609  14.759  0.00  0.00    +0.002 A 
ATOM     19  C   LIG    1       26.976 -27.363  13.747  0.00  0.00    +0.028 A 
ATOM     20  N   LIG    1       24.163 -28.679  11.901  0.00  0.00    -0.228 NA
ENDBRANCH   5  11
BRANCH   1  21
ATOM     21  C   LIG    1       24.916 -32.435   4.315  0.00  0.00    +0.074 C 
BRANCH  21  23
ATOM     22  C   LIG    1       26.498 -32.920   2.322  0.00  0.00    +0.004 C 
ATOM     23  C   LIG    1       26.025 -33.267   3.722  0.00  0.00    +0.004 C 
ENDBRANCH  21  23
ENDBRANCH   1  21
BRANCH   2  24
ATOM     24  C   LIG    1       25.702 -29.233   5.422  0.00  0.00    +0.158 C 
BRANCH  24  25
ATOM     25  C   LIG    1       25.363 -27.810   5.898  0.00  0.00    -0.028 A 
ATOM     26  C   LIG    1       24.184 -27.055   5.687  0.00  0.00    +0.006 A 
ATOM     27  C   LIG    1       24.064 -25.657   6.077  0.00  0.00    +0.009 A 
ATOM     28  C   LIG    1       25.163 -24.926   6.570  0.00  0.00    -0.017 A 
ATOM     29  C   LIG    1       26.335 -25.682   6.591  0.00  0.00    +0.009 A 
ATOM     30  C   LIG    1       26.423 -27.070   6.393  0.00  0.00    +0.006 A 
BRANCH  28  31
ATOM     31  C   LIG    1       25.220 -23.479   7.053  0.00  0.00    -0.004 A 
ATOM     32  C   LIG    1       24.120 -22.554   6.974  0.00  0.00    +0.067 A 
ATOM     33  C   LIG    1       24.231 -21.222   7.452  0.00  0.00    +0.015 A 
ATOM     34  C   LIG    1       25.411 -20.731   7.986  0.00  0.00    +0.001 A 
ATOM     35  C   LIG    1       26.481 -21.600   8.127  0.00  0.00    +0.001 A 
ATOM     36  C   LIG    1       26.392 -22.944   7.679  0.00  0.00    +0.009 A 
BRANCH  32  37
ATOM     37  C   LIG    1       22.710 -22.875   6.447  0.00  0.00    +0.337 C 
ATOM     38  O   LIG    1       21.934 -23.681   6.854  0.00  0.00    -0.245 OA
BRANCH  37  39
ATOM     39  O   LIG    1       22.335 -21.985   5.466  0.00  0.00    -0.477 OA
ATOM     40  H   LIG    1       22.492 -22.246   4.561  0.00  0.00    +0.295 HD
ENDBRANCH  37  39
ENDBRANCH  32  37
ENDBRANCH  28  31
ENDBRANCH  24  25
ENDBRANCH   2  24
TORSDOF 8
ENDMDL
MODEL 3
REMARK VINA RESULT:      -8.6      1.646      2.407
REMARK  Name = *****
REMARK                            x       y       z     vdW  Elec       q    Type
REMARK                         _______ _______ _______ _____ _____    ______ ____
ROOT
ATOM      1  C   LIG    1       25.482 -31.089   5.647  0.00  0.00    +0.111 A 
ATOM      2  N   LIG    1       25.689 -29.838   6.243  0.00  0.00    -0.323 N 
ATOM      3  C   LIG    1       25.489 -30.033   7.652  0.00  0.00    +0.070 A 
ATOM      4  C   LIG    1       25.605 -29.250   8.845  0.00  0.00    +0.039 A 
ATOM      5  C   LIG    1       25.325 -29.852  10.117  0.00  0.00    +0.020 A 
ATOM      6  C   LIG    1       24.919 -31.194  10.143  0.00  0.00    +0.017 A 
ATOM      7  C   LIG    1       24.739 -31.954   8.982  0.00  0.00    -0.022 A 
ATOM      8  C   LIG    1       24.174 -33.344   9.084  0.00  0.00    +0.046 C 
ATOM      9  C   LIG    1       25.072 -31.355   7.756  0.00  0.00    +0.092 A 
ATOM     10  N   LIG    1       25.057 -31.952   6.550  0.00  0.00    -0.232 NA
ENDROOT
BRANCH   5  11
ATOM     11  C   LIG    1       25.496 -29.096  11.398  0.00  0.00    +0.142 A 
ATOM     12  N   LIG    1       26.696 -28.806  12.056  0.00  0.00    -0.327 N 
ATOM     13  C   LIG    1       28.043 -29.129  11.646  0.00  0.00    +0.151 C 
ATOM     14  C   LIG    1       26.419 -28.111  13.215  0.00  0.00    +0.069 A 
ATOM     15  C   LIG    1       25.044 -27.933  13.182  0.00  0.00    +0.090 A 
ATOM     16  C   LIG    1       24.432 -27.190  14.209  0.00  0.00    +0.030 A 
ATOM     17  C   LIG    1       25.222 -26.681  15.252  0.00  0.00    +0.002 A 
ATOM     18  C   LIG    1       26.596 -26.909  15.281  0.00  0.00    +0.002 A 
ATOM     19  C   LIG    1       27.224 -27.623  14.259  0.00  0.00    +0.028 A 
ATOM     20  N   LIG    1       24.495 -28.560  12.085  0.00  0.00    -0.228 NA
ENDBRANCH   5  11
BRANCH   1  21
ATOM     21  C   LIG    1       25.471 -31.638   4.248  0.00  0.00    +0.074 C 
BRANCH  21  23
ATOM     22  C   LIG    1       26.412 -32.972   2.238  0.00  0.00    +0.004 C 
ATOM     23  C   LIG    1       26.383 -32.724   3.734  0.00  0.00    +0.004 C 
ENDBRANCH  21  23
ENDBRANCH   1  21
BRANCH   2  24
ATOM     24  C   LIG    1       26.168 -28.547   5.684  0.00  0.00    +0.158 C 
BRANCH  24  25
ATOM     25  C   LIG    1       25.495 -27.201   6.002  0.00  0.00    -0.028 A 
ATOM     26  C   LIG    1       24.123 -26.913   6.200  0.00  0.00    +0.006 A 
ATOM     27  C   LIG    1       23.617 -25.556   6.351  0.00  0.00    +0.009 A 
ATOM     28  C   LIG    1       24.446 -24.430   6.175  0.00  0.00    -0.017 A 
ATOM     29  C   LIG    1       25.746 -24.781   5.813  0.00  0.00    +0.009 A 
ATOM     30  C   LIG    1       26.287 -26.077   5.843  0.00  0.00    +0.006 A 
BRANCH  28  31
ATOM     31  C   LIG    1       24.104 -22.949   6.322  0.00  0.00    -0.004 A 
ATOM     32  C   LIG    1       24.888 -22.007   7.077  0.00  0.00    +0.067 A 
ATOM     33  C   LIG    1       24.524 -20.638   7.167  0.00  0.00    +0.015 A 
ATOM     34  C   LIG    1       23.380 -20.143   6.564  0.00  0.00    +0.001 A 
ATOM     35  C   LIG    1       22.621 -21.003   5.787  0.00  0.00    +0.001 A 
ATOM     36  C   LIG    1       22.973 -22.372   5.660  0.00  0.00    +0.009 A 
BRANCH  32  37
ATOM     37  C   LIG    1       26.207 -22.315   7.808  0.00  0.00    +0.337 C 
ATOM     38  O   LIG    1       27.308 -22.368   7.357  0.00  0.00    -0.245 OA
BRANCH  37  39
ATOM     39  O   LIG    1       26.011 -22.400   9.169  0.00  0.00    -0.477 OA
ATOM     40  H   LIG    1       26.749 -22.169   9.728  0.00  0.00    +0.295 HD
ENDBRANCH  37  39
ENDBRANCH  32  37
ENDBRANCH  28  31
ENDBRANCH  24  25
ENDBRANCH   2  24
TORSDOF 8
ENDMDL
MODEL 4
REMARK VINA RESULT:      -8.4      1.847      2.702
REMARK  Name = *****
REMARK                            x       y       z     vdW  Elec       q    Type
REMARK                         _______ _______ _______ _____ _____    ______ ____
ROOT
ATOM      1  C   LIG    1       25.735 -31.163   7.276  0.00  0.00    +0.111 A 
ATOM      2  N   LIG    1       25.860 -29.781   7.474  0.00  0.00    -0.323 N 
ATOM      3  C   LIG    1       25.787 -29.578   8.894  0.00  0.00    +0.070 A 
ATOM      4  C   LIG    1       25.913 -28.479   9.804  0.00  0.00    +0.039 A 
ATOM      5  C   LIG    1       25.791 -28.710  11.214  0.00  0.00    +0.020 A 
ATOM      6  C   LIG    1       25.526 -30.014  11.654  0.00  0.00    +0.017 A 
ATOM      7  C   LIG    1       25.335 -31.087  10.777  0.00  0.00    -0.022 A 
ATOM      8  C   LIG    1       24.922 -32.427  11.319  0.00  0.00    +0.046 C 
ATOM      9  C   LIG    1       25.514 -30.842   9.405  0.00  0.00    +0.092 A 
ATOM     10  N   LIG    1       25.468 -31.759   8.422  0.00  0.00    -0.232 NA
ENDROOT
BRANCH   5  11
ATOM     11  C   LIG    1       25.982 -27.607  12.209  0.00  0.00    +0.142 A 
ATOM     12  N   LIG    1       25.027 -27.085  13.087  0.00  0.00    -0.327 N 
ATOM     13  C   LIG    1       23.656 -27.501  13.270  0.00  0.00    +0.151 C 
ATOM     14  C   LIG    1       25.599 -26.065  13.821  0.00  0.00    +0.069 A 
ATOM     15  C   LIG    1       26.923 -26.054  13.411  0.00  0.00    +0.090 A 
ATOM     16  C   LIG    1       27.815 -25.155  14.024  0.00  0.00    +0.030 A 
ATOM     17  C   LIG    1       27.334 -24.273  15.005  0.00  0.00    +0.002 A 
ATOM     18  C   LIG    1       25.990 -24.278  15.371  0.00  0.00    +0.002 A 
ATOM     19  C   LIG    1       25.095 -25.180  14.791  0.00  0.00    +0.028 A 
ATOM     20  N   LIG    1       27.134 -26.980  12.412  0.00  0.00    -0.228 NA
ENDBRANCH   5  11
BRANCH   1  21
ATOM     21  C   LIG    1       25.675 -32.090   6.093  0.00  0.00    +0.074 C 
BRANCH  21  23
ATOM     22  C   LIG    1       28.017 -33.180   6.277  0.00  0.00    +0.004 C 
ATOM     23  C   LIG    1       26.554 -33.298   5.892  0.00  0.00    +0.004 C 
ENDBRANCH  21  23
ENDBRANCH   1  21
BRANCH   2  24
ATOM     24  C   LIG    1       26.164 -28.673   6.531  0.00  0.00    +0.158 C 
BRANCH  24  25
ATOM     25  C   LIG    1       25.440 -27.318   6.580  0.00  0.00    -0.028 A 
ATOM     26  C   LIG    1       24.147 -26.978   6.114  0.00  0.00    +0.006 A 
ATOM     27  C   LIG    1       23.650 -25.609   6.097  0.00  0.00    +0.009 A 
ATOM     28  C   LIG    1       24.477 -24.515   6.420  0.00  0.00    -0.017 A 
ATOM     29  C   LIG    1       25.785 -24.905   6.703  0.00  0.00    +0.009 A 
ATOM     30  C   LIG    1       26.226 -26.224   6.900  0.00  0.00    +0.006 A 
BRANCH  28  31
ATOM     31  C   LIG    1       24.128 -23.029   6.487  0.00  0.00    -0.004 A 
ATOM     32  C   LIG    1       24.931 -22.037   7.151  0.00  0.00    +0.067 A 
ATOM     33  C   LIG    1       24.559 -20.668   7.169  0.00  0.00    +0.015 A 
ATOM     34  C   LIG    1       23.388 -20.219   6.582  0.00  0.00    +0.001 A 
ATOM     35  C   LIG    1       22.608 -21.131   5.889  0.00  0.00    +0.001 A 
ATOM     36  C   LIG    1       22.967 -22.503   5.834  0.00  0.00    +0.009 A 
BRANCH  32  37
ATOM     37  C   LIG    1       26.280 -22.290   7.848  0.00  0.00    +0.337 C 
ATOM     38  O   LIG    1       27.374 -22.255   7.379  0.00  0.00    -0.245 OA
BRANCH  37  39
ATOM     39  O   LIG    1       26.114 -22.441   9.207  0.00  0.00    -0.477 OA
ATOM     40  H   LIG    1       26.743 -22.996   9.661  0.00  0.00    +0.295 HD
ENDBRANCH  37  39
ENDBRANCH  32  37
ENDBRANCH  28  31
ENDBRANCH  24  25
ENDBRANCH   2  24
TORSDOF 8
ENDMDL
MODEL 5
REMARK VINA RESULT:      -8.2      1.520      2.322
REMARK  Name = *****
REMARK                            x       y       z     vdW  Elec       q    Type
REMARK                         _______ _______ _______ _____ _____    ______ ____
ROOT
ATOM      1  C   LIG    1       25.996 -31.027   6.088  0.00  0.00    +0.111 A 
ATOM      2  N   LIG    1       25.014 -30.092   6.443  0.00  0.00    -0.323 N 
ATOM      3  C   LIG    1       24.833 -30.229   7.861  0.00  0.00    +0.070 A 
ATOM      4  C   LIG    1       24.081 -29.576   8.889  0.00  0.00    +0.039 A 
ATOM      5  C   LIG    1       24.203 -30.021  10.247  0.00  0.00    +0.020 A 
ATOM      6  C   LIG    1       25.045 -31.109  10.518  0.00  0.00    +0.017 A 
ATOM      7  C   LIG    1       25.736 -31.800   9.517  0.00  0.00    -0.022 A 
ATOM      8  C   LIG    1       26.513 -33.038   9.869  0.00  0.00    +0.046 C 
ATOM      9  C   LIG    1       25.640 -31.307   8.205  0.00  0.00    +0.092 A 
ATOM     10  N   LIG    1       26.302 -31.775   7.130  0.00  0.00    -0.232 NA
ENDROOT
BRANCH   5  11
ATOM     11  C   LIG    1       23.490 -29.329  11.368  0.00  0.00    +0.142 A 
ATOM     12  N   LIG    1       24.049 -28.486  12.334  0.00  0.00    -0.327 N 
ATOM     13  C   LIG    1       25.422 -28.058  12.462  0.00  0.00    +0.151 C 
ATOM     14  C   LIG    1       23.057 -28.073  13.200  0.00  0.00    +0.069 A 
ATOM     15  C   LIG    1       21.898 -28.624  12.676  0.00  0.00    +0.090 A 
ATOM     16  C   LIG    1       20.670 -28.336  13.298  0.00  0.00    +0.030 A 
ATOM     17  C   LIG    1       20.655 -27.530  14.448  0.00  0.00    +0.002 A 
ATOM     18  C   LIG    1       21.839 -27.021  14.976  0.00  0.00    +0.002 A 
ATOM     19  C   LIG    1       23.065 -27.276  14.359  0.00  0.00    +0.028 A 
ATOM     20  N   LIG    1       22.182 -29.407  11.578  0.00  0.00    -0.228 NA
ENDBRANCH   5  11
BRANCH   1  21
ATOM     21  C   LIG    1       26.653 -31.482   4.814  0.00  0.00    +0.074 C 
BRANCH  21  23
ATOM     22  C   LIG    1       26.973 -33.260   2.959  0.00  0.00    +0.004 C 
ATOM     23  C   LIG    1       26.036 -32.419   3.806  0.00  0.00    +0.004 C 
ENDBRANCH  21  23
ENDBRANCH   1  21
BRANCH   2  24
ATOM     24  C   LIG    1       24.339 -29.025   5.659  0.00  0.00    +0.158 C 
BRANCH  24  25
ATOM     25  C   LIG    1       24.454 -27.533   6.013  0.00  0.00    -0.028 A 
ATOM     26  C   LIG    1       23.666 -26.445   5.565  0.00  0.00    +0.006 A 
ATOM     27  C   LIG    1       23.987 -25.059   5.875  0.00  0.00    +0.009 A 
ATOM     28  C   LIG    1       25.183 -24.703   6.531  0.00  0.00    -0.017 A 
ATOM     29  C   LIG    1       25.993 -25.807   6.791  0.00  0.00    +0.009 A 
ATOM     30  C   LIG    1       25.616 -27.154   6.663  0.00  0.00    +0.006 A 
BRANCH  28  31
ATOM     31  C   LIG    1       25.670 -23.321   6.963  0.00  0.00    -0.004 A 
ATOM     32  C   LIG    1       24.821 -22.167   7.096  0.00  0.00    +0.067 A 
ATOM     33  C   LIG    1       25.332 -20.911   7.514  0.00  0.00    +0.015 A 
ATOM     34  C   LIG    1       26.678 -20.719   7.781  0.00  0.00    +0.001 A 
ATOM     35  C   LIG    1       27.524 -21.814   7.714  0.00  0.00    +0.001 A 
ATOM     36  C   LIG    1       27.037 -23.088   7.321  0.00  0.00    +0.009 A 
BRANCH  32  37
ATOM     37  C   LIG    1       23.297 -22.141   6.880  0.00  0.00    +0.337 C 
ATOM     38  O   LIG    1       22.434 -22.339   7.676  0.00  0.00    -0.245 OA
BRANCH  37  39
ATOM     39  O   LIG    1       22.985 -21.698   5.614  0.00  0.00    -0.477 OA
ATOM     40  H   LIG    1       22.109 -21.897   5.290  0.00  0.00    +0.295 HD
ENDBRANCH  37  39
ENDBRANCH  32  37
ENDBRANCH  28  31
ENDBRANCH  24  25
ENDBRANCH   2  24
TORSDOF 8
ENDMDL
MODEL 6
REMARK VINA RESULT:      -7.7      4.437      7.817
REMARK  Name = *****
REMARK                            x       y       z     vdW  Elec       q    Type
REMARK                         _______ _______ _______ _____ _____    ______ ____
ROOT
ATOM      1  C   LIG    1       20.332 -30.530  12.479  0.00  0.00    +0.111 A 
ATOM      2  N   LIG    1       21.732 -30.551  12.538  0.00  0.00    -0.323 N 
ATOM      3  C   LIG    1       22.131 -29.230  12.935  0.00  0.00    +0.070 A 
ATOM      4  C   LIG    1       23.352 -28.558  13.263  0.00  0.00    +0.039 A 
ATOM      5  C   LIG    1       23.319 -27.178  13.650  0.00  0.00    +0.020 A 
ATOM      6  C   LIG    1       22.080 -26.522  13.670  0.00  0.00    +0.017 A 
ATOM      7  C   LIG    1       20.886 -27.145  13.290  0.00  0.00    -0.022 A 
ATOM      8  C   LIG    1       19.619 -26.338  13.209  0.00  0.00    +0.046 C 
ATOM      9  C   LIG    1       20.941 -28.511  12.968  0.00  0.00    +0.092 A 
ATOM     10  N   LIG    1       19.893 -29.301  12.673  0.00  0.00    -0.232 NA
ENDROOT
BRANCH   5  11
ATOM     11  C   LIG    1       24.558 -26.450  14.068  0.00  0.00    +0.142 A 
ATOM     12  N   LIG    1       25.878 -26.902  13.974  0.00  0.00    -0.327 N 
ATOM     13  C   LIG    1       26.361 -28.148  13.427  0.00  0.00    +0.151 C 
ATOM     14  C   LIG    1       26.723 -25.939  14.489  0.00  0.00    +0.069 A 
ATOM     15  C   LIG    1       25.881 -24.886  14.811  0.00  0.00    +0.090 A 
ATOM     16  C   LIG    1       26.443 -23.697  15.310  0.00  0.00    +0.030 A 
ATOM     17  C   LIG    1       27.831 -23.622  15.500  0.00  0.00    +0.002 A 
ATOM     18  C   LIG    1       28.652 -24.708  15.204  0.00  0.00    +0.002 A 
ATOM     19  C   LIG    1       28.115 -25.888  14.685  0.00  0.00    +0.028 A 
ATOM     20  N   LIG    1       24.565 -25.222  14.574  0.00  0.00    -0.228 NA
ENDBRANCH   5  11
BRANCH   1  21
ATOM     21  C   LIG    1       19.245 -31.498  12.103  0.00  0.00    +0.074 C 
BRANCH  21  23
ATOM     22  C   LIG    1       18.272 -31.059   9.744  0.00  0.00    +0.004 C 
ATOM     23  C   LIG    1       18.972 -31.999  10.707  0.00  0.00    +0.004 C 
ENDBRANCH  21  23
ENDBRANCH   1  21
BRANCH   2  24
ATOM     24  C   LIG    1       22.707 -31.664  12.400  0.00  0.00    +0.158 C 
BRANCH  24  25
ATOM     25  C   LIG    1       23.557 -31.874  11.137  0.00  0.00    -0.028 A 
ATOM     26  C   LIG    1       24.935 -31.619  10.934  0.00  0.00    +0.006 A 
ATOM     27  C   LIG    1       25.574 -31.731   9.631  0.00  0.00    +0.009 A 
ATOM     28  C   LIG    1       24.831 -31.972   8.458  0.00  0.00    -0.017 A 
ATOM     29  C   LIG    1       23.461 -32.043   8.704  0.00  0.00    +0.009 A 
ATOM     30  C   LIG    1       22.855 -32.119   9.969  0.00  0.00    +0.006 A 
BRANCH  28  31
ATOM     31  C   LIG    1       25.325 -32.151   7.023  0.00  0.00    -0.004 A 
ATOM     32  C   LIG    1       25.154 -31.175   5.980  0.00  0.00    +0.067 A 
ATOM     33  C   LIG    1       25.646 -31.395   4.667  0.00  0.00    +0.015 A 
ATOM     34  C   LIG    1       26.285 -32.571   4.311  0.00  0.00    +0.001 A 
ATOM     35  C   LIG    1       26.515 -33.519   5.296  0.00  0.00    +0.001 A 
ATOM     36  C   LIG    1       26.054 -33.316   6.623  0.00  0.00    +0.009 A 
BRANCH  32  37
ATOM     37  C   LIG    1       24.503 -29.789   6.141  0.00  0.00    +0.337 C 
ATOM     38  O   LIG    1       24.973 -28.801   6.611  0.00  0.00    -0.245 OA
BRANCH  37  39
ATOM     39  O   LIG    1       23.275 -29.745   5.520  0.00  0.00    -0.477 OA
ATOM     40  H   LIG    1       22.574 -30.265   5.909  0.00  0.00    +0.295 HD
ENDBRANCH  37  39
ENDBRANCH  32  37
ENDBRANCH  28  31
ENDBRANCH  24  25
ENDBRANCH   2  24
TORSDOF 8
ENDMDL
MODEL 7
REMARK VINA RESULT:      -7.7      3.067      7.400
REMARK  Name = *****
REMARK                            x       y       z     vdW  Elec       q    Type
REMARK                         _______ _______ _______ _____ _____    ______ ____
ROOT
ATOM      1  C   LIG    1       25.168 -31.020   7.326  0.00  0.00    +0.111 A 
ATOM      2  N   LIG    1       25.544 -29.974   8.179  0.00  0.00    -0.323 N 
ATOM      3  C   LIG    1       25.439 -28.771   7.401  0.00  0.00    +0.070 A 
ATOM      4  C   LIG    1       25.583 -27.364   7.622  0.00  0.00    +0.039 A 
ATOM      5  C   LIG    1       25.359 -26.451   6.539  0.00  0.00    +0.020 A 
ATOM      6  C   LIG    1       25.028 -26.977   5.283  0.00  0.00    +0.017 A 
ATOM      7  C   LIG    1       24.947 -28.352   5.034  0.00  0.00    -0.022 A 
ATOM      8  C   LIG    1       24.718 -28.841   3.630  0.00  0.00    +0.046 C 
ATOM      9  C   LIG    1       25.118 -29.219   6.125  0.00  0.00    +0.092 A 
ATOM     10  N   LIG    1       24.984 -30.558   6.104  0.00  0.00    -0.232 NA
ENDROOT
BRANCH   5  11
ATOM     11  C   LIG    1       25.430 -24.968   6.735  0.00  0.00    +0.142 A 
ATOM     12  N   LIG    1       24.361 -24.068   6.779  0.00  0.00    -0.327 N 
ATOM     13  C   LIG    1       22.948 -24.350   6.684  0.00  0.00    +0.151 C 
ATOM     14  C   LIG    1       24.853 -22.790   6.954  0.00  0.00    +0.069 A 
ATOM     15  C   LIG    1       26.221 -22.970   7.090  0.00  0.00    +0.090 A 
ATOM     16  C   LIG    1       27.030 -21.849   7.351  0.00  0.00    +0.030 A 
ATOM     17  C   LIG    1       26.436 -20.579   7.431  0.00  0.00    +0.002 A 
ATOM     18  C   LIG    1       25.064 -20.421   7.252  0.00  0.00    +0.002 A 
ATOM     19  C   LIG    1       24.242 -21.525   7.016  0.00  0.00    +0.028 A 
ATOM     20  N   LIG    1       26.559 -24.297   6.928  0.00  0.00    -0.228 NA
ENDBRANCH   5  11
BRANCH   1  21
ATOM     21  C   LIG    1       25.078 -32.518   7.417  0.00  0.00    +0.074 C 
BRANCH  21  23
ATOM     22  C   LIG    1       22.787 -33.088   8.481  0.00  0.00    +0.004 C 
ATOM     23  C   LIG    1       24.292 -33.279   8.455  0.00  0.00    +0.004 C 
ENDBRANCH  21  23
ENDBRANCH   1  21
BRANCH   2  24
ATOM     24  C   LIG    1       25.855 -29.951   9.633  0.00  0.00    +0.158 C 
BRANCH  24  25
ATOM     25  C   LIG    1       24.798 -29.636  10.705  0.00  0.00    -0.028 A 
ATOM     26  C   LIG    1       24.982 -29.252  12.055  0.00  0.00    +0.006 A 
ATOM     27  C   LIG    1       23.879 -29.128  12.996  0.00  0.00    +0.009 A 
ATOM     28  C   LIG    1       22.566 -29.514  12.657  0.00  0.00    -0.017 A 
ATOM     29  C   LIG    1       22.486 -30.044  11.370  0.00  0.00    +0.009 A 
ATOM     30  C   LIG    1       23.499 -29.999  10.397  0.00  0.00    +0.006 A 
BRANCH  28  31
ATOM     31  C   LIG    1       21.290 -29.429  13.492  0.00  0.00    -0.004 A 
ATOM     32  C   LIG    1       20.552 -28.215  13.722  0.00  0.00    +0.067 A 
ATOM     33  C   LIG    1       19.364 -28.202  14.499  0.00  0.00    +0.015 A 
ATOM     34  C   LIG    1       18.872 -29.346  15.105  0.00  0.00    +0.001 A 
ATOM     35  C   LIG    1       19.524 -30.546  14.870  0.00  0.00    +0.001 A 
ATOM     36  C   LIG    1       20.701 -30.594  14.079  0.00  0.00    +0.009 A 
BRANCH  32  37
ATOM     37  C   LIG    1       20.887 -26.832  13.135  0.00  0.00    +0.337 C 
ATOM     38  O   LIG    1       21.932 -26.260  13.137  0.00  0.00    -0.245 OA
BRANCH  37  39
ATOM     39  O   LIG    1       19.821 -26.324  12.427  0.00  0.00    -0.477 OA
ATOM     40  H   LIG    1       20.019 -25.877  11.607  0.00  0.00    +0.295 HD
ENDBRANCH  37  39
ENDBRANCH  32  37
ENDBRANCH  28  31
ENDBRANCH  24  25
ENDBRANCH   2  24
TORSDOF 8
ENDMDL
MODEL 8
REMARK VINA RESULT:      -7.5      3.825      7.706
REMARK  Name = *****
REMARK                            x       y       z     vdW  Elec       q    Type
REMARK                         _______ _______ _______ _____ _____    ______ ____
ROOT
ATOM      1  C   LIG    1       25.338 -31.958   9.108  0.00  0.00    +0.111 A 
ATOM      2  N   LIG    1       25.502 -30.674   9.644  0.00  0.00    -0.323 N 
ATOM      3  C   LIG    1       25.508 -29.776   8.523  0.00  0.00    +0.070 A 
ATOM      4  C   LIG    1       25.554 -28.360   8.314  0.00  0.00    +0.039 A 
ATOM      5  C   LIG    1       25.513 -27.840   6.979  0.00  0.00    +0.020 A 
ATOM      6  C   LIG    1       25.454 -28.748   5.912  0.00  0.00    +0.017 A 
ATOM      7  C   LIG    1       25.474 -30.135   6.095  0.00  0.00    -0.022 A 
ATOM      8  C   LIG    1       25.544 -31.042   4.898  0.00  0.00    +0.046 C 
ATOM      9  C   LIG    1       25.460 -30.615   7.415  0.00  0.00    +0.092 A 
ATOM     10  N   LIG    1       25.381 -31.904   7.791  0.00  0.00    -0.232 NA
ENDROOT
BRANCH   5  11
ATOM     11  C   LIG    1       25.490 -26.367   6.711  0.00  0.00    +0.142 A 
ATOM     12  N   LIG    1       24.836 -25.706   5.666  0.00  0.00    -0.327 N 
ATOM     13  C   LIG    1       24.007 -26.273   4.628  0.00  0.00    +0.151 C 
ATOM     14  C   LIG    1       25.083 -24.352   5.763  0.00  0.00    +0.069 A 
ATOM     15  C   LIG    1       25.826 -24.226   6.927  0.00  0.00    +0.090 A 
ATOM     16  C   LIG    1       26.196 -22.939   7.359  0.00  0.00    +0.030 A 
ATOM     17  C   LIG    1       25.833 -21.825   6.585  0.00  0.00    +0.002 A 
ATOM     18  C   LIG    1       25.119 -21.983   5.399  0.00  0.00    +0.002 A 
ATOM     19  C   LIG    1       24.723 -23.250   4.967  0.00  0.00    +0.028 A 
ATOM     20  N   LIG    1       26.088 -25.462   7.476  0.00  0.00    -0.228 NA
ENDBRANCH   5  11
BRANCH   1  21
ATOM     21  C   LIG    1       25.287 -33.362   9.646  0.00  0.00    +0.074 C 
BRANCH  21  23
ATOM     22  C   LIG    1       23.254 -33.684  11.216  0.00  0.00    +0.004 C 
ATOM     23  C   LIG    1       24.754 -33.753  11.001  0.00  0.00    +0.004 C 
ENDBRANCH  21  23
ENDBRANCH   1  21
BRANCH   2  24
ATOM     24  C   LIG    1       25.520 -30.186  11.048  0.00  0.00    +0.158 C 
BRANCH  24  25
ATOM     25  C   LIG    1       24.365 -29.381  11.664  0.00  0.00    -0.028 A 
ATOM     26  C   LIG    1       24.407 -28.379  12.663  0.00  0.00    +0.006 A 
ATOM     27  C   LIG    1       23.208 -27.803  13.254  0.00  0.00    +0.009 A 
ATOM     28  C   LIG    1       21.923 -28.305  12.965  0.00  0.00    -0.017 A 
ATOM     29  C   LIG    1       21.965 -29.403  12.106  0.00  0.00    +0.009 A 
ATOM     30  C   LIG    1       23.090 -29.847  11.392  0.00  0.00    +0.006 A 
BRANCH  28  31
ATOM     31  C   LIG    1       20.563 -27.816  13.458  0.00  0.00    -0.004 A 
ATOM     32  C   LIG    1       19.678 -28.586  14.290  0.00  0.00    +0.067 A 
ATOM     33  C   LIG    1       18.429 -28.072  14.727  0.00  0.00    +0.015 A 
ATOM     34  C   LIG    1       17.981 -26.817  14.347  0.00  0.00    +0.001 A 
ATOM     35  C   LIG    1       18.821 -26.021  13.586  0.00  0.00    +0.001 A 
ATOM     36  C   LIG    1       20.085 -26.501  13.154  0.00  0.00    +0.009 A 
BRANCH  32  37
ATOM     37  C   LIG    1       19.967 -29.988  14.858  0.00  0.00    +0.337 C 
ATOM     38  O   LIG    1       20.911 -30.351  15.487  0.00  0.00    -0.245 OA
BRANCH  37  39
ATOM     39  O   LIG    1       18.889 -30.826  14.680  0.00  0.00    -0.477 OA
ATOM     40  H   LIG    1       18.021 -30.432  14.730  0.00  0.00    +0.295 HD
ENDBRANCH  37  39
ENDBRANCH  32  37
ENDBRANCH  28  31
ENDBRANCH  24  25
ENDBRANCH   2  24
TORSDOF 8
ENDMDL
