MODEL 1
REMARK VINA RESULT:      -6.0      0.000      0.000
REMARK  Name = *****
REMARK                            x       y       z     vdW  Elec       q    Type
REMARK                         _______ _______ _______ _____ _____    ______ ____
ROOT
ATOM      1  N   LIG    1       24.001 -16.770   4.056  0.00  0.00    -0.310 NA
ATOM      2  H   LIG    1       24.463 -16.457   3.199  0.00  0.00    +0.122 HD
ENDROOT
BRANCH   1   4
ATOM      3  C   LIG    1       21.963 -18.007   4.793  0.00  0.00    +0.024 C 
ATOM      4  C   LIG    1       23.049 -17.848   3.709  0.00  0.00    +0.055 C 
BRANCH   4   5
ATOM      5  C   LIG    1       23.690 -19.224   3.365  0.00  0.00    +0.053 C 
BRANCH   5   6
ATOM      6  C   LIG    1       24.678 -19.860   4.329  0.00  0.00    -0.042 A 
ATOM      7  C   LIG    1       26.039 -19.517   4.225  0.00  0.00    +0.053 A 
ATOM      8  C   LIG    1       26.923 -19.963   5.183  0.00  0.00    +0.167 A 
ATOM      9  O   LIG    1       28.250 -19.675   5.245  0.00  0.00    -0.453 OA
ATOM     10  C   LIG    1       28.635 -20.398   6.435  0.00  0.00    +0.466 C 
ATOM     11  O   LIG    1       27.535 -21.089   7.062  0.00  0.00    -0.453 OA
ATOM     12  C   LIG    1       26.510 -20.763   6.226  0.00  0.00    +0.166 A 
ATOM     13  C   LIG    1       25.199 -21.137   6.361  0.00  0.00    +0.050 A 
ATOM     14  C   LIG    1       24.270 -20.671   5.419  0.00  0.00    +0.007 A 
ENDBRANCH   5   6
ENDBRANCH   4   5
ENDBRANCH   1   4
BRANCH   1  15
ATOM     15  C   LIG    1       23.369 -15.609   4.711  0.00  0.00    +0.117 C 
BRANCH  15  16
ATOM     16  C   LIG    1       23.738 -14.210   4.163  0.00  0.00    +0.158 C 
BRANCH  16  17
ATOM     17  C   LIG    1       25.227 -14.017   3.943  0.00  0.00    -0.014 A 
ATOM     18  C   LIG    1       26.016 -13.568   5.011  0.00  0.00    +0.055 A 
ATOM     19  C   LIG    1       27.365 -13.323   4.815  0.00  0.00    +0.159 A 
ATOM     20  C   LIG    1       27.961 -13.550   3.578  0.00  0.00    +0.158 A 
ATOM     21  C   LIG    1       27.209 -14.031   2.515  0.00  0.00    +0.049 A 
ATOM     22  C   LIG    1       25.842 -14.267   2.700  0.00  0.00    +0.010 A 
BRANCH  19  23
ATOM     23  O   LIG    1       28.103 -12.828   5.851  0.00  0.00    -0.503 OA
ATOM     24  H   LIG    1       28.909 -12.472   5.428  0.00  0.00    +0.292 HD
ENDBRANCH  19  23
BRANCH  20  25
ATOM     25  O   LIG    1       29.296 -13.278   3.458  0.00  0.00    -0.503 OA
ATOM     26  H   LIG    1       29.638 -13.045   4.339  0.00  0.00    +0.292 HD
ENDBRANCH  20  25
ENDBRANCH  16  17
BRANCH  16  27
ATOM     27  O   LIG    1       23.038 -14.023   2.923  0.00  0.00    -0.386 OA
ATOM     28  H   LIG    1       23.149 -13.091   2.672  0.00  0.00    +0.210 HD
ENDBRANCH  16  27
ENDBRANCH  15  16
ENDBRANCH   1  15
TORSDOF 9
ENDMDL
MODEL 2
REMARK VINA RESULT:      -5.5      1.597      6.754
REMARK  Name = *****
REMARK                            x       y       z     vdW  Elec       q    Type
REMARK                         _______ _______ _______ _____ _____    ______ ____
ROOT
ATOM      1  N   LIG    1       22.834 -17.258   4.010  0.00  0.00    -0.310 NA
ATOM      2  H   LIG    1       23.747 -17.583   3.685  0.00  0.00    +0.122 HD
ENDROOT
BRANCH   1   4
ATOM      3  C   LIG    1       21.942 -15.867   5.881  0.00  0.00    +0.024 C 
ATOM      4  C   LIG    1       23.029 -16.020   4.797  0.00  0.00    +0.055 C 
BRANCH   4   5
ATOM      5  C   LIG    1       23.167 -14.711   3.967  0.00  0.00    +0.053 C 
BRANCH   5   6
ATOM      6  C   LIG    1       24.540 -14.100   3.740  0.00  0.00    -0.042 A 
ATOM      7  C   LIG    1       25.309 -13.734   4.860  0.00  0.00    +0.053 A 
ATOM      8  C   LIG    1       26.612 -13.323   4.679  0.00  0.00    +0.167 A 
ATOM      9  O   LIG    1       27.491 -12.989   5.661  0.00  0.00    -0.453 OA
ATOM     10  C   LIG    1       28.662 -12.658   4.883  0.00  0.00    +0.466 C 
ATOM     11  O   LIG    1       28.465 -12.814   3.462  0.00  0.00    -0.453 OA
ATOM     12  C   LIG    1       27.170 -13.234   3.422  0.00  0.00    +0.166 A 
ATOM     13  C   LIG    1       26.455 -13.563   2.301  0.00  0.00    +0.050 A 
ATOM     14  C   LIG    1       25.137 -14.016   2.456  0.00  0.00    +0.007 A 
ENDBRANCH   5   6
ENDBRANCH   4   5
ENDBRANCH   1   4
BRANCH   1  15
ATOM     15  C   LIG    1       22.179 -18.343   4.764  0.00  0.00    +0.117 C 
BRANCH  15  16
ATOM     16  C   LIG    1       22.638 -19.787   4.452  0.00  0.00    +0.158 C 
BRANCH  16  17
ATOM     17  C   LIG    1       23.897 -20.197   5.192  0.00  0.00    -0.014 A 
ATOM     18  C   LIG    1       25.143 -19.864   4.644  0.00  0.00    +0.055 A 
ATOM     19  C   LIG    1       26.305 -20.286   5.269  0.00  0.00    +0.159 A 
ATOM     20  C   LIG    1       26.257 -21.008   6.458  0.00  0.00    +0.158 A 
ATOM     21  C   LIG    1       25.036 -21.317   7.041  0.00  0.00    +0.049 A 
ATOM     22  C   LIG    1       23.856 -20.908   6.409  0.00  0.00    +0.010 A 
BRANCH  19  23
ATOM     23  O   LIG    1       27.507 -20.004   4.686  0.00  0.00    -0.503 OA
ATOM     24  H   LIG    1       27.833 -19.219   5.168  0.00  0.00    +0.292 HD
ENDBRANCH  19  23
BRANCH  20  25
ATOM     25  O   LIG    1       27.446 -21.396   7.013  0.00  0.00    -0.503 OA
ATOM     26  H   LIG    1       27.723 -22.225   6.586  0.00  0.00    +0.292 HD
ENDBRANCH  20  25
ENDBRANCH  16  17
BRANCH  16  27
ATOM     27  O   LIG    1       21.563 -20.676   4.797  0.00  0.00    -0.386 OA
ATOM     28  H   LIG    1       21.964 -21.535   5.013  0.00  0.00    +0.210 HD
ENDBRANCH  16  27
ENDBRANCH  15  16
ENDBRANCH   1  15
TORSDOF 9
ENDMDL
MODEL 3
REMARK VINA RESULT:      -5.0      2.610      4.226
REMARK  Name = *****
REMARK                            x       y       z     vdW  Elec       q    Type
REMARK                         _______ _______ _______ _____ _____    ______ ____
ROOT
ATOM      1  N   LIG    1       28.803 -18.204   4.436  0.00  0.00    -0.310 NA
ATOM      2  H   LIG    1       28.511 -18.921   3.768  0.00  0.00    +0.122 HD
ENDROOT
BRANCH   1   4
ATOM      3  C   LIG    1       29.474 -18.321   6.838  0.00  0.00    +0.024 C 
ATOM      4  C   LIG    1       28.381 -18.623   5.791  0.00  0.00    +0.055 C 
BRANCH   4   5
ATOM      5  C   LIG    1       27.892 -20.095   5.915  0.00  0.00    +0.053 C 
BRANCH   5   6
ATOM      6  C   LIG    1       26.405 -20.391   6.036  0.00  0.00    -0.042 A 
ATOM      7  C   LIG    1       25.544 -19.945   5.017  0.00  0.00    +0.053 A 
ATOM      8  C   LIG    1       24.222 -20.334   5.032  0.00  0.00    +0.167 A 
ATOM      9  O   LIG    1       23.285 -20.028   4.095  0.00  0.00    -0.453 OA
ATOM     10  C   LIG    1       22.126 -20.700   4.633  0.00  0.00    +0.466 C 
ATOM     11  O   LIG    1       22.394 -21.400   5.865  0.00  0.00    -0.453 OA
ATOM     12  C   LIG    1       23.717 -21.127   6.039  0.00  0.00    +0.166 A 
ATOM     13  C   LIG    1       24.513 -21.572   7.061  0.00  0.00    +0.050 A 
ATOM     14  C   LIG    1       25.870 -21.218   7.056  0.00  0.00    +0.007 A 
ENDBRANCH   5   6
ENDBRANCH   4   5
ENDBRANCH   1   4
BRANCH   1  15
ATOM     15  C   LIG    1       28.245 -16.903   4.018  0.00  0.00    +0.117 C 
BRANCH  15  16
ATOM     16  C   LIG    1       26.705 -16.808   3.904  0.00  0.00    +0.158 C 
BRANCH  16  17
ATOM     17  C   LIG    1       26.209 -15.428   3.517  0.00  0.00    -0.014 A 
ATOM     18  C   LIG    1       24.853 -15.123   3.694  0.00  0.00    +0.055 A 
ATOM     19  C   LIG    1       24.365 -13.891   3.286  0.00  0.00    +0.159 A 
ATOM     20  C   LIG    1       25.211 -12.934   2.733  0.00  0.00    +0.158 A 
ATOM     21  C   LIG    1       26.565 -13.198   2.583  0.00  0.00    +0.049 A 
ATOM     22  C   LIG    1       27.064 -14.445   2.978  0.00  0.00    +0.010 A 
BRANCH  19  23
ATOM     23  O   LIG    1       23.030 -13.636   3.411  0.00  0.00    -0.503 OA
ATOM     24  H   LIG    1       22.773 -13.256   2.548  0.00  0.00    +0.292 HD
ENDBRANCH  19  23
BRANCH  20  25
ATOM     25  O   LIG    1       24.656 -11.745   2.348  0.00  0.00    -0.503 OA
ATOM     26  H   LIG    1       25.331 -11.239   1.863  0.00  0.00    +0.292 HD
ENDBRANCH  20  25
ENDBRANCH  16  17
BRANCH  16  27
ATOM     27  O   LIG    1       26.275 -17.769   2.927  0.00  0.00    -0.386 OA
ATOM     28  H   LIG    1       25.401 -17.480   2.612  0.00  0.00    +0.210 HD
ENDBRANCH  16  27
ENDBRANCH  15  16
ENDBRANCH   1  15
TORSDOF 9
ENDMDL
MODEL 4
REMARK VINA RESULT:      -4.3      1.830      6.287
REMARK  Name = *****
REMARK                            x       y       z     vdW  Elec       q    Type
REMARK                         _______ _______ _______ _____ _____    ______ ____
ROOT
ATOM      1  N   LIG    1       22.317 -20.108   4.521  0.00  0.00    -0.310 NA
ATOM      2  H   LIG    1       21.532 -20.515   4.009  0.00  0.00    +0.122 HD
ENDROOT
BRANCH   1   4
ATOM      3  C   LIG    1       24.036 -18.966   3.116  0.00  0.00    +0.024 C 
ATOM      4  C   LIG    1       22.695 -18.835   3.867  0.00  0.00    +0.055 C 
BRANCH   4   5
ATOM      5  C   LIG    1       22.702 -17.583   4.791  0.00  0.00    +0.053 C 
BRANCH   5   6
ATOM      6  C   LIG    1       23.508 -16.356   4.397  0.00  0.00    -0.042 A 
ATOM      7  C   LIG    1       24.826 -16.535   3.936  0.00  0.00    +0.053 A 
ATOM      8  C   LIG    1       25.517 -15.455   3.431  0.00  0.00    +0.167 A 
ATOM      9  O   LIG    1       26.770 -15.479   2.905  0.00  0.00    -0.453 OA
ATOM     10  C   LIG    1       26.949 -14.091   2.549  0.00  0.00    +0.466 C 
ATOM     11  O   LIG    1       25.800 -13.273   2.855  0.00  0.00    -0.453 OA
ATOM     12  C   LIG    1       24.957 -14.196   3.393  0.00  0.00    +0.166 A 
ATOM     13  C   LIG    1       23.684 -13.970   3.845  0.00  0.00    +0.050 A 
ATOM     14  C   LIG    1       22.944 -15.057   4.335  0.00  0.00    +0.007 A 
ENDBRANCH   5   6
ENDBRANCH   4   5
ENDBRANCH   1   4
BRANCH   1  15
ATOM     15  C   LIG    1       23.414 -21.093   4.578  0.00  0.00    +0.117 C 
BRANCH  15  16
ATOM     16  C   LIG    1       24.023 -21.380   5.971  0.00  0.00    +0.158 C 
BRANCH  16  17
ATOM     17  C   LIG    1       25.472 -20.951   6.102  0.00  0.00    -0.014 A 
ATOM     18  C   LIG    1       25.943 -19.905   5.295  0.00  0.00    +0.055 A 
ATOM     19  C   LIG    1       27.279 -19.542   5.350  0.00  0.00    +0.159 A 
ATOM     20  C   LIG    1       28.158 -20.175   6.224  0.00  0.00    +0.158 A 
ATOM     21  C   LIG    1       27.707 -21.186   7.061  0.00  0.00    +0.049 A 
ATOM     22  C   LIG    1       26.362 -21.572   7.000  0.00  0.00    +0.010 A 
BRANCH  19  23
ATOM     23  O   LIG    1       27.731 -18.563   4.513  0.00  0.00    -0.503 OA
ATOM     24  H   LIG    1       28.528 -18.213   4.956  0.00  0.00    +0.292 HD
ENDBRANCH  19  23
BRANCH  20  25
ATOM     25  O   LIG    1       29.462 -19.766   6.217  0.00  0.00    -0.503 OA
ATOM     26  H   LIG    1       29.972 -20.370   6.784  0.00  0.00    +0.292 HD
ENDBRANCH  20  25
ENDBRANCH  16  17
BRANCH  16  27
ATOM     27  O   LIG    1       23.226 -20.695   6.951  0.00  0.00    -0.386 OA
ATOM     28  H   LIG    1       22.402 -20.427   6.509  0.00  0.00    +0.210 HD
ENDBRANCH  16  27
ENDBRANCH  15  16
ENDBRANCH   1  15
TORSDOF 9
ENDMDL
MODEL 5
REMARK VINA RESULT:      -4.2      1.569      1.957
REMARK  Name = *****
REMARK                            x       y       z     vdW  Elec       q    Type
REMARK                         _______ _______ _______ _____ _____    ______ ____
ROOT
ATOM      1  N   LIG    1       21.943 -17.496   4.717  0.00  0.00    -0.310 NA
ATOM      2  H   LIG    1       22.333 -17.660   5.647  0.00  0.00    +0.122 HD
ENDROOT
BRANCH   1   4
ATOM      3  C   LIG    1       20.390 -18.896   3.354  0.00  0.00    +0.024 C 
ATOM      4  C   LIG    1       21.766 -18.802   4.044  0.00  0.00    +0.055 C 
BRANCH   4   5
ATOM      5  C   LIG    1       22.025 -20.054   4.930  0.00  0.00    +0.053 C 
BRANCH   5   6
ATOM      6  C   LIG    1       23.436 -20.375   5.394  0.00  0.00    -0.042 A 
ATOM      7  C   LIG    1       24.521 -19.838   4.676  0.00  0.00    +0.053 A 
ATOM      8  C   LIG    1       25.799 -19.990   5.168  0.00  0.00    +0.167 A 
ATOM      9  O   LIG    1       26.936 -19.487   4.618  0.00  0.00    -0.453 OA
ATOM     10  C   LIG    1       27.929 -19.955   5.556  0.00  0.00    +0.466 C 
ATOM     11  O   LIG    1       27.367 -20.712   6.648  0.00  0.00    -0.453 OA
ATOM     12  C   LIG    1       26.042 -20.681   6.335  0.00  0.00    +0.166 A 
ATOM     13  C   LIG    1       25.021 -21.236   7.060  0.00  0.00    +0.050 A 
ATOM     14  C   LIG    1       23.706 -21.070   6.600  0.00  0.00    +0.007 A 
ENDBRANCH   5   6
ENDBRANCH   4   5
ENDBRANCH   1   4
BRANCH   1  15
ATOM     15  C   LIG    1       22.824 -16.566   3.985  0.00  0.00    +0.117 C 
BRANCH  15  16
ATOM     16  C   LIG    1       23.549 -15.486   4.822  0.00  0.00    +0.158 C 
BRANCH  16  17
ATOM     17  C   LIG    1       24.340 -14.498   3.985  0.00  0.00    -0.014 A 
ATOM     18  C   LIG    1       25.736 -14.615   3.940  0.00  0.00    +0.055 A 
ATOM     19  C   LIG    1       26.482 -13.684   3.236  0.00  0.00    +0.159 A 
ATOM     20  C   LIG    1       25.864 -12.650   2.538  0.00  0.00    +0.158 A 
ATOM     21  C   LIG    1       24.481 -12.536   2.536  0.00  0.00    +0.049 A 
ATOM     22  C   LIG    1       23.719 -13.463   3.258  0.00  0.00    +0.010 A 
BRANCH  19  23
ATOM     23  O   LIG    1       27.844 -13.780   3.255  0.00  0.00    -0.503 OA
ATOM     24  H   LIG    1       28.123 -13.448   2.379  0.00  0.00    +0.292 HD
ENDBRANCH  19  23
BRANCH  20  25
ATOM     25  O   LIG    1       26.667 -11.766   1.872  0.00  0.00    -0.503 OA
ATOM     26  H   LIG    1       26.119 -11.014   1.589  0.00  0.00    +0.292 HD
ENDBRANCH  20  25
ENDBRANCH  16  17
BRANCH  16  27
ATOM     27  O   LIG    1       22.559 -14.784   5.591  0.00  0.00    -0.386 OA
ATOM     28  H   LIG    1       21.799 -14.634   5.004  0.00  0.00    +0.210 HD
ENDBRANCH  16  27
ENDBRANCH  15  16
ENDBRANCH   1  15
TORSDOF 9
ENDMDL
MODEL 6
REMARK VINA RESULT:      -3.4      2.458      4.481
REMARK  Name = *****
REMARK                            x       y       z     vdW  Elec       q    Type
REMARK                         _______ _______ _______ _____ _____    ______ ____
ROOT
ATOM      1  N   LIG    1       26.810 -19.063   3.942  0.00  0.00    -0.310 NA
ATOM      2  H   LIG    1       26.388 -19.849   3.444  0.00  0.00    +0.122 HD
ENDROOT
BRANCH   1   4
ATOM      3  C   LIG    1       28.352 -19.719   5.792  0.00  0.00    +0.024 C 
ATOM      4  C   LIG    1       26.899 -19.410   5.378  0.00  0.00    +0.055 C 
BRANCH   4   5
ATOM      5  C   LIG    1       25.939 -20.538   5.856  0.00  0.00    +0.053 C 
BRANCH   5   6
ATOM      6  C   LIG    1       24.456 -20.458   5.532  0.00  0.00    -0.042 A 
ATOM      7  C   LIG    1       23.954 -19.275   4.957  0.00  0.00    +0.053 A 
ATOM      8  C   LIG    1       22.649 -19.239   4.517  0.00  0.00    +0.167 A 
ATOM      9  O   LIG    1       22.040 -18.193   3.898  0.00  0.00    -0.453 OA
ATOM     10  C   LIG    1       20.719 -18.734   3.676  0.00  0.00    +0.466 C 
ATOM     11  O   LIG    1       20.571 -20.087   4.152  0.00  0.00    -0.453 OA
ATOM     12  C   LIG    1       21.814 -20.327   4.653  0.00  0.00    +0.166 A 
ATOM     13  C   LIG    1       22.252 -21.493   5.221  0.00  0.00    +0.050 A 
ATOM     14  C   LIG    1       23.585 -21.571   5.650  0.00  0.00    +0.007 A 
ENDBRANCH   5   6
ENDBRANCH   4   5
ENDBRANCH   1   4
BRANCH   1  15
ATOM     15  C   LIG    1       26.020 -17.846   3.675  0.00  0.00    +0.117 C 
BRANCH  15  16
ATOM     16  C   LIG    1       26.809 -16.570   3.299  0.00  0.00    +0.158 C 
BRANCH  16  17
ATOM     17  C   LIG    1       25.962 -15.312   3.290  0.00  0.00    -0.014 A 
ATOM     18  C   LIG    1       26.456 -14.167   2.650  0.00  0.00    +0.055 A 
ATOM     19  C   LIG    1       25.728 -12.989   2.687  0.00  0.00    +0.159 A 
ATOM     20  C   LIG    1       24.490 -12.932   3.321  0.00  0.00    +0.158 A 
ATOM     21  C   LIG    1       23.962 -14.062   3.928  0.00  0.00    +0.049 A 
ATOM     22  C   LIG    1       24.697 -15.253   3.910  0.00  0.00    +0.010 A 
BRANCH  19  23
ATOM     23  O   LIG    1       26.255 -11.870   2.110  0.00  0.00    -0.503 OA
ATOM     24  H   LIG    1       27.218 -11.950   2.259  0.00  0.00    +0.292 HD
ENDBRANCH  19  23
BRANCH  20  25
ATOM     25  O   LIG    1       23.833 -11.732   3.322  0.00  0.00    -0.503 OA
ATOM     26  H   LIG    1       24.494 -11.025   3.226  0.00  0.00    +0.292 HD
ENDBRANCH  20  25
ENDBRANCH  16  17
BRANCH  16  27
ATOM     27  O   LIG    1       27.884 -16.422   4.240  0.00  0.00    -0.386 OA
ATOM     28  H   LIG    1       27.794 -15.539   4.636  0.00  0.00    +0.210 HD
ENDBRANCH  16  27
ENDBRANCH  15  16
ENDBRANCH   1  15
TORSDOF 9
ENDMDL
MODEL 7
REMARK VINA RESULT:      -3.0      2.574      7.862
REMARK  Name = *****
REMARK                            x       y       z     vdW  Elec       q    Type
REMARK                         _______ _______ _______ _____ _____    ______ ____
ROOT
ATOM      1  N   LIG    1       28.697 -18.475   4.971  0.00  0.00    -0.310 NA
ATOM      2  H   LIG    1       28.889 -18.394   5.972  0.00  0.00    +0.122 HD
ENDROOT
BRANCH   1   4
ATOM      3  C   LIG    1       28.541 -16.047   5.531  0.00  0.00    +0.024 C 
ATOM      4  C   LIG    1       28.379 -17.129   4.444  0.00  0.00    +0.055 C 
BRANCH   4   5
ATOM      5  C   LIG    1       26.999 -16.995   3.736  0.00  0.00    +0.053 C 
BRANCH   5   6
ATOM      6  C   LIG    1       26.481 -15.621   3.344  0.00  0.00    -0.042 A 
ATOM      7  C   LIG    1       25.158 -15.278   3.680  0.00  0.00    +0.053 A 
ATOM      8  C   LIG    1       24.720 -13.988   3.470  0.00  0.00    +0.167 A 
ATOM      9  O   LIG    1       23.494 -13.496   3.789  0.00  0.00    -0.453 OA
ATOM     10  C   LIG    1       23.623 -12.125   3.350  0.00  0.00    +0.466 C 
ATOM     11  O   LIG    1       24.921 -11.826   2.795  0.00  0.00    -0.453 OA
ATOM     12  C   LIG    1       25.541 -13.033   2.912  0.00  0.00    +0.166 A 
ATOM     13  C   LIG    1       26.830 -13.323   2.553  0.00  0.00    +0.050 A 
ATOM     14  C   LIG    1       27.314 -14.619   2.784  0.00  0.00    +0.007 A 
ENDBRANCH   5   6
ENDBRANCH   4   5
ENDBRANCH   1   4
BRANCH   1  15
ATOM     15  C   LIG    1       27.618 -19.461   4.768  0.00  0.00    +0.117 C 
BRANCH  15  16
ATOM     16  C   LIG    1       26.931 -20.015   6.039  0.00  0.00    +0.158 C 
BRANCH  16  17
ATOM     17  C   LIG    1       25.502 -20.468   5.807  0.00  0.00    -0.014 A 
ATOM     18  C   LIG    1       25.106 -20.821   4.510  0.00  0.00    +0.055 A 
ATOM     19  C   LIG    1       23.789 -21.174   4.264  0.00  0.00    +0.159 A 
ATOM     20  C   LIG    1       22.855 -21.221   5.296  0.00  0.00    +0.158 A 
ATOM     21  C   LIG    1       23.233 -20.913   6.596  0.00  0.00    +0.049 A 
ATOM     22  C   LIG    1       24.557 -20.540   6.851  0.00  0.00    +0.010 A 
BRANCH  19  23
ATOM     23  O   LIG    1       23.409 -21.455   2.984  0.00  0.00    -0.503 OA
ATOM     24  H   LIG    1       24.249 -21.615   2.510  0.00  0.00    +0.292 HD
ENDBRANCH  19  23
BRANCH  20  25
ATOM     25  O   LIG    1       21.573 -21.572   4.976  0.00  0.00    -0.503 OA
ATOM     26  H   LIG    1       20.968 -20.978   5.453  0.00  0.00    +0.292 HD
ENDBRANCH  20  25
ENDBRANCH  16  17
BRANCH  16  27
ATOM     27  O   LIG    1       27.716 -21.117   6.520  0.00  0.00    -0.386 OA
ATOM     28  H   LIG    1       27.963 -20.910   7.437  0.00  0.00    +0.210 HD
ENDBRANCH  16  27
ENDBRANCH  15  16
ENDBRANCH   1  15
TORSDOF 9
ENDMDL
