MODEL 1
REMARK VINA RESULT:      -8.2      0.000      0.000
REMARK  Name = *****
REMARK                            x       y       z     vdW  Elec       q    Type
REMARK                         _______ _______ _______ _____ _____    ______ ____
ROOT
ATOM      1  CA  LIG    1       24.249 -23.713   6.762  0.00  0.00    +0.191 C 
ATOM      2  C   LIG    1       24.693 -22.408   7.494  0.00  0.00    +0.169 C 
ATOM      3  N   LIG    1       24.710 -21.752   6.199  0.00  0.00    -0.249 N 
ATOM      4  CA  LIG    1       25.520 -20.699   5.824  0.00  0.00    +0.123 C 
ATOM      5  C   LIG    1       26.509 -20.234   6.639  0.00  0.00    -0.021 C 
ATOM      6  C   LIG    1       26.792 -20.806   8.012  0.00  0.00    +0.104 C 
ATOM      7  S   LIG    1       26.335 -22.524   8.240  0.00  0.00    -0.131 S 
ATOM      8  C   LIG    1       24.343 -22.850   5.480  0.00  0.00    +0.244 C 
ATOM      9  O   LIG    1       24.322 -23.103   4.289  0.00  0.00    -0.273 OA
ENDROOT
BRANCH   1  11
ATOM     10  C   LIG    1       24.884 -26.084   6.281  0.00  0.00    +0.218 C 
ATOM     11  N   LIG    1       25.207 -24.860   6.804  0.00  0.00    -0.301 N 
ATOM     12  H   LIG    1       26.203 -24.640   6.864  0.00  0.00    +0.149 HD
ATOM     13  O   LIG    1       23.768 -26.316   5.817  0.00  0.00    -0.275 OA
BRANCH  10  14
ATOM     14  C   LIG    1       25.956 -27.164   6.321  0.00  0.00    +0.131 C 
BRANCH  14  16
ATOM     15  C   LIG    1       25.173 -29.505   7.051  0.00  0.00    -0.030 A 
ATOM     16  C   LIG    1       25.799 -28.272   7.347  0.00  0.00    -0.034 A 
ATOM     17  C   LIG    1       26.294 -28.051   8.649  0.00  0.00    +0.004 A 
ATOM     18  C   LIG    1       26.108 -28.990   9.664  0.00  0.00    +0.000 A 
ATOM     19  C   LIG    1       25.453 -30.182   9.388  0.00  0.00    +0.000 A 
ATOM     20  C   LIG    1       25.008 -30.444   8.091  0.00  0.00    +0.005 A 
BRANCH  15  21
ATOM     21  C   LIG    1       24.632 -29.850   5.677  0.00  0.00    +0.113 C 
BRANCH  21  22
ATOM     22  N   LIG    1       23.266 -29.378   5.476  0.00  0.00    -0.326 NA
ATOM     23  H   LIG    1       23.215 -28.375   5.666  0.00  0.00    +0.118 HD
ATOM     24  H   LIG    1       22.665 -29.775   6.202  0.00  0.00    +0.118 HD
ENDBRANCH  21  22
ENDBRANCH  15  21
ENDBRANCH  14  16
ENDBRANCH  10  14
ENDBRANCH   1  11
BRANCH   4  25
ATOM     25  C   LIG    1       25.208 -20.091   4.475  0.00  0.00    +0.351 C 
ATOM     26  O   LIG    1       24.373 -19.247   4.208  0.00  0.00    -0.244 OA
BRANCH  25  27
ATOM     27  OXT LIG    1       26.066 -20.441   3.501  0.00  0.00    -0.476 OA
ATOM     28  HXT LIG    1       25.467 -20.543   2.731  0.00  0.00    +0.295 HD
ENDBRANCH  25  27
ENDBRANCH   4  25
BRANCH   5  29
ATOM     29  C   LIG    1       27.541 -19.164   6.249  0.00  0.00    +0.111 C 
BRANCH  29  30
ATOM     30  S   LIG    1       29.062 -19.931   5.550  0.00  0.00    -0.080 S 
BRANCH  30  31
ATOM     31  C   LIG    1       30.224 -19.536   6.773  0.00  0.00    +0.210 A 
ATOM     32  N   LIG    1       30.487 -20.229   7.935  0.00  0.00    -0.209 N 
ATOM     33  N   LIG    1       31.526 -19.628   8.558  0.00  0.00    -0.043 NA
ATOM     34  N   LIG    1       31.877 -18.615   7.783  0.00  0.00    -0.022 NA
ATOM     35  N   LIG    1       31.084 -18.549   6.669  0.00  0.00    -0.102 NA
BRANCH  32  36
ATOM     36  C   LIG    1       30.102 -21.554   8.378  0.00  0.00    +0.268 C 
BRANCH  36  37
ATOM     37  C   LIG    1       31.046 -22.183   9.375  0.00  0.00    +0.327 C 
ATOM     38  O   LIG    1       30.909 -22.336  10.576  0.00  0.00    -0.249 OA
BRANCH  37  39
ATOM     39  O   LIG    1       32.186 -22.610   8.773  0.00  0.00    -0.479 OA
ATOM     40  H   LIG    1       32.712 -23.042   9.483  0.00  0.00    +0.295 HD
ENDBRANCH  37  39
ENDBRANCH  36  37
ENDBRANCH  32  36
ENDBRANCH  30  31
ENDBRANCH  29  30
ENDBRANCH   5  29
TORSDOF 13
ENDMDL
MODEL 2
REMARK VINA RESULT:      -8.2      1.632      1.938
REMARK  Name = *****
REMARK                            x       y       z     vdW  Elec       q    Type
REMARK                         _______ _______ _______ _____ _____    ______ ____
ROOT
ATOM      1  CA  LIG    1       24.241 -23.791   6.737  0.00  0.00    +0.191 C 
ATOM      2  C   LIG    1       24.649 -22.547   7.587  0.00  0.00    +0.169 C 
ATOM      3  N   LIG    1       24.802 -21.815   6.343  0.00  0.00    -0.249 N 
ATOM      4  CA  LIG    1       25.670 -20.766   6.110  0.00  0.00    +0.123 C 
ATOM      5  C   LIG    1       26.592 -20.383   7.038  0.00  0.00    -0.021 C 
ATOM      6  C   LIG    1       26.733 -21.047   8.392  0.00  0.00    +0.104 C 
ATOM      7  S   LIG    1       26.213 -22.760   8.469  0.00  0.00    -0.131 S 
ATOM      8  C   LIG    1       24.475 -22.854   5.526  0.00  0.00    +0.244 C 
ATOM      9  O   LIG    1       24.557 -23.033   4.323  0.00  0.00    -0.273 OA
ENDROOT
BRANCH   1  11
ATOM     10  C   LIG    1       24.855 -26.147   6.166  0.00  0.00    +0.218 C 
ATOM     11  N   LIG    1       25.161 -24.968   6.791  0.00  0.00    -0.301 N 
ATOM     12  H   LIG    1       26.153 -24.783   6.954  0.00  0.00    +0.149 HD
ATOM     13  O   LIG    1       23.780 -26.315   5.591  0.00  0.00    -0.275 OA
BRANCH  10  14
ATOM     14  C   LIG    1       25.891 -27.261   6.234  0.00  0.00    +0.131 C 
BRANCH  14  16
ATOM     15  C   LIG    1       25.081 -29.554   7.074  0.00  0.00    -0.030 A 
ATOM     16  C   LIG    1       25.719 -28.315   7.313  0.00  0.00    -0.034 A 
ATOM     17  C   LIG    1       26.212 -28.036   8.604  0.00  0.00    +0.004 A 
ATOM     18  C   LIG    1       26.013 -28.922   9.662  0.00  0.00    +0.000 A 
ATOM     19  C   LIG    1       25.347 -30.120   9.443  0.00  0.00    +0.000 A 
ATOM     20  C   LIG    1       24.902 -30.440   8.159  0.00  0.00    +0.005 A 
BRANCH  15  21
ATOM     21  C   LIG    1       24.540 -29.961   5.717  0.00  0.00    +0.113 C 
BRANCH  21  22
ATOM     22  N   LIG    1       23.199 -29.442   5.468  0.00  0.00    -0.326 NA
ATOM     23  H   LIG    1       23.260 -28.567   4.944  0.00  0.00    +0.118 HD
ATOM     24  H   LIG    1       22.786 -29.145   6.354  0.00  0.00    +0.118 HD
ENDBRANCH  21  22
ENDBRANCH  15  21
ENDBRANCH  14  16
ENDBRANCH  10  14
ENDBRANCH   1  11
BRANCH   4  25
ATOM     25  C   LIG    1       25.499 -20.068   4.779  0.00  0.00    +0.351 C 
ATOM     26  O   LIG    1       24.678 -19.223   4.477  0.00  0.00    -0.244 OA
BRANCH  25  27
ATOM     27  OXT LIG    1       26.473 -20.330   3.890  0.00  0.00    -0.476 OA
ATOM     28  HXT LIG    1       26.509 -19.493   3.378  0.00  0.00    +0.295 HD
ENDBRANCH  25  27
ENDBRANCH   4  25
BRANCH   5  29
ATOM     29  C   LIG    1       27.683 -19.324   6.812  0.00  0.00    +0.111 C 
BRANCH  29  30
ATOM     30  S   LIG    1       29.262 -20.102   6.272  0.00  0.00    -0.080 S 
BRANCH  30  31
ATOM     31  C   LIG    1       30.056 -20.331   7.793  0.00  0.00    +0.210 A 
ATOM     32  N   LIG    1       30.631 -19.367   8.594  0.00  0.00    -0.209 N 
ATOM     33  N   LIG    1       31.059 -19.963   9.730  0.00  0.00    -0.043 NA
ATOM     34  N   LIG    1       30.736 -21.241   9.613  0.00  0.00    -0.022 NA
ATOM     35  N   LIG    1       30.107 -21.484   8.422  0.00  0.00    -0.102 NA
BRANCH  32  36
ATOM     36  C   LIG    1       30.553 -17.920   8.571  0.00  0.00    +0.268 C 
BRANCH  36  37
ATOM     37  C   LIG    1       30.920 -17.250   9.874  0.00  0.00    +0.327 C 
ATOM     38  O   LIG    1       30.220 -16.596  10.627  0.00  0.00    -0.249 OA
BRANCH  37  39
ATOM     39  O   LIG    1       32.228 -17.447  10.178  0.00  0.00    -0.479 OA
ATOM     40  H   LIG    1       32.530 -16.607  10.592  0.00  0.00    +0.295 HD
ENDBRANCH  37  39
ENDBRANCH  36  37
ENDBRANCH  32  36
ENDBRANCH  30  31
ENDBRANCH  29  30
ENDBRANCH   5  29
TORSDOF 13
ENDMDL
MODEL 3
REMARK VINA RESULT:      -6.9      4.560      9.356
REMARK  Name = *****
REMARK                            x       y       z     vdW  Elec       q    Type
REMARK                         _______ _______ _______ _____ _____    ______ ____
ROOT
ATOM      1  CA  LIG    1       25.035 -28.005   5.784  0.00  0.00    +0.191 C 
ATOM      2  C   LIG    1       26.080 -28.754   6.670  0.00  0.00    +0.169 C 
ATOM      3  N   LIG    1       25.204 -29.912   6.628  0.00  0.00    -0.249 N 
ATOM      4  CA  LIG    1       25.080 -30.882   7.603  0.00  0.00    +0.123 C 
ATOM      5  C   LIG    1       25.713 -30.771   8.804  0.00  0.00    -0.021 C 
ATOM      6  C   LIG    1       26.609 -29.605   9.167  0.00  0.00    +0.104 C 
ATOM      7  S   LIG    1       26.243 -28.062   8.332  0.00  0.00    -0.131 S 
ATOM      8  C   LIG    1       24.234 -29.327   5.871  0.00  0.00    +0.244 C 
ATOM      9  O   LIG    1       23.094 -29.645   5.578  0.00  0.00    -0.273 OA
ENDROOT
BRANCH   1  11
ATOM     10  C   LIG    1       24.400 -25.586   5.836  0.00  0.00    +0.218 C 
ATOM     11  N   LIG    1       24.352 -26.830   6.408  0.00  0.00    -0.301 N 
ATOM     12  H   LIG    1       23.559 -27.018   7.023  0.00  0.00    +0.149 HD
ATOM     13  O   LIG    1       25.062 -25.364   4.823  0.00  0.00    -0.275 OA
BRANCH  10  14
ATOM     14  C   LIG    1       23.620 -24.473   6.522  0.00  0.00    +0.131 C 
BRANCH  14  16
ATOM     15  C   LIG    1       23.888 -21.914   6.574  0.00  0.00    -0.030 A 
ATOM     16  C   LIG    1       24.374 -23.206   6.883  0.00  0.00    -0.034 A 
ATOM     17  C   LIG    1       25.612 -23.331   7.546  0.00  0.00    +0.004 A 
ATOM     18  C   LIG    1       26.397 -22.214   7.831  0.00  0.00    +0.000 A 
ATOM     19  C   LIG    1       25.945 -20.948   7.488  0.00  0.00    +0.000 A 
ATOM     20  C   LIG    1       24.695 -20.798   6.884  0.00  0.00    +0.005 A 
BRANCH  15  21
ATOM     21  C   LIG    1       22.558 -21.671   5.888  0.00  0.00    +0.113 C 
BRANCH  21  22
ATOM     22  N   LIG    1       22.496 -20.373   5.225  0.00  0.00    -0.326 NA
ATOM     23  H   LIG    1       22.988 -19.675   5.787  0.00  0.00    +0.118 HD
ATOM     24  H   LIG    1       21.532 -20.035   5.241  0.00  0.00    +0.118 HD
ENDBRANCH  21  22
ENDBRANCH  15  21
ENDBRANCH  14  16
ENDBRANCH  10  14
ENDBRANCH   1  11
BRANCH   4  25
ATOM     25  C   LIG    1       24.226 -32.072   7.226  0.00  0.00    +0.351 C 
ATOM     26  O   LIG    1       24.572 -33.094   6.663  0.00  0.00    -0.244 OA
BRANCH  25  27
ATOM     27  OXT LIG    1       22.973 -32.027   7.709  0.00  0.00    -0.476 OA
ATOM     28  HXT LIG    1       22.438 -32.053   6.887  0.00  0.00    +0.295 HD
ENDBRANCH  25  27
ENDBRANCH   4  25
BRANCH   5  29
ATOM     29  C   LIG    1       25.523 -31.727   9.992  0.00  0.00    +0.111 C 
BRANCH  29  30
ATOM     30  S   LIG    1       24.514 -30.947  11.320  0.00  0.00    -0.080 S 
BRANCH  30  31
ATOM     31  C   LIG    1       25.725 -30.638  12.518  0.00  0.00    +0.210 A 
ATOM     32  N   LIG    1       26.137 -29.413  12.998  0.00  0.00    -0.209 N 
ATOM     33  N   LIG    1       27.036 -29.628  13.985  0.00  0.00    -0.043 NA
ATOM     34  N   LIG    1       27.144 -30.942  14.098  0.00  0.00    -0.022 NA
ATOM     35  N   LIG    1       26.332 -31.582  13.200  0.00  0.00    -0.102 NA
BRANCH  32  36
ATOM     36  C   LIG    1       25.573 -28.084  12.868  0.00  0.00    +0.268 C 
BRANCH  36  37
ATOM     37  C   LIG    1       26.577 -27.003  12.549  0.00  0.00    +0.327 C 
ATOM     38  O   LIG    1       26.534 -25.812  12.804  0.00  0.00    -0.249 OA
BRANCH  37  39
ATOM     39  O   LIG    1       27.647 -27.505  11.880  0.00  0.00    -0.479 OA
ATOM     40  H   LIG    1       27.906 -26.807  11.238  0.00  0.00    +0.295 HD
ENDBRANCH  37  39
ENDBRANCH  36  37
ENDBRANCH  32  36
ENDBRANCH  30  31
ENDBRANCH  29  30
ENDBRANCH   5  29
TORSDOF 13
ENDMDL
MODEL 4
REMARK VINA RESULT:      -6.9      4.668     10.207
REMARK  Name = *****
REMARK                            x       y       z     vdW  Elec       q    Type
REMARK                         _______ _______ _______ _____ _____    ______ ____
ROOT
ATOM      1  CA  LIG    1       25.067 -27.978   5.789  0.00  0.00    +0.191 C 
ATOM      2  C   LIG    1       26.082 -28.687   6.741  0.00  0.00    +0.169 C 
ATOM      3  N   LIG    1       25.224 -29.858   6.695  0.00  0.00    -0.249 N 
ATOM      4  CA  LIG    1       25.069 -30.801   7.691  0.00  0.00    +0.123 C 
ATOM      5  C   LIG    1       25.647 -30.647   8.916  0.00  0.00    -0.021 C 
ATOM      6  C   LIG    1       26.511 -29.458   9.282  0.00  0.00    +0.104 C 
ATOM      7  S   LIG    1       26.163 -27.945   8.388  0.00  0.00    -0.131 S 
ATOM      8  C   LIG    1       24.280 -29.309   5.880  0.00  0.00    +0.244 C 
ATOM      9  O   LIG    1       23.159 -29.651   5.546  0.00  0.00    -0.273 OA
ENDROOT
BRANCH   1  11
ATOM     10  C   LIG    1       24.593 -25.525   5.902  0.00  0.00    +0.218 C 
ATOM     11  N   LIG    1       24.343 -26.796   6.348  0.00  0.00    -0.301 N 
ATOM     12  H   LIG    1       23.424 -26.959   6.764  0.00  0.00    +0.149 HD
ATOM     13  O   LIG    1       25.472 -25.291   5.073  0.00  0.00    -0.275 OA
BRANCH  10  14
ATOM     14  C   LIG    1       23.756 -24.401   6.495  0.00  0.00    +0.131 C 
BRANCH  14  16
ATOM     15  C   LIG    1       23.996 -21.841   6.616  0.00  0.00    -0.030 A 
ATOM     16  C   LIG    1       24.479 -23.135   6.920  0.00  0.00    -0.034 A 
ATOM     17  C   LIG    1       25.684 -23.264   7.640  0.00  0.00    +0.004 A 
ATOM     18  C   LIG    1       26.444 -22.147   7.987  0.00  0.00    +0.000 A 
ATOM     19  C   LIG    1       25.997 -20.878   7.650  0.00  0.00    +0.000 A 
ATOM     20  C   LIG    1       24.777 -20.726   6.989  0.00  0.00    +0.005 A 
BRANCH  15  21
ATOM     21  C   LIG    1       22.699 -21.595   5.870  0.00  0.00    +0.113 C 
BRANCH  21  22
ATOM     22  N   LIG    1       22.915 -21.087   4.520  0.00  0.00    -0.326 NA
ATOM     23  H   LIG    1       23.279 -20.134   4.563  0.00  0.00    +0.118 HD
ATOM     24  H   LIG    1       22.011 -20.962   4.061  0.00  0.00    +0.118 HD
ENDBRANCH  21  22
ENDBRANCH  15  21
ENDBRANCH  14  16
ENDBRANCH  10  14
ENDBRANCH   1  11
BRANCH   4  25
ATOM     25  C   LIG    1       24.249 -32.014   7.312  0.00  0.00    +0.351 C 
ATOM     26  O   LIG    1       24.645 -33.086   6.897  0.00  0.00    -0.244 OA
BRANCH  25  27
ATOM     27  OXT LIG    1       22.943 -31.913   7.615  0.00  0.00    -0.476 OA
ATOM     28  HXT LIG    1       22.593 -31.423   6.840  0.00  0.00    +0.295 HD
ENDBRANCH  25  27
ENDBRANCH   4  25
BRANCH   5  29
ATOM     29  C   LIG    1       25.417 -31.572  10.121  0.00  0.00    +0.111 C 
BRANCH  29  30
ATOM     30  S   LIG    1       24.785 -30.629  11.571  0.00  0.00    -0.080 S 
BRANCH  30  31
ATOM     31  C   LIG    1       23.085 -30.617  11.243  0.00  0.00    +0.210 A 
ATOM     32  N   LIG    1       22.131 -29.786  11.789  0.00  0.00    -0.209 N 
ATOM     33  N   LIG    1       20.947 -30.054  11.194  0.00  0.00    -0.043 NA
ATOM     34  N   LIG    1       21.193 -31.009  10.311  0.00  0.00    -0.022 NA
ATOM     35  N   LIG    1       22.515 -31.363  10.324  0.00  0.00    -0.102 NA
BRANCH  32  36
ATOM     36  C   LIG    1       22.241 -28.567  12.566  0.00  0.00    +0.268 C 
BRANCH  36  37
ATOM     37  C   LIG    1       20.980 -28.170  13.295  0.00  0.00    +0.327 C 
ATOM     38  O   LIG    1       20.585 -28.516  14.394  0.00  0.00    -0.249 OA
BRANCH  37  39
ATOM     39  O   LIG    1       20.234 -27.309  12.557  0.00  0.00    -0.479 OA
ATOM     40  H   LIG    1       19.362 -27.750  12.443  0.00  0.00    +0.295 HD
ENDBRANCH  37  39
ENDBRANCH  36  37
ENDBRANCH  32  36
ENDBRANCH  30  31
ENDBRANCH  29  30
ENDBRANCH   5  29
TORSDOF 13
ENDMDL
MODEL 5
REMARK VINA RESULT:      -6.3      7.869     10.891
REMARK  Name = *****
REMARK                            x       y       z     vdW  Elec       q    Type
REMARK                         _______ _______ _______ _____ _____    ______ ____
ROOT
ATOM      1  CA  LIG    1       24.199 -28.730  13.449  0.00  0.00    +0.191 C 
ATOM      2  C   LIG    1       24.541 -30.219  13.129  0.00  0.00    +0.169 C 
ATOM      3  N   LIG    1       25.677 -29.737  12.364  0.00  0.00    -0.249 N 
ATOM      4  CA  LIG    1       26.246 -30.351  11.267  0.00  0.00    +0.123 C 
ATOM      5  C   LIG    1       25.690 -31.460  10.701  0.00  0.00    -0.021 C 
ATOM      6  C   LIG    1       24.432 -32.119  11.227  0.00  0.00    +0.104 C 
ATOM      7  S   LIG    1       23.301 -31.036  12.098  0.00  0.00    -0.131 S 
ATOM      8  C   LIG    1       25.441 -28.413  12.580  0.00  0.00    +0.244 C 
ATOM      9  O   LIG    1       25.893 -27.391  12.093  0.00  0.00    -0.273 OA
ENDROOT
BRANCH   1  11
ATOM     10  C   LIG    1       22.030 -27.505  13.675  0.00  0.00    +0.218 C 
ATOM     11  N   LIG    1       22.912 -28.207  12.897  0.00  0.00    -0.301 N 
ATOM     12  H   LIG    1       22.865 -28.038  11.890  0.00  0.00    +0.149 HD
ATOM     13  O   LIG    1       22.224 -27.331  14.878  0.00  0.00    -0.275 OA
BRANCH  10  14
ATOM     14  C   LIG    1       20.779 -26.965  12.997  0.00  0.00    +0.131 C 
BRANCH  14  16
ATOM     15  C   LIG    1       18.999 -28.557  13.957  0.00  0.00    -0.030 A 
ATOM     16  C   LIG    1       19.443 -27.247  13.661  0.00  0.00    -0.034 A 
ATOM     17  C   LIG    1       18.614 -26.154  13.986  0.00  0.00    +0.004 A 
ATOM     18  C   LIG    1       17.339 -26.345  14.519  0.00  0.00    +0.000 A 
ATOM     19  C   LIG    1       16.881 -27.631  14.768  0.00  0.00    +0.000 A 
ATOM     20  C   LIG    1       17.710 -28.724  14.508  0.00  0.00    +0.005 A 
BRANCH  15  21
ATOM     21  C   LIG    1       19.825 -29.796  13.672  0.00  0.00    +0.113 C 
BRANCH  21  22
ATOM     22  N   LIG    1       19.488 -30.415  12.394  0.00  0.00    -0.326 NA
ATOM     23  H   LIG    1       18.528 -30.762  12.421  0.00  0.00    +0.118 HD
ATOM     24  H   LIG    1       20.034 -31.272  12.284  0.00  0.00    +0.118 HD
ENDBRANCH  21  22
ENDBRANCH  15  21
ENDBRANCH  14  16
ENDBRANCH  10  14
ENDBRANCH   1  11
BRANCH   4  25
ATOM     25  C   LIG    1       27.530 -29.726  10.769  0.00  0.00    +0.351 C 
ATOM     26  O   LIG    1       28.661 -29.914  11.176  0.00  0.00    -0.244 OA
BRANCH  25  27
ATOM     27  OXT LIG    1       27.389 -28.990   9.653  0.00  0.00    -0.476 OA
ATOM     28  HXT LIG    1       27.764 -28.128   9.931  0.00  0.00    +0.295 HD
ENDBRANCH  25  27
ENDBRANCH   4  25
BRANCH   5  29
ATOM     29  C   LIG    1       26.175 -32.124   9.403  0.00  0.00    +0.111 C 
BRANCH  29  30
ATOM     30  S   LIG    1       24.758 -32.744   8.404  0.00  0.00    -0.080 S 
BRANCH  30  31
ATOM     31  C   LIG    1       25.253 -32.290   6.808  0.00  0.00    +0.210 A 
ATOM     32  N   LIG    1       25.224 -31.032   6.246  0.00  0.00    -0.209 N 
ATOM     33  N   LIG    1       25.782 -31.106   5.016  0.00  0.00    -0.043 NA
ATOM     34  N   LIG    1       26.144 -32.369   4.858  0.00  0.00    -0.022 NA
ATOM     35  N   LIG    1       25.830 -33.114   5.962  0.00  0.00    -0.102 NA
BRANCH  32  36
ATOM     36  C   LIG    1       25.028 -29.718   6.827  0.00  0.00    +0.268 C 
BRANCH  36  37
ATOM     37  C   LIG    1       24.154 -28.795   6.012  0.00  0.00    +0.327 C 
ATOM     38  O   LIG    1       24.230 -27.587   5.873  0.00  0.00    -0.249 OA
BRANCH  37  39
ATOM     39  O   LIG    1       23.166 -29.480   5.382  0.00  0.00    -0.479 OA
ATOM     40  H   LIG    1       23.038 -30.300   5.909  0.00  0.00    +0.295 HD
ENDBRANCH  37  39
ENDBRANCH  36  37
ENDBRANCH  32  36
ENDBRANCH  30  31
ENDBRANCH  29  30
ENDBRANCH   5  29
TORSDOF 13
ENDMDL
MODEL 6
REMARK VINA RESULT:      -6.0      6.000     10.451
REMARK  Name = *****
REMARK                            x       y       z     vdW  Elec       q    Type
REMARK                         _______ _______ _______ _____ _____    ______ ____
ROOT
ATOM      1  CA  LIG    1       23.448 -33.171  12.015  0.00  0.00    +0.191 C 
ATOM      2  C   LIG    1       23.380 -33.657  10.534  0.00  0.00    +0.169 C 
ATOM      3  N   LIG    1       24.754 -33.212  10.381  0.00  0.00    -0.249 N 
ATOM      4  CA  LIG    1       25.344 -32.757   9.219  0.00  0.00    +0.123 C 
ATOM      5  C   LIG    1       24.620 -32.562   8.080  0.00  0.00    -0.021 C 
ATOM      6  C   LIG    1       23.135 -32.841   7.982  0.00  0.00    +0.104 C 
ATOM      7  S   LIG    1       22.222 -32.711   9.518  0.00  0.00    -0.131 S 
ATOM      8  C   LIG    1       24.893 -32.745  11.653  0.00  0.00    +0.244 C 
ATOM      9  O   LIG    1       25.736 -32.063  12.208  0.00  0.00    -0.273 OA
ENDROOT
BRANCH   1  11
ATOM     10  C   LIG    1       22.428 -31.611  13.684  0.00  0.00    +0.218 C 
ATOM     11  N   LIG    1       22.548 -32.037  12.387  0.00  0.00    -0.301 N 
ATOM     12  H   LIG    1       22.329 -31.352  11.662  0.00  0.00    +0.149 HD
ATOM     13  O   LIG    1       23.002 -32.186  14.609  0.00  0.00    -0.275 OA
BRANCH  10  14
ATOM     14  C   LIG    1       21.531 -30.409  13.943  0.00  0.00    +0.131 C 
BRANCH  14  16
ATOM     15  C   LIG    1       21.366 -27.849  13.735  0.00  0.00    -0.030 A 
ATOM     16  C   LIG    1       22.144 -29.029  13.784  0.00  0.00    -0.034 A 
ATOM     17  C   LIG    1       23.546 -28.929  13.673  0.00  0.00    +0.004 A 
ATOM     18  C   LIG    1       24.169 -27.703  13.438  0.00  0.00    +0.000 A 
ATOM     19  C   LIG    1       23.405 -26.549  13.344  0.00  0.00    +0.000 A 
ATOM     20  C   LIG    1       22.020 -26.619  13.510  0.00  0.00    +0.005 A 
BRANCH  15  21
ATOM     21  C   LIG    1       19.856 -27.847  13.871  0.00  0.00    +0.113 C 
BRANCH  21  22
ATOM     22  N   LIG    1       19.254 -26.590  13.437  0.00  0.00    -0.326 NA
ATOM     23  H   LIG    1       18.876 -26.696  12.494  0.00  0.00    +0.118 HD
ATOM     24  H   LIG    1       19.991 -25.895  13.306  0.00  0.00    +0.118 HD
ENDBRANCH  21  22
ENDBRANCH  15  21
ENDBRANCH  14  16
ENDBRANCH  10  14
ENDBRANCH   1  11
BRANCH   4  25
ATOM     25  C   LIG    1       26.836 -32.525   9.299  0.00  0.00    +0.351 C 
ATOM     26  O   LIG    1       27.730 -33.273   8.950  0.00  0.00    -0.244 OA
BRANCH  25  27
ATOM     27  OXT LIG    1       27.182 -31.280   9.671  0.00  0.00    -0.476 OA
ATOM     28  HXT LIG    1       26.307 -30.844   9.754  0.00  0.00    +0.295 HD
ENDBRANCH  25  27
ENDBRANCH   4  25
BRANCH   5  29
ATOM     29  C   LIG    1       25.163 -31.931   6.788  0.00  0.00    +0.111 C 
BRANCH  29  30
ATOM     30  S   LIG    1       24.166 -30.464   6.295  0.00  0.00    -0.080 S 
BRANCH  30  31
ATOM     31  C   LIG    1       25.095 -29.181   6.994  0.00  0.00    +0.210 A 
ATOM     32  N   LIG    1       25.234 -27.893   6.524  0.00  0.00    -0.209 N 
ATOM     33  N   LIG    1       25.973 -27.196   7.416  0.00  0.00    -0.043 NA
ATOM     34  N   LIG    1       26.253 -28.042   8.395  0.00  0.00    -0.022 NA
ATOM     35  N   LIG    1       25.710 -29.274   8.151  0.00  0.00    -0.102 NA
BRANCH  32  36
ATOM     36  C   LIG    1       24.510 -27.150   5.511  0.00  0.00    +0.268 C 
BRANCH  36  37
ATOM     37  C   LIG    1       24.311 -25.687   5.826  0.00  0.00    +0.327 C 
ATOM     38  O   LIG    1       23.419 -25.150   6.458  0.00  0.00    -0.249 OA
BRANCH  37  39
ATOM     39  O   LIG    1       25.304 -24.929   5.294  0.00  0.00    -0.479 OA
ATOM     40  H   LIG    1       24.929 -24.023   5.218  0.00  0.00    +0.295 HD
ENDBRANCH  37  39
ENDBRANCH  36  37
ENDBRANCH  32  36
ENDBRANCH  30  31
ENDBRANCH  29  30
ENDBRANCH   5  29
TORSDOF 13
ENDMDL
MODEL 7
REMARK VINA RESULT:      -6.0      5.675      9.610
REMARK  Name = *****
REMARK                            x       y       z     vdW  Elec       q    Type
REMARK                         _______ _______ _______ _____ _____    ______ ____
ROOT
ATOM      1  CA  LIG    1       23.725 -31.498  11.782  0.00  0.00    +0.191 C 
ATOM      2  C   LIG    1       24.178 -32.174  10.450  0.00  0.00    +0.169 C 
ATOM      3  N   LIG    1       25.013 -31.012  10.207  0.00  0.00    -0.249 N 
ATOM      4  CA  LIG    1       25.373 -30.504   8.975  0.00  0.00    +0.123 C 
ATOM      5  C   LIG    1       24.853 -31.002   7.818  0.00  0.00    -0.021 C 
ATOM      6  C   LIG    1       23.866 -32.150   7.778  0.00  0.00    +0.104 C 
ATOM      7  S   LIG    1       22.846 -32.343   9.239  0.00  0.00    -0.131 S 
ATOM      8  C   LIG    1       24.658 -30.344  11.340  0.00  0.00    +0.244 C 
ATOM      9  O   LIG    1       24.831 -29.202  11.728  0.00  0.00    -0.273 OA
ENDROOT
BRANCH   1  11
ATOM     10  C   LIG    1       21.650 -31.007  13.091  0.00  0.00    +0.218 C 
ATOM     11  N   LIG    1       22.282 -31.118  11.880  0.00  0.00    -0.301 N 
ATOM     12  H   LIG    1       21.882 -30.584  11.107  0.00  0.00    +0.149 HD
ATOM     13  O   LIG    1       22.221 -31.280  14.146  0.00  0.00    -0.275 OA
BRANCH  10  14
ATOM     14  C   LIG    1       20.197 -30.555  13.080  0.00  0.00    +0.131 C 
BRANCH  14  16
ATOM     15  C   LIG    1       18.691 -28.701  14.036  0.00  0.00    -0.030 A 
ATOM     16  C   LIG    1       19.908 -29.110  13.445  0.00  0.00    -0.034 A 
ATOM     17  C   LIG    1       20.897 -28.142  13.173  0.00  0.00    +0.004 A 
ATOM     18  C   LIG    1       20.665 -26.786  13.404  0.00  0.00    +0.000 A 
ATOM     19  C   LIG    1       19.454 -26.375  13.942  0.00  0.00    +0.000 A 
ATOM     20  C   LIG    1       18.485 -27.324  14.272  0.00  0.00    +0.005 A 
BRANCH  15  21
ATOM     21  C   LIG    1       17.576 -29.666  14.392  0.00  0.00    +0.113 C 
BRANCH  21  22
ATOM     22  N   LIG    1       16.590 -29.803  13.325  0.00  0.00    -0.326 NA
ATOM     23  H   LIG    1       17.050 -30.115  12.468  0.00  0.00    +0.118 HD
ATOM     24  H   LIG    1       16.243 -28.877  13.070  0.00  0.00    +0.118 HD
ENDBRANCH  21  22
ENDBRANCH  15  21
ENDBRANCH  14  16
ENDBRANCH  10  14
ENDBRANCH   1  11
BRANCH   4  25
ATOM     25  C   LIG    1       26.396 -29.391   9.008  0.00  0.00    +0.351 C 
ATOM     26  O   LIG    1       26.220 -28.205   8.800  0.00  0.00    -0.244 OA
BRANCH  25  27
ATOM     27  OXT LIG    1       27.605 -29.766   9.462  0.00  0.00    -0.476 OA
ATOM     28  HXT LIG    1       27.550 -29.517  10.409  0.00  0.00    +0.295 HD
ENDBRANCH  25  27
ENDBRANCH   4  25
BRANCH   5  29
ATOM     29  C   LIG    1       25.088 -30.411   6.419  0.00  0.00    +0.111 C 
BRANCH  29  30
ATOM     30  S   LIG    1       23.969 -28.984   6.103  0.00  0.00    -0.080 S 
BRANCH  30  31
ATOM     31  C   LIG    1       25.092 -27.807   5.508  0.00  0.00    +0.210 A 
ATOM     32  N   LIG    1       24.961 -26.436   5.532  0.00  0.00    -0.209 N 
ATOM     33  N   LIG    1       26.102 -25.895   5.048  0.00  0.00    -0.043 NA
ATOM     34  N   LIG    1       26.892 -26.915   4.756  0.00  0.00    -0.022 NA
ATOM     35  N   LIG    1       26.283 -28.108   5.042  0.00  0.00    -0.102 NA
BRANCH  32  36
ATOM     36  C   LIG    1       24.039 -25.565   6.235  0.00  0.00    +0.268 C 
BRANCH  36  37
ATOM     37  C   LIG    1       24.508 -24.136   6.376  0.00  0.00    +0.327 C 
ATOM     38  O   LIG    1       25.051 -23.594   7.322  0.00  0.00    -0.249 OA
BRANCH  37  39
ATOM     39  O   LIG    1       24.250 -23.419   5.253  0.00  0.00    -0.479 OA
ATOM     40  H   LIG    1       23.597 -23.953   4.746  0.00  0.00    +0.295 HD
ENDBRANCH  37  39
ENDBRANCH  36  37
ENDBRANCH  32  36
ENDBRANCH  30  31
ENDBRANCH  29  30
ENDBRANCH   5  29
TORSDOF 13
ENDMDL
MODEL 8
REMARK VINA RESULT:      -6.0      6.290      9.843
REMARK  Name = *****
REMARK                            x       y       z     vdW  Elec       q    Type
REMARK                         _______ _______ _______ _____ _____    ______ ____
ROOT
ATOM      1  CA  LIG    1       23.533 -30.314  13.160  0.00  0.00    +0.191 C 
ATOM      2  C   LIG    1       23.794 -30.916  11.743  0.00  0.00    +0.169 C 
ATOM      3  N   LIG    1       25.019 -30.137  11.698  0.00  0.00    -0.249 N 
ATOM      4  CA  LIG    1       25.630 -29.635  10.566  0.00  0.00    +0.123 C 
ATOM      5  C   LIG    1       25.045 -29.728   9.339  0.00  0.00    -0.021 C 
ATOM      6  C   LIG    1       23.706 -30.396   9.105  0.00  0.00    +0.104 C 
ATOM      7  S   LIG    1       22.586 -30.391  10.505  0.00  0.00    -0.131 S 
ATOM      8  C   LIG    1       24.860 -29.552  12.918  0.00  0.00    +0.244 C 
ATOM      9  O   LIG    1       25.419 -28.630  13.484  0.00  0.00    -0.273 OA
ENDROOT
BRANCH   1  11
ATOM     10  C   LIG    1       21.592 -29.406  14.451  0.00  0.00    +0.218 C 
ATOM     11  N   LIG    1       22.334 -29.432  13.299  0.00  0.00    -0.301 N 
ATOM     12  H   LIG    1       22.293 -28.596  12.713  0.00  0.00    +0.149 HD
ATOM     13  O   LIG    1       21.837 -30.156  15.395  0.00  0.00    -0.275 OA
BRANCH  10  14
ATOM     14  C   LIG    1       20.429 -28.427  14.508  0.00  0.00    +0.131 C 
BRANCH  14  16
ATOM     15  C   LIG    1       17.863 -28.230  14.439  0.00  0.00    -0.030 A 
ATOM     16  C   LIG    1       19.046 -28.958  14.174  0.00  0.00    -0.034 A 
ATOM     17  C   LIG    1       18.947 -30.234  13.582  0.00  0.00    +0.004 A 
ATOM     18  C   LIG    1       17.706 -30.819  13.327  0.00  0.00    +0.000 A 
ATOM     19  C   LIG    1       16.542 -30.127  13.628  0.00  0.00    +0.000 A 
ATOM     20  C   LIG    1       16.620 -28.839  14.161  0.00  0.00    +0.005 A 
BRANCH  15  21
ATOM     21  C   LIG    1       17.864 -26.842  15.049  0.00  0.00    +0.113 C 
BRANCH  21  22
ATOM     22  N   LIG    1       17.924 -25.787  14.043  0.00  0.00    -0.326 NA
ATOM     23  H   LIG    1       18.837 -25.797  13.586  0.00  0.00    +0.118 HD
ATOM     24  H   LIG    1       17.917 -24.878  14.511  0.00  0.00    +0.118 HD
ENDBRANCH  21  22
ENDBRANCH  15  21
ENDBRANCH  14  16
ENDBRANCH  10  14
ENDBRANCH   1  11
BRANCH   4  25
ATOM     25  C   LIG    1       26.990 -29.013  10.787  0.00  0.00    +0.351 C 
ATOM     26  O   LIG    1       28.082 -29.525  10.630  0.00  0.00    -0.244 OA
BRANCH  25  27
ATOM     27  OXT LIG    1       26.957 -27.695  11.051  0.00  0.00    -0.476 OA
ATOM     28  HXT LIG    1       26.632 -27.327  10.201  0.00  0.00    +0.295 HD
ENDBRANCH  25  27
ENDBRANCH   4  25
BRANCH   5  29
ATOM     29  C   LIG    1       25.584 -29.080   8.054  0.00  0.00    +0.111 C 
BRANCH  29  30
ATOM     30  S   LIG    1       24.227 -28.756   6.852  0.00  0.00    -0.080 S 
BRANCH  30  31
ATOM     31  C   LIG    1       24.995 -27.634   5.779  0.00  0.00    +0.210 A 
ATOM     32  N   LIG    1       24.714 -26.294   5.625  0.00  0.00    -0.209 N 
ATOM     33  N   LIG    1       25.605 -25.774   4.751  0.00  0.00    -0.043 NA
ATOM     34  N   LIG    1       26.400 -26.774   4.406  0.00  0.00    -0.022 NA
ATOM     35  N   LIG    1       26.040 -27.932   5.040  0.00  0.00    -0.102 NA
BRANCH  32  36
ATOM     36  C   LIG    1       23.923 -25.374   6.420  0.00  0.00    +0.268 C 
BRANCH  36  37
ATOM     37  C   LIG    1       24.529 -24.000   6.578  0.00  0.00    +0.327 C 
ATOM     38  O   LIG    1       24.080 -22.918   6.243  0.00  0.00    -0.249 OA
BRANCH  37  39
ATOM     39  O   LIG    1       25.742 -24.063   7.183  0.00  0.00    -0.479 OA
ATOM     40  H   LIG    1       26.372 -23.649   6.550  0.00  0.00    +0.295 HD
ENDBRANCH  37  39
ENDBRANCH  36  37
ENDBRANCH  32  36
ENDBRANCH  30  31
ENDBRANCH  29  30
ENDBRANCH   5  29
TORSDOF 13
ENDMDL
MODEL 9
REMARK VINA RESULT:      -6.0      5.506      9.810
REMARK  Name = *****
REMARK                            x       y       z     vdW  Elec       q    Type
REMARK                         _______ _______ _______ _____ _____    ______ ____
ROOT
ATOM      1  CA  LIG    1       23.737 -31.960  12.615  0.00  0.00    +0.191 C 
ATOM      2  C   LIG    1       23.438 -31.958  11.083  0.00  0.00    +0.169 C 
ATOM      3  N   LIG    1       24.869 -31.867  10.859  0.00  0.00    -0.249 N 
ATOM      4  CA  LIG    1       25.494 -31.266   9.784  0.00  0.00    +0.123 C 
ATOM      5  C   LIG    1       24.791 -30.565   8.851  0.00  0.00    -0.021 C 
ATOM      6  C   LIG    1       23.286 -30.400   8.895  0.00  0.00    +0.104 C 
ATOM      7  S   LIG    1       22.548 -30.486  10.526  0.00  0.00    -0.131 S 
ATOM      8  C   LIG    1       25.217 -31.845  12.176  0.00  0.00    +0.244 C 
ATOM      9  O   LIG    1       26.256 -31.602  12.764  0.00  0.00    -0.273 OA
ENDROOT
BRANCH   1  11
ATOM     10  C   LIG    1       23.340 -30.734  14.760  0.00  0.00    +0.218 C 
ATOM     11  N   LIG    1       23.234 -30.787  13.395  0.00  0.00    -0.301 N 
ATOM     12  H   LIG    1       23.169 -29.891  12.908  0.00  0.00    +0.149 HD
ATOM     13  O   LIG    1       23.790 -31.676  15.411  0.00  0.00    -0.275 OA
BRANCH  10  14
ATOM     14  C   LIG    1       22.852 -29.468  15.448  0.00  0.00    +0.131 C 
BRANCH  14  16
ATOM     15  C   LIG    1       22.693 -27.466  13.838  0.00  0.00    -0.030 A 
ATOM     16  C   LIG    1       22.068 -28.472  14.612  0.00  0.00    -0.034 A 
ATOM     17  C   LIG    1       20.661 -28.555  14.618  0.00  0.00    +0.004 A 
ATOM     18  C   LIG    1       19.876 -27.621  13.941  0.00  0.00    +0.000 A 
ATOM     19  C   LIG    1       20.485 -26.604  13.218  0.00  0.00    +0.000 A 
ATOM     20  C   LIG    1       21.878 -26.539  13.153  0.00  0.00    +0.005 A 
BRANCH  15  21
ATOM     21  C   LIG    1       24.198 -27.308  13.744  0.00  0.00    +0.113 C 
BRANCH  21  22
ATOM     22  N   LIG    1       24.783 -28.120  12.683  0.00  0.00    -0.326 NA
ATOM     23  H   LIG    1       25.619 -27.660  12.317  0.00  0.00    +0.118 HD
ATOM     24  H   LIG    1       24.155 -28.119  11.877  0.00  0.00    +0.118 HD
ENDBRANCH  21  22
ENDBRANCH  15  21
ENDBRANCH  14  16
ENDBRANCH  10  14
ENDBRANCH   1  11
BRANCH   4  25
ATOM     25  C   LIG    1       26.991 -31.471   9.709  0.00  0.00    +0.351 C 
ATOM     26  O   LIG    1       27.597 -32.362   9.144  0.00  0.00    -0.244 OA
BRANCH  25  27
ATOM     27  OXT LIG    1       27.712 -30.455  10.214  0.00  0.00    -0.476 OA
ATOM     28  HXT LIG    1       27.248 -30.279  11.060  0.00  0.00    +0.295 HD
ENDBRANCH  25  27
ENDBRANCH   4  25
BRANCH   5  29
ATOM     29  C   LIG    1       25.415 -29.752   7.705  0.00  0.00    +0.111 C 
BRANCH  29  30
ATOM     30  S   LIG    1       24.120 -28.887   6.722  0.00  0.00    -0.080 S 
BRANCH  30  31
ATOM     31  C   LIG    1       25.093 -27.853   5.730  0.00  0.00    +0.210 A 
ATOM     32  N   LIG    1       24.925 -26.504   5.507  0.00  0.00    -0.209 N 
ATOM     33  N   LIG    1       25.953 -26.071   4.743  0.00  0.00    -0.043 NA
ATOM     34  N   LIG    1       26.717 -27.131   4.530  0.00  0.00    -0.022 NA
ATOM     35  N   LIG    1       26.201 -28.242   5.141  0.00  0.00    -0.102 NA
BRANCH  32  36
ATOM     36  C   LIG    1       24.103 -25.510   6.168  0.00  0.00    +0.268 C 
BRANCH  36  37
ATOM     37  C   LIG    1       24.730 -24.139   6.266  0.00  0.00    +0.327 C 
ATOM     38  O   LIG    1       25.171 -23.563   7.244  0.00  0.00    -0.249 OA
BRANCH  37  39
ATOM     39  O   LIG    1       24.769 -23.527   5.055  0.00  0.00    -0.479 OA
ATOM     40  H   LIG    1       23.895 -23.086   4.957  0.00  0.00    +0.295 HD
ENDBRANCH  37  39
ENDBRANCH  36  37
ENDBRANCH  32  36
ENDBRANCH  30  31
ENDBRANCH  29  30
ENDBRANCH   5  29
TORSDOF 13
ENDMDL
