MODEL 1
REMARK VINA RESULT:      92.4      0.000      0.000
REMARK  Name = *****
REMARK                            x       y       z     vdW  Elec       q    Type
REMARK                         _______ _______ _______ _____ _____    ______ ____
ROOT
ATOM      1  C   LIG    1       19.475 -17.096   3.983  0.00  0.00    +0.030 A 
ATOM      2  C   LIG    1       19.409 -17.389   2.609  0.00  0.00    +0.027 A 
ATOM      3  C   LIG    1       19.623 -18.691   2.112  0.00  0.00    +0.047 A 
ATOM      4  C   LIG    1       19.981 -19.725   2.975  0.00  0.00    +0.121 A 
ATOM      5  C   LIG    1       20.007 -19.461   4.343  0.00  0.00    +0.047 A 
ATOM      6  C   LIG    1       19.734 -18.174   4.838  0.00  0.00    +0.027 A 
ENDROOT
BRANCH   1  10
ATOM      7  N   LIG    1       20.315 -13.188   5.482  0.00  0.00    -0.327 N 
ATOM      8  C   LIG    1       19.571 -13.300   4.201  0.00  0.00    +0.124 C 
ATOM      9  C   LIG    1       19.740 -14.713   3.576  0.00  0.00    +0.124 C 
ATOM     10  N   LIG    1       19.362 -15.797   4.528  0.00  0.00    -0.327 N 
ATOM     11  C   LIG    1       19.912 -15.634   5.897  0.00  0.00    +0.124 C 
ATOM     12  C   LIG    1       19.801 -14.191   6.445  0.00  0.00    +0.124 C 
BRANCH   7  16
ATOM     13  C   LIG    1       24.522 -12.483   5.211  0.00  0.00    +0.052 A 
ATOM     14  C   LIG    1       24.016 -13.605   5.864  0.00  0.00    +0.028 A 
ATOM     15  C   LIG    1       22.627 -13.819   5.951  0.00  0.00    +0.025 A 
ATOM     16  C   LIG    1       21.689 -12.936   5.390  0.00  0.00    +0.030 A 
ATOM     17  C   LIG    1       22.221 -11.843   4.703  0.00  0.00    +0.025 A 
ATOM     18  C   LIG    1       23.600 -11.608   4.630  0.00  0.00    +0.028 A 
BRANCH  13  22
ATOM     19  N   LIG    1       28.008 -12.256   4.393  0.00  0.00    -0.210 N 
ATOM     20  C   LIG    1       26.689 -12.436   3.981  0.00  0.00    +0.351 C 
ATOM     21  O   LIG    1       26.318 -12.704   2.829  0.00  0.00    -0.244 OA
ATOM     22  N   LIG    1       25.907 -12.245   5.095  0.00  0.00    -0.250 N 
ATOM     23  C   LIG    1       26.778 -11.869   6.058  0.00  0.00    +0.230 C 
ATOM     24  N   LIG    1       28.025 -11.850   5.712  0.00  0.00    -0.157 NA
BRANCH  19  25
ATOM     25  C   LIG    1       29.236 -12.436   3.627  0.00  0.00    +0.109 C 
ATOM     26  C   LIG    1       29.313 -11.476   2.437  0.00  0.00    +0.033 C 
BRANCH  25  28
ATOM     27  C   LIG    1       28.692 -14.943   3.910  0.00  0.00    +0.006 C 
ATOM     28  C   LIG    1       29.461 -13.881   3.133  0.00  0.00    +0.023 C 
ENDBRANCH  25  28
ENDBRANCH  19  25
ENDBRANCH  13  22
ENDBRANCH   7  16
ENDBRANCH   1  10
BRANCH   4  29
ATOM     29  O   LIG    1       20.300 -20.940   2.411  0.00  0.00    -0.489 OA
BRANCH  29  30
ATOM     30  C   LIG    1       21.657 -21.376   2.639  0.00  0.00    +0.263 C 
BRANCH  30  31
ATOM     31  C   LIG    1       22.547 -20.218   3.128  0.00  0.00    +0.185 C 
ATOM     32  O   LIG    1       23.878 -20.251   2.574  0.00  0.00    -0.334 OA
ATOM     33  C   LIG    1       24.800 -19.877   3.625  0.00  0.00    +0.219 C 
ATOM     34  O   LIG    1       24.093 -20.023   4.880  0.00  0.00    -0.341 OA
ATOM     35  C   LIG    1       22.719 -20.261   4.623  0.00  0.00    +0.198 C 
BRANCH  33  36
ATOM     36  C   LIG    1       25.241 -18.394   3.502  0.00  0.00    +0.031 A 
ATOM     37  C   LIG    1       24.469 -17.259   3.836  0.00  0.00    +0.051 A 
ATOM     38 CL   LIG    1       22.970 -17.300   4.691  0.00  0.00    -0.083 Cl
ATOM     39  C   LIG    1       24.898 -15.956   3.512  0.00  0.00    +0.040 A 
ATOM     40  C   LIG    1       26.132 -15.746   2.915  0.00  0.00    +0.042 A 
ATOM     41 CL   LIG    1       26.642 -14.150   2.530  0.00  0.00    -0.084 Cl
ATOM     42  C   LIG    1       26.953 -16.824   2.642  0.00  0.00    +0.020 A 
ATOM     43  C   LIG    1       26.512 -18.122   2.930  0.00  0.00    +0.012 A 
ENDBRANCH  33  36
BRANCH  33  44
ATOM     44  C   LIG    1       25.946 -20.923   3.680  0.00  0.00    +0.215 C 
BRANCH  44  45
ATOM     45  N   LIG    1       26.556 -21.103   4.984  0.00  0.00    -0.246 N 
ATOM     46  N   LIG    1       25.823 -21.541   6.030  0.00  0.00    -0.158 NA
ATOM     47  C   LIG    1       26.728 -21.536   7.013  0.00  0.00    +0.244 A 
ATOM     48  N   LIG    1       27.971 -21.108   6.659  0.00  0.00    -0.223 NA
ATOM     49  C   LIG    1       27.830 -20.829   5.386  0.00  0.00    +0.219 A 
ENDBRANCH  44  45
ENDBRANCH  33  44
ENDBRANCH  30  31
ENDBRANCH  29  30
ENDBRANCH   4  29
TORSDOF 11
ENDMDL
