MODEL 1
REMARK VINA RESULT:      -6.9      0.000      0.000
REMARK  Name = *****
REMARK                            x       y       z     vdW  Elec       q    Type
REMARK                         _______ _______ _______ _____ _____    ______ ____
ROOT
ATOM      1  C   LIG    1       26.085 -20.571   8.016  0.00  0.00    +0.161 C 
ENDROOT
BRANCH   1   2
ATOM      2  C   LIG    1       25.319 -21.792   7.537  0.00  0.00    -0.018 A 
ATOM      3  C   LIG    1       25.997 -22.995   7.288  0.00  0.00    +0.010 A 
ATOM      4  C   LIG    1       25.305 -24.125   6.849  0.00  0.00    +0.046 A 
ATOM      5  C   LIG    1       23.928 -24.059   6.657  0.00  0.00    +0.117 A 
ATOM      6  C   LIG    1       23.235 -22.878   6.893  0.00  0.00    +0.046 A 
ATOM      7  C   LIG    1       23.928 -21.747   7.332  0.00  0.00    +0.010 A 
BRANCH   5   8
ATOM      8  O   LIG    1       23.295 -25.187   6.230  0.00  0.00    -0.507 OA
ATOM      9  H   LIG    1       22.906 -25.013   5.356  0.00  0.00    +0.292 HD
ENDBRANCH   5   8
ENDBRANCH   1   2
BRANCH   1  10
ATOM     10  C   LIG    1       27.581 -20.527   7.565  0.00  0.00    +0.083 C 
ATOM     11  C   LIG    1       27.736 -20.090   6.105  0.00  0.00    +0.027 C 
BRANCH  10  13
ATOM     12  C   LIG    1       29.756 -19.382   7.895  0.00  0.00    +0.101 C 
ATOM     13  N   LIG    1       28.459 -19.730   8.462  0.00  0.00    -0.314 NA
ATOM     14  H   LIG    1       27.957 -18.863   8.671  0.00  0.00    +0.122 HD
ENDBRANCH  10  13
ENDBRANCH   1  10
BRANCH   1  15
ATOM     15  O   LIG    1       26.018 -20.525   9.451  0.00  0.00    -0.386 OA
ATOM     16  H   LIG    1       26.917 -20.320   9.766  0.00  0.00    +0.210 HD
ENDBRANCH   1  15
TORSDOF 5
ENDMDL
MODEL 2
REMARK VINA RESULT:      -6.8      0.315      1.376
REMARK  Name = *****
REMARK                            x       y       z     vdW  Elec       q    Type
REMARK                         _______ _______ _______ _____ _____    ______ ____
ROOT
ATOM      1  C   LIG    1       26.316 -20.456   7.903  0.00  0.00    +0.161 C 
ENDROOT
BRANCH   1   2
ATOM      2  C   LIG    1       25.485 -21.658   7.486  0.00  0.00    -0.018 A 
ATOM      3  C   LIG    1       24.097 -21.533   7.325  0.00  0.00    +0.010 A 
ATOM      4  C   LIG    1       23.322 -22.628   6.940  0.00  0.00    +0.046 A 
ATOM      5  C   LIG    1       23.933 -23.858   6.712  0.00  0.00    +0.117 A 
ATOM      6  C   LIG    1       25.305 -24.008   6.868  0.00  0.00    +0.046 A 
ATOM      7  C   LIG    1       26.081 -22.911   7.254  0.00  0.00    +0.010 A 
BRANCH   5   8
ATOM      8  O   LIG    1       23.138 -24.898   6.336  0.00  0.00    -0.507 OA
ATOM      9  H   LIG    1       22.792 -24.719   5.446  0.00  0.00    +0.292 HD
ENDBRANCH   5   8
ENDBRANCH   1   2
BRANCH   1  10
ATOM     10  C   LIG    1       27.803 -20.500   7.423  0.00  0.00    +0.083 C 
ATOM     11  C   LIG    1       27.965 -19.998   5.985  0.00  0.00    +0.027 C 
BRANCH  10  13
ATOM     12  C   LIG    1       30.155 -19.923   7.955  0.00  0.00    +0.101 C 
ATOM     13  N   LIG    1       28.754 -19.820   8.341  0.00  0.00    -0.314 NA
ATOM     14  H   LIG    1       28.496 -18.830   8.352  0.00  0.00    +0.122 HD
ENDBRANCH  10  13
ENDBRANCH   1  10
BRANCH   1  15
ATOM     15  O   LIG    1       26.280 -20.351   9.335  0.00  0.00    -0.386 OA
ATOM     16  H   LIG    1       25.749 -19.562   9.545  0.00  0.00    +0.210 HD
ENDBRANCH   1  15
TORSDOF 5
ENDMDL
MODEL 3
REMARK VINA RESULT:      -6.8      4.078      5.742
REMARK  Name = *****
REMARK                            x       y       z     vdW  Elec       q    Type
REMARK                         _______ _______ _______ _____ _____    ______ ____
ROOT
ATOM      1  C   LIG    1       30.724 -18.781   9.129  0.00  0.00    +0.161 C 
ENDROOT
BRANCH   1   2
ATOM      2  C   LIG    1       29.837 -19.124   7.945  0.00  0.00    -0.018 A 
ATOM      3  C   LIG    1       28.811 -20.072   8.084  0.00  0.00    +0.010 A 
ATOM      4  C   LIG    1       27.987 -20.394   7.006  0.00  0.00    +0.046 A 
ATOM      5  C   LIG    1       28.183 -19.769   5.777  0.00  0.00    +0.117 A 
ATOM      6  C   LIG    1       29.194 -18.830   5.613  0.00  0.00    +0.046 A 
ATOM      7  C   LIG    1       30.019 -18.507   6.694  0.00  0.00    +0.010 A 
BRANCH   5   8
ATOM      8  O   LIG    1       27.354 -20.114   4.753  0.00  0.00    -0.507 OA
ATOM      9  H   LIG    1       26.901 -19.314   4.437  0.00  0.00    +0.292 HD
ENDBRANCH   5   8
ENDBRANCH   1   2
BRANCH   1  10
ATOM     10  C   LIG    1       30.976 -17.251   9.327  0.00  0.00    +0.083 C 
ATOM     11  C   LIG    1       30.678 -16.793  10.758  0.00  0.00    +0.027 C 
BRANCH  10  13
ATOM     12  C   LIG    1       33.003 -15.909   9.816  0.00  0.00    +0.101 C 
ATOM     13  N   LIG    1       32.320 -16.798   8.884  0.00  0.00    -0.314 NA
ATOM     14  H   LIG    1       32.891 -17.640   8.767  0.00  0.00    +0.122 HD
ENDBRANCH  10  13
ENDBRANCH   1  10
BRANCH   1  15
ATOM     15  O   LIG    1       31.983 -19.454   8.966  0.00  0.00    -0.386 OA
ATOM     16  H   LIG    1       32.582 -18.823   8.527  0.00  0.00    +0.210 HD
ENDBRANCH   1  15
TORSDOF 5
ENDMDL
MODEL 4
REMARK VINA RESULT:      -6.7      1.433      2.410
REMARK  Name = *****
REMARK                            x       y       z     vdW  Elec       q    Type
REMARK                         _______ _______ _______ _____ _____    ______ ____
ROOT
ATOM      1  C   LIG    1       25.362 -21.122   7.931  0.00  0.00    +0.161 C 
ENDROOT
BRANCH   1   2
ATOM      2  C   LIG    1       24.948 -22.484   7.404  0.00  0.00    -0.018 A 
ATOM      3  C   LIG    1       23.608 -22.732   7.069  0.00  0.00    +0.010 A 
ATOM      4  C   LIG    1       23.213 -23.979   6.582  0.00  0.00    +0.046 A 
ATOM      5  C   LIG    1       24.159 -24.989   6.426  0.00  0.00    +0.117 A 
ATOM      6  C   LIG    1       25.491 -24.769   6.754  0.00  0.00    +0.046 A 
ATOM      7  C   LIG    1       25.885 -23.521   7.243  0.00  0.00    +0.010 A 
BRANCH   5   8
ATOM      8  O   LIG    1       23.729 -26.189   5.946  0.00  0.00    -0.507 OA
ATOM      9  H   LIG    1       23.678 -26.819   6.684  0.00  0.00    +0.292 HD
ENDBRANCH   5   8
ENDBRANCH   1   2
BRANCH   1  10
ATOM     10  C   LIG    1       26.424 -20.385   7.052  0.00  0.00    +0.083 C 
ATOM     11  C   LIG    1       27.822 -20.418   7.678  0.00  0.00    +0.027 C 
BRANCH  10  13
ATOM     12  C   LIG    1       25.597 -20.084   4.734  0.00  0.00    +0.101 C 
ATOM     13  N   LIG    1       26.457 -20.837   5.636  0.00  0.00    -0.314 NA
ATOM     14  H   LIG    1       27.425 -20.735   5.317  0.00  0.00    +0.122 HD
ENDBRANCH  10  13
ENDBRANCH   1  10
BRANCH   1  15
ATOM     15  O   LIG    1       25.876 -21.284   9.263  0.00  0.00    -0.386 OA
ATOM     16  H   LIG    1       25.149 -21.643   9.801  0.00  0.00    +0.210 HD
ENDBRANCH   1  15
TORSDOF 5
ENDMDL
MODEL 5
REMARK VINA RESULT:      -6.6      3.915      5.602
REMARK  Name = *****
REMARK                            x       y       z     vdW  Elec       q    Type
REMARK                         _______ _______ _______ _____ _____    ______ ____
ROOT
ATOM      1  C   LIG    1       23.637 -23.403   6.607  0.00  0.00    +0.161 C 
ENDROOT
BRANCH   1   2
ATOM      2  C   LIG    1       23.683 -22.107   5.817  0.00  0.00    -0.018 A 
ATOM      3  C   LIG    1       22.668 -21.150   5.972  0.00  0.00    +0.010 A 
ATOM      4  C   LIG    1       22.700 -19.955   5.254  0.00  0.00    +0.046 A 
ATOM      5  C   LIG    1       23.750 -19.706   4.374  0.00  0.00    +0.117 A 
ATOM      6  C   LIG    1       24.764 -20.639   4.200  0.00  0.00    +0.046 A 
ATOM      7  C   LIG    1       24.732 -21.837   4.919  0.00  0.00    +0.010 A 
BRANCH   5   8
ATOM      8  O   LIG    1       23.740 -18.525   3.696  0.00  0.00    -0.507 OA
ATOM      9  H   LIG    1       23.275 -17.862   4.233  0.00  0.00    +0.292 HD
ENDBRANCH   5   8
ENDBRANCH   1   2
BRANCH   1  10
ATOM     10  C   LIG    1       24.481 -24.567   5.992  0.00  0.00    +0.083 C 
ATOM     11  C   LIG    1       25.714 -24.901   6.838  0.00  0.00    +0.027 C 
BRANCH  10  13
ATOM     12  C   LIG    1       24.399 -27.043   5.900  0.00  0.00    +0.101 C 
ATOM     13  N   LIG    1       23.692 -25.788   5.684  0.00  0.00    -0.314 NA
ATOM     14  H   LIG    1       22.872 -25.771   6.298  0.00  0.00    +0.122 HD
ENDBRANCH  10  13
ENDBRANCH   1  10
BRANCH   1  15
ATOM     15  O   LIG    1       22.266 -23.818   6.723  0.00  0.00    -0.386 OA
ATOM     16  H   LIG    1       21.724 -23.099   6.353  0.00  0.00    +0.210 HD
ENDBRANCH   1  15
TORSDOF 5
ENDMDL
MODEL 6
REMARK VINA RESULT:      -6.5      2.902      5.867
REMARK  Name = *****
REMARK                            x       y       z     vdW  Elec       q    Type
REMARK                         _______ _______ _______ _____ _____    ______ ____
ROOT
ATOM      1  C   LIG    1       27.299 -20.150   6.286  0.00  0.00    +0.161 C 
ENDROOT
BRANCH   1   2
ATOM      2  C   LIG    1       28.601 -20.203   7.065  0.00  0.00    -0.018 A 
ATOM      3  C   LIG    1       28.992 -21.389   7.706  0.00  0.00    +0.010 A 
ATOM      4  C   LIG    1       30.187 -21.452   8.424  0.00  0.00    +0.046 A 
ATOM      5  C   LIG    1       31.002 -20.326   8.504  0.00  0.00    +0.117 A 
ATOM      6  C   LIG    1       30.637 -19.140   7.882  0.00  0.00    +0.046 A 
ATOM      7  C   LIG    1       29.439 -19.077   7.163  0.00  0.00    +0.010 A 
BRANCH   5   8
ATOM      8  O   LIG    1       32.160 -20.435   9.214  0.00  0.00    -0.507 OA
ATOM      9  H   LIG    1       32.607 -19.572   9.212  0.00  0.00    +0.292 HD
ENDBRANCH   5   8
ENDBRANCH   1   2
BRANCH   1  10
ATOM     10  C   LIG    1       26.264 -21.253   6.679  0.00  0.00    +0.083 C 
ATOM     11  C   LIG    1       25.330 -20.799   7.806  0.00  0.00    +0.027 C 
BRANCH  10  13
ATOM     12  C   LIG    1       24.900 -23.108   5.760  0.00  0.00    +0.101 C 
ATOM     13  N   LIG    1       25.496 -21.799   5.530  0.00  0.00    -0.314 NA
ATOM     14  H   LIG    1       24.743 -21.133   5.336  0.00  0.00    +0.122 HD
ENDBRANCH  10  13
ENDBRANCH   1  10
BRANCH   1  15
ATOM     15  O   LIG    1       27.601 -20.258   4.885  0.00  0.00    -0.386 OA
ATOM     16  H   LIG    1       27.563 -19.356   4.521  0.00  0.00    +0.210 HD
ENDBRANCH   1  15
TORSDOF 5
ENDMDL
MODEL 7
REMARK VINA RESULT:      -6.4      2.377      5.281
REMARK  Name = *****
REMARK                            x       y       z     vdW  Elec       q    Type
REMARK                         _______ _______ _______ _____ _____    ______ ____
ROOT
ATOM      1  C   LIG    1       26.531 -21.497   8.218  0.00  0.00    +0.161 C 
ENDROOT
BRANCH   1   2
ATOM      2  C   LIG    1       27.461 -20.597   7.423  0.00  0.00    -0.018 A 
ATOM      3  C   LIG    1       28.616 -20.071   8.023  0.00  0.00    +0.010 A 
ATOM      4  C   LIG    1       29.479 -19.245   7.303  0.00  0.00    +0.046 A 
ATOM      5  C   LIG    1       29.194 -18.938   5.976  0.00  0.00    +0.117 A 
ATOM      6  C   LIG    1       28.056 -19.443   5.361  0.00  0.00    +0.046 A 
ATOM      7  C   LIG    1       27.190 -20.271   6.081  0.00  0.00    +0.010 A 
BRANCH   5   8
ATOM      8  O   LIG    1       30.067 -18.130   5.313  0.00  0.00    -0.507 OA
ATOM      9  H   LIG    1       30.169 -17.304   5.815  0.00  0.00    +0.292 HD
ENDBRANCH   5   8
ENDBRANCH   1   2
BRANCH   1  10
ATOM     10  C   LIG    1       25.374 -22.133   7.381  0.00  0.00    +0.083 C 
ATOM     11  C   LIG    1       25.511 -23.654   7.260  0.00  0.00    +0.027 C 
BRANCH  10  13
ATOM     12  C   LIG    1       23.305 -20.836   6.954  0.00  0.00    +0.101 C 
ATOM     13  N   LIG    1       24.014 -21.749   7.840  0.00  0.00    -0.314 NA
ATOM     14  H   LIG    1       23.472 -22.615   7.909  0.00  0.00    +0.122 HD
ENDBRANCH  10  13
ENDBRANCH   1  10
BRANCH   1  15
ATOM     15  O   LIG    1       25.972 -20.735   9.300  0.00  0.00    -0.386 OA
ATOM     16  H   LIG    1       26.591 -20.816  10.048  0.00  0.00    +0.210 HD
ENDBRANCH   1  15
TORSDOF 5
ENDMDL
MODEL 8
REMARK VINA RESULT:      -6.4      2.148      2.466
REMARK  Name = *****
REMARK                            x       y       z     vdW  Elec       q    Type
REMARK                         _______ _______ _______ _____ _____    ______ ____
ROOT
ATOM      1  C   LIG    1       27.020 -20.392   7.599  0.00  0.00    +0.161 C 
ENDROOT
BRANCH   1   2
ATOM      2  C   LIG    1       25.704 -20.642   6.883  0.00  0.00    -0.018 A 
ATOM      3  C   LIG    1       24.542 -20.920   7.621  0.00  0.00    +0.010 A 
ATOM      4  C   LIG    1       23.326 -21.149   6.977  0.00  0.00    +0.046 A 
ATOM      5  C   LIG    1       23.263 -21.101   5.587  0.00  0.00    +0.117 A 
ATOM      6  C   LIG    1       24.399 -20.831   4.834  0.00  0.00    +0.046 A 
ATOM      7  C   LIG    1       25.617 -20.602   5.480  0.00  0.00    +0.010 A 
BRANCH   5   8
ATOM      8  O   LIG    1       22.054 -21.330   5.001  0.00  0.00    -0.507 OA
ATOM      9  H   LIG    1       21.524 -20.517   5.056  0.00  0.00    +0.292 HD
ENDBRANCH   5   8
ENDBRANCH   1   2
BRANCH   1  10
ATOM     10  C   LIG    1       28.290 -20.646   6.724  0.00  0.00    +0.083 C 
ATOM     11  C   LIG    1       28.802 -19.366   6.055  0.00  0.00    +0.027 C 
BRANCH  10  13
ATOM     12  C   LIG    1       30.404 -20.487   8.010  0.00  0.00    +0.101 C 
ATOM     13  N   LIG    1       29.384 -21.355   7.438  0.00  0.00    -0.314 NA
ATOM     14  H   LIG    1       28.945 -21.880   8.200  0.00  0.00    +0.122 HD
ENDBRANCH  10  13
ENDBRANCH   1  10
BRANCH   1  15
ATOM     15  O   LIG    1       27.071 -21.228   8.766  0.00  0.00    -0.386 OA
ATOM     16  H   LIG    1       27.446 -20.685   9.483  0.00  0.00    +0.210 HD
ENDBRANCH   1  15
TORSDOF 5
ENDMDL
MODEL 9
REMARK VINA RESULT:      -6.4      2.804      5.339
REMARK  Name = *****
REMARK                            x       y       z     vdW  Elec       q    Type
REMARK                         _______ _______ _______ _____ _____    ______ ____
ROOT
ATOM      1  C   LIG    1       24.633 -20.947   5.051  0.00  0.00    +0.161 C 
ENDROOT
BRANCH   1   2
ATOM      2  C   LIG    1       25.797 -20.650   5.979  0.00  0.00    -0.018 A 
ATOM      3  C   LIG    1       27.027 -20.224   5.454  0.00  0.00    +0.010 A 
ATOM      4  C   LIG    1       28.104 -19.946   6.296  0.00  0.00    +0.046 A 
ATOM      5  C   LIG    1       27.958 -20.090   7.673  0.00  0.00    +0.117 A 
ATOM      6  C   LIG    1       26.752 -20.514   8.217  0.00  0.00    +0.046 A 
ATOM      7  C   LIG    1       25.674 -20.793   7.374  0.00  0.00    +0.010 A 
BRANCH   5   8
ATOM      8  O   LIG    1       29.035 -19.805   8.456  0.00  0.00    -0.507 OA
ATOM      9  H   LIG    1       29.404 -18.950   8.179  0.00  0.00    +0.292 HD
ENDBRANCH   5   8
ENDBRANCH   1   2
BRANCH   1  10
ATOM     10  C   LIG    1       23.226 -20.846   5.724  0.00  0.00    +0.083 C 
ATOM     11  C   LIG    1       22.401 -19.678   5.175  0.00  0.00    +0.027 C 
BRANCH  10  13
ATOM     12  C   LIG    1       22.707 -23.012   6.814  0.00  0.00    +0.101 C 
ATOM     13  N   LIG    1       22.450 -22.113   5.697  0.00  0.00    -0.314 NA
ATOM     14  H   LIG    1       21.460 -21.852   5.716  0.00  0.00    +0.122 HD
ENDBRANCH  10  13
ENDBRANCH   1  10
BRANCH   1  15
ATOM     15  O   LIG    1       24.807 -22.266   4.508  0.00  0.00    -0.386 OA
ATOM     16  H   LIG    1       25.602 -22.234   3.945  0.00  0.00    +0.210 HD
ENDBRANCH   1  15
TORSDOF 5
ENDMDL
