MODEL 1
REMARK VINA RESULT:       7.5      0.000      0.000
REMARK  Name = *****
REMARK                            x       y       z     vdW  Elec       q    Type
REMARK                         _______ _______ _______ _____ _____    ______ ____
ROOT
ATOM      1  C   LIG    1       25.490 -15.659   3.263  0.00  0.00    -0.021 C 
ATOM      2  C   LIG    1       24.931 -16.781   3.722  0.00  0.00    -0.035 C 
ATOM      3  C   LIG    1       25.556 -18.170   3.623  0.00  0.00    +0.059 C 
ATOM      4  C   LIG    1       24.679 -19.242   2.930  0.00  0.00    +0.085 C 
ATOM      5  C   LIG    1       25.243 -20.635   3.172  0.00  0.00    -0.011 C 
ATOM      6  C   LIG    1       26.072 -20.919   4.156  0.00  0.00    +0.009 C 
ATOM      7  C   LIG    1       26.529 -19.907   5.126  0.00  0.00    +0.051 C 
ATOM      8  S   LIG    1       22.923 -19.323   3.422  0.00  0.00    -0.116 S 
ATOM      9  C   LIG    1       22.654 -17.762   4.237  0.00  0.00    +0.016 A 
ATOM     10  C   LIG    1       21.385 -17.624   4.831  0.00  0.00    +0.015 A 
ATOM     11  C   LIG    1       21.027 -16.460   5.505  0.00  0.00    +0.001 A 
ATOM     12  C   LIG    1       21.926 -15.413   5.599  0.00  0.00    +0.001 A 
ATOM     13  C   LIG    1       23.189 -15.538   5.015  0.00  0.00    +0.009 A 
ATOM     14  C   LIG    1       26.224 -18.616   4.906  0.00  0.00    -0.005 C 
ATOM     15  C   LIG    1       23.571 -16.709   4.328  0.00  0.00    -0.008 A 
ENDROOT
BRANCH   7  16
ATOM     16  C   LIG    1       27.442 -20.347   6.248  0.00  0.00    +0.417 C 
ATOM     17  F   LIG    1       28.558 -20.965   5.789  0.00  0.00    -0.166 F 
ATOM     18  F   LIG    1       26.806 -21.235   7.060  0.00  0.00    -0.166 F 
ATOM     19  F   LIG    1       27.852 -19.327   7.045  0.00  0.00    -0.166 F 
ENDBRANCH   7  16
BRANCH   1  20
ATOM     20  C   LIG    1       26.773 -15.566   2.485  0.00  0.00    +0.043 C 
BRANCH  20  21
ATOM     21  C   LIG    1       27.905 -14.750   3.118  0.00  0.00    +0.088 C 
BRANCH  21  25
ATOM     22  N   LIG    1       24.917 -12.928   4.790  0.00  0.00    -0.298 NA
ATOM     23  C   LIG    1       25.054 -13.035   3.329  0.00  0.00    +0.100 C 
ATOM     24  C   LIG    1       26.467 -12.764   2.746  0.00  0.00    +0.100 C 
ATOM     25  N   LIG    1       27.601 -13.356   3.480  0.00  0.00    -0.300 NA
ATOM     26  C   LIG    1       27.460 -13.163   4.928  0.00  0.00    +0.100 C 
ATOM     27  C   LIG    1       26.064 -13.497   5.513  0.00  0.00    +0.100 C 
BRANCH  22  28
ATOM     28  C   LIG    1       24.587 -11.574   5.248  0.00  0.00    +0.112 C 
BRANCH  28  29
ATOM     29  C   LIG    1       23.600 -11.447   6.413  0.00  0.00    +0.171 C 
BRANCH  29  30
ATOM     30  O   LIG    1       22.255 -11.614   5.999  0.00  0.00    -0.394 OA
ATOM     31  H   LIG    1       22.310 -11.768   5.037  0.00  0.00    +0.209 HD
ENDBRANCH  29  30
ENDBRANCH  28  29
ENDBRANCH  22  28
ENDBRANCH  21  25
ENDBRANCH  20  21
ENDBRANCH   1  20
TORSDOF 7
ENDMDL
MODEL 2
REMARK VINA RESULT:       7.6      4.067      7.073
REMARK  Name = *****
REMARK                            x       y       z     vdW  Elec       q    Type
REMARK                         _______ _______ _______ _____ _____    ______ ____
ROOT
ATOM      1  C   LIG    1       27.224 -16.676   3.683  0.00  0.00    -0.021 C 
ATOM      2  C   LIG    1       26.551 -15.523   3.668  0.00  0.00    -0.035 C 
ATOM      3  C   LIG    1       25.040 -15.398   3.501  0.00  0.00    +0.059 C 
ATOM      4  C   LIG    1       24.576 -14.491   2.335  0.00  0.00    +0.085 C 
ATOM      5  C   LIG    1       23.092 -14.178   2.457  0.00  0.00    -0.011 C 
ATOM      6  C   LIG    1       22.418 -14.291   3.583  0.00  0.00    +0.009 C 
ATOM      7  C   LIG    1       23.047 -14.729   4.843  0.00  0.00    +0.051 C 
ATOM      8  S   LIG    1       25.413 -12.879   2.155  0.00  0.00    -0.116 S 
ATOM      9  C   LIG    1       26.886 -13.071   3.137  0.00  0.00    +0.016 A 
ATOM     10  C   LIG    1       27.659 -11.900   3.266  0.00  0.00    +0.015 A 
ATOM     11  C   LIG    1       28.839 -11.894   4.004  0.00  0.00    +0.001 A 
ATOM     12  C   LIG    1       29.271 -13.051   4.625  0.00  0.00    +0.001 A 
ATOM     13  C   LIG    1       28.513 -14.219   4.506  0.00  0.00    +0.009 A 
ATOM     14  C   LIG    1       24.310 -15.188   4.811  0.00  0.00    -0.005 C 
ATOM     15  C   LIG    1       27.314 -14.246   3.763  0.00  0.00    -0.008 A 
ENDROOT
BRANCH   7  16
ATOM     16  C   LIG    1       22.196 -14.777   6.092  0.00  0.00    +0.417 C 
ATOM     17  F   LIG    1       22.750 -15.546   7.062  0.00  0.00    -0.166 F 
ATOM     18  F   LIG    1       20.975 -15.311   5.818  0.00  0.00    -0.166 F 
ATOM     19  F   LIG    1       21.965 -13.556   6.638  0.00  0.00    -0.166 F 
ENDBRANCH   7  16
BRANCH   1  20
ATOM     20  C   LIG    1       26.644 -18.042   3.440  0.00  0.00    +0.043 C 
BRANCH  20  21
ATOM     21  C   LIG    1       26.828 -19.077   4.554  0.00  0.00    +0.088 C 
BRANCH  21  25
ATOM     22  N   LIG    1       23.432 -20.298   5.974  0.00  0.00    -0.298 NA
ATOM     23  C   LIG    1       24.712 -20.591   6.638  0.00  0.00    +0.100 C 
ATOM     24  C   LIG    1       25.877 -21.048   5.720  0.00  0.00    +0.100 C 
ATOM     25  N   LIG    1       26.037 -20.314   4.452  0.00  0.00    -0.300 NA
ATOM     26  C   LIG    1       24.744 -20.108   3.787  0.00  0.00    +0.100 C 
ATOM     27  C   LIG    1       23.601 -19.589   4.697  0.00  0.00    +0.100 C 
BRANCH  22  28
ATOM     28  C   LIG    1       22.558 -21.471   5.848  0.00  0.00    +0.112 C 
BRANCH  28  29
ATOM     29  C   LIG    1       21.673 -21.556   4.601  0.00  0.00    +0.171 C 
BRANCH  29  30
ATOM     30  O   LIG    1       20.738 -20.494   4.531  0.00  0.00    -0.394 OA
ATOM     31  H   LIG    1       20.027 -20.749   5.149  0.00  0.00    +0.209 HD
ENDBRANCH  29  30
ENDBRANCH  28  29
ENDBRANCH  22  28
ENDBRANCH  21  25
ENDBRANCH  20  21
ENDBRANCH   1  20
TORSDOF 7
ENDMDL
MODEL 3
REMARK VINA RESULT:       9.7      2.057      3.266
REMARK  Name = *****
REMARK                            x       y       z     vdW  Elec       q    Type
REMARK                         _______ _______ _______ _____ _____    ______ ____
ROOT
ATOM      1  C   LIG    1       23.096 -17.030   4.454  0.00  0.00    -0.021 C 
ATOM      2  C   LIG    1       23.546 -18.266   4.226  0.00  0.00    -0.035 C 
ATOM      3  C   LIG    1       25.004 -18.626   3.953  0.00  0.00    +0.059 C 
ATOM      4  C   LIG    1       25.258 -19.403   2.638  0.00  0.00    +0.085 C 
ATOM      5  C   LIG    1       26.663 -19.987   2.623  0.00  0.00    -0.011 C 
ATOM      6  C   LIG    1       27.381 -20.174   3.712  0.00  0.00    +0.009 C 
ATOM      7  C   LIG    1       26.882 -19.839   5.058  0.00  0.00    +0.051 C 
ATOM      8  S   LIG    1       24.136 -20.794   2.267  0.00  0.00    -0.116 S 
ATOM      9  C   LIG    1       22.753 -20.506   3.352  0.00  0.00    +0.016 A 
ATOM     10  C   LIG    1       21.785 -21.528   3.348  0.00  0.00    +0.015 A 
ATOM     11  C   LIG    1       20.647 -21.445   4.145  0.00  0.00    +0.001 A 
ATOM     12  C   LIG    1       20.453 -20.344   4.959  0.00  0.00    +0.001 A 
ATOM     13  C   LIG    1       21.407 -19.323   4.972  0.00  0.00    +0.009 A 
ATOM     14  C   LIG    1       25.723 -19.166   5.171  0.00  0.00    -0.005 C 
ATOM     15  C   LIG    1       22.566 -19.389   4.172  0.00  0.00    -0.008 A 
ENDROOT
BRANCH   7  16
ATOM     16  C   LIG    1       27.766 -20.139   6.248  0.00  0.00    +0.417 C 
ATOM     17  F   LIG    1       28.991 -20.586   5.877  0.00  0.00    -0.166 F 
ATOM     18  F   LIG    1       27.211 -21.110   7.023  0.00  0.00    -0.166 F 
ATOM     19  F   LIG    1       27.963 -19.069   7.060  0.00  0.00    -0.166 F 
ENDBRANCH   7  16
BRANCH   1  20
ATOM     20  C   LIG    1       23.908 -15.767   4.386  0.00  0.00    +0.043 C 
BRANCH  20  21
ATOM     21  C   LIG    1       23.224 -14.540   3.774  0.00  0.00    +0.088 C 
BRANCH  21  25
ATOM     22  N   LIG    1       27.015 -13.761   3.531  0.00  0.00    -0.298 NA
ATOM     23  C   LIG    1       26.290 -13.741   4.811  0.00  0.00    +0.100 C 
ATOM     24  C   LIG    1       24.905 -13.039   4.809  0.00  0.00    +0.100 C 
ATOM     25  N   LIG    1       24.033 -13.317   3.653  0.00  0.00    -0.300 NA
ATOM     26  C   LIG    1       24.782 -13.255   2.392  0.00  0.00    +0.100 C 
ATOM     27  C   LIG    1       26.134 -14.012   2.380  0.00  0.00    +0.100 C 
BRANCH  22  28
ATOM     28  C   LIG    1       27.874 -12.588   3.328  0.00  0.00    +0.112 C 
BRANCH  28  29
ATOM     29  C   LIG    1       29.181 -12.528   4.126  0.00  0.00    +0.171 C 
BRANCH  29  30
ATOM     30  O   LIG    1       29.070 -11.710   5.278  0.00  0.00    -0.394 OA
ATOM     31  H   LIG    1       28.133 -11.443   5.303  0.00  0.00    +0.209 HD
ENDBRANCH  29  30
ENDBRANCH  28  29
ENDBRANCH  22  28
ENDBRANCH  21  25
ENDBRANCH  20  21
ENDBRANCH   1  20
TORSDOF 7
ENDMDL
