MODEL 1
REMARK VINA RESULT:      -0.0      0.000      0.000
REMARK  Name = *****
REMARK                            x       y       z     vdW  Elec       q    Type
REMARK                         _______ _______ _______ _____ _____    ______ ____
ROOT
ATOM      1  C   LIG    1       26.884 -17.506   3.804  0.00  0.00    +0.245 C 
ATOM      2  N   LIG    1       27.808 -17.981   4.674  0.00  0.00    -0.307 N 
ATOM      3  H   LIG    1       28.420 -17.373   5.221  0.00  0.00    +0.149 HD
ATOM      4  O   LIG    1       26.080 -18.208   3.212  0.00  0.00    -0.270 OA
ENDROOT
BRANCH   1   9
ATOM      5  C   LIG    1       28.079 -13.911   3.910  0.00  0.00    +0.166 A 
ATOM      6  C   LIG    1       27.034 -13.215   3.244  0.00  0.00    +0.203 A 
ATOM      7  C   LIG    1       25.924 -13.937   2.768  0.00  0.00    +0.166 A 
ATOM      8  C   LIG    1       25.809 -15.298   3.065  0.00  0.00    +0.062 A 
ATOM      9  C   LIG    1       26.872 -16.002   3.633  0.00  0.00    +0.044 A 
ATOM     10  C   LIG    1       28.006 -15.293   4.035  0.00  0.00    +0.062 A 
BRANCH   5  12
ATOM     11  C   LIG    1       28.976 -12.385   5.577  0.00  0.00    +0.277 C 
ATOM     12  O   LIG    1       29.124 -13.159   4.388  0.00  0.00    -0.491 OA
ENDBRANCH   5  12
BRANCH   6  13
ATOM     13  O   LIG    1       27.252 -11.868   3.059  0.00  0.00    -0.488 OA
ATOM     14  C   LIG    1       28.529 -11.450   2.596  0.00  0.00    +0.277 C 
ENDBRANCH   6  13
BRANCH   7  15
ATOM     15  O   LIG    1       24.969 -13.325   1.992  0.00  0.00    -0.491 OA
ATOM     16  C   LIG    1       24.056 -12.470   2.691  0.00  0.00    +0.277 C 
ENDBRANCH   7  15
ENDBRANCH   1   9
BRANCH   2  17
ATOM     17  C   LIG    1       27.917 -19.387   4.977  0.00  0.00    +0.140 C 
BRANCH  17  18
ATOM     18  C   LIG    1       26.565 -19.969   5.293  0.00  0.00    -0.030 A 
ATOM     19  C   LIG    1       25.806 -20.570   4.276  0.00  0.00    +0.009 A 
ATOM     20  C   LIG    1       24.558 -21.135   4.550  0.00  0.00    +0.046 A 
ATOM     21  C   LIG    1       24.023 -21.077   5.835  0.00  0.00    +0.121 A 
ATOM     22  C   LIG    1       24.774 -20.479   6.852  0.00  0.00    +0.046 A 
ATOM     23  C   LIG    1       26.035 -19.929   6.586  0.00  0.00    +0.009 A 
BRANCH  21  24
ATOM     24  O   LIG    1       22.794 -21.561   6.204  0.00  0.00    -0.491 OA
BRANCH  24  25
ATOM     25  C   LIG    1       21.751 -21.481   5.218  0.00  0.00    +0.244 C 
BRANCH  25  26
ATOM     26  C   LIG    1       22.054 -20.317   4.251  0.00  0.00    +0.124 C 
BRANCH  26  27
ATOM     27  N   LIG    1       21.250 -19.088   4.448  0.00  0.00    -0.305 NA
ATOM     28  C   LIG    1       20.401 -18.870   3.268  0.00  0.00    +0.104 C 
ATOM     29  C   LIG    1       22.101 -17.912   4.649  0.00  0.00    +0.104 C 
ENDBRANCH  26  27
ENDBRANCH  25  26
ENDBRANCH  24  25
ENDBRANCH  21  24
ENDBRANCH  17  18
ENDBRANCH   2  17
TORSDOF 10
ENDMDL
MODEL 2
REMARK VINA RESULT:       2.0      2.126      7.849
REMARK  Name = *****
REMARK                            x       y       z     vdW  Elec       q    Type
REMARK                         _______ _______ _______ _____ _____    ______ ____
ROOT
ATOM      1  C   LIG    1       24.500 -17.810   3.855  0.00  0.00    +0.245 C 
ATOM      2  N   LIG    1       23.560 -17.100   4.526  0.00  0.00    -0.307 N 
ATOM      3  H   LIG    1       23.376 -17.225   5.522  0.00  0.00    +0.149 HD
ATOM      4  O   LIG    1       24.802 -17.610   2.689  0.00  0.00    -0.270 OA
ENDROOT
BRANCH   1   9
ATOM      5  C   LIG    1       27.327 -19.722   5.503  0.00  0.00    +0.166 A 
ATOM      6  C   LIG    1       26.637 -20.703   6.266  0.00  0.00    +0.203 A 
ATOM      7  C   LIG    1       25.230 -20.738   6.226  0.00  0.00    +0.166 A 
ATOM      8  C   LIG    1       24.545 -19.896   5.346  0.00  0.00    +0.062 A 
ATOM      9  C   LIG    1       25.209 -18.871   4.669  0.00  0.00    +0.044 A 
ATOM     10  C   LIG    1       26.599 -18.790   4.772  0.00  0.00    +0.062 A 
BRANCH   5  12
ATOM     11  C   LIG    1       29.449 -18.537   5.572  0.00  0.00    +0.277 C 
ATOM     12  O   LIG    1       28.699 -19.749   5.546  0.00  0.00    -0.491 OA
ENDBRANCH   5  12
BRANCH   6  13
ATOM     13  O   LIG    1       27.435 -21.501   7.054  0.00  0.00    -0.488 OA
ATOM     14  C   LIG    1       28.846 -21.390   6.914  0.00  0.00    +0.277 C 
ENDBRANCH   6  13
BRANCH   7  15
ATOM     15  O   LIG    1       24.526 -21.571   7.062  0.00  0.00    -0.491 OA
ATOM     16  C   LIG    1       23.099 -21.491   6.960  0.00  0.00    +0.277 C 
ENDBRANCH   7  15
ENDBRANCH   1   9
BRANCH   2  17
ATOM     17  C   LIG    1       22.828 -16.026   3.901  0.00  0.00    +0.140 C 
BRANCH  17  18
ATOM     18  C   LIG    1       23.758 -14.915   3.491  0.00  0.00    -0.030 A 
ATOM     19  C   LIG    1       23.376 -13.577   3.678  0.00  0.00    +0.009 A 
ATOM     20  C   LIG    1       24.231 -12.530   3.325  0.00  0.00    +0.046 A 
ATOM     21  C   LIG    1       25.468 -12.794   2.740  0.00  0.00    +0.121 A 
ATOM     22  C   LIG    1       25.853 -14.126   2.551  0.00  0.00    +0.046 A 
ATOM     23  C   LIG    1       25.007 -15.179   2.922  0.00  0.00    +0.009 A 
BRANCH  21  24
ATOM     24  O   LIG    1       26.364 -11.846   2.318  0.00  0.00    -0.491 OA
BRANCH  24  25
ATOM     25  C   LIG    1       27.643 -11.836   2.974  0.00  0.00    +0.244 C 
BRANCH  25  26
ATOM     26  C   LIG    1       27.921 -13.232   3.567  0.00  0.00    +0.124 C 
BRANCH  26  27
ATOM     27  N   LIG    1       28.524 -13.251   4.921  0.00  0.00    -0.305 NA
ATOM     28  C   LIG    1       27.519 -13.704   5.894  0.00  0.00    +0.104 C 
ATOM     29  C   LIG    1       29.009 -11.927   5.316  0.00  0.00    +0.104 C 
ENDBRANCH  26  27
ENDBRANCH  25  26
ENDBRANCH  24  25
ENDBRANCH  21  24
ENDBRANCH  17  18
ENDBRANCH   2  17
TORSDOF 10
ENDMDL
