MODEL 1
REMARK VINA RESULT:       0.7      0.000      0.000
REMARK  Name = *****
REMARK                            x       y       z     vdW  Elec       q    Type
REMARK                         _______ _______ _______ _____ _____    ______ ____
ROOT
ATOM      1  C   LIG    1       23.220 -16.175   4.159  0.00  0.00    +0.213 C 
ATOM      2  C   LIG    1       24.435 -16.998   3.738  0.00  0.00    +0.015 A 
ATOM      3  C   LIG    1       25.789 -16.571   3.729  0.00  0.00    +0.050 A 
ATOM      4  C   LIG    1       26.769 -17.511   3.333  0.00  0.00    +0.024 A 
ATOM      5  C   LIG    1       26.450 -18.813   2.943  0.00  0.00    +0.002 A 
ATOM      6  C   LIG    1       25.129 -19.220   2.930  0.00  0.00    +0.001 A 
ATOM      7  N   LIG    1       26.234 -15.224   4.033  0.00  0.00    -0.224 N 
ATOM      8  C   LIG    1       27.483 -14.986   4.635  0.00  0.00    +0.308 C 
ATOM      9  O   LIG    1       28.280 -15.825   5.049  0.00  0.00    -0.252 OA
ATOM     10  N   LIG    1       27.803 -13.673   4.851  0.00  0.00    -0.313 N 
ATOM     11  H   LIG    1       28.618 -13.528   5.431  0.00  0.00    +0.146 HD
ATOM     12  H   LIG    1       27.061 -12.994   4.937  0.00  0.00    +0.146 HD
ATOM     13  C   LIG    1       25.518 -14.184   3.363  0.00  0.00    +0.046 A 
ATOM     14  C   LIG    1       24.176 -13.936   3.669  0.00  0.00    -0.022 A 
ATOM     15  C   LIG    1       23.494 -12.895   3.021  0.00  0.00    +0.005 A 
ATOM     16  C   LIG    1       24.156 -12.084   2.100  0.00  0.00    +0.000 A 
ATOM     17  C   LIG    1       25.498 -12.309   1.812  0.00  0.00    +0.002 A 
ATOM     18  C   LIG    1       26.173 -13.359   2.434  0.00  0.00    +0.024 A 
ATOM     19  C   LIG    1       24.139 -18.324   3.321  0.00  0.00    +0.009 A 
ATOM     20  C   LIG    1       23.491 -14.777   4.704  0.00  0.00    +0.086 C 
ENDROOT
BRANCH   1  21
ATOM     21  O   LIG    1       22.507 -16.924   5.182  0.00  0.00    -0.456 OA
BRANCH  21  23
ATOM     22  C   LIG    1       22.433 -19.245   5.563  0.00  0.00    +0.136 C 
ATOM     23  C   LIG    1       21.921 -18.080   4.772  0.00  0.00    +0.304 C 
ATOM     24  O   LIG    1       21.104 -18.177   3.862  0.00  0.00    -0.251 OA
ENDBRANCH  21  23
ENDBRANCH   1  21
TORSDOF 2
ENDMDL
MODEL 2
REMARK VINA RESULT:       1.9      2.132      3.962
REMARK  Name = *****
REMARK                            x       y       z     vdW  Elec       q    Type
REMARK                         _______ _______ _______ _____ _____    ______ ____
ROOT
ATOM      1  C   LIG    1       25.674 -17.521   3.624  0.00  0.00    +0.213 C 
ATOM      2  C   LIG    1       24.299 -16.993   4.030  0.00  0.00    +0.015 A 
ATOM      3  C   LIG    1       23.833 -15.658   3.909  0.00  0.00    +0.050 A 
ATOM      4  C   LIG    1       22.504 -15.390   4.317  0.00  0.00    +0.024 A 
ATOM      5  C   LIG    1       21.663 -16.375   4.839  0.00  0.00    +0.002 A 
ATOM      6  C   LIG    1       22.127 -17.670   4.977  0.00  0.00    +0.001 A 
ATOM      7  N   LIG    1       24.636 -14.537   3.461  0.00  0.00    -0.224 N 
ATOM      8  C   LIG    1       24.063 -13.463   2.757  0.00  0.00    +0.308 C 
ATOM      9  O   LIG    1       22.903 -13.367   2.362  0.00  0.00    -0.252 OA
ATOM     10  N   LIG    1       24.917 -12.452   2.407  0.00  0.00    -0.313 N 
ATOM     11  H   LIG    1       24.530 -11.778   1.761  0.00  0.00    +0.146 HD
ATOM     12  H   LIG    1       25.903 -12.651   2.313  0.00  0.00    +0.146 HD
ATOM     13  C   LIG    1       25.916 -14.421   4.086  0.00  0.00    +0.046 A 
ATOM     14  C   LIG    1       26.910 -15.379   3.852  0.00  0.00    -0.022 A 
ATOM     15  C   LIG    1       28.169 -15.238   4.454  0.00  0.00    +0.005 A 
ATOM     16  C   LIG    1       28.449 -14.130   5.254  0.00  0.00    +0.000 A 
ATOM     17  C   LIG    1       27.474 -13.161   5.467  0.00  0.00    +0.002 A 
ATOM     18  C   LIG    1       26.212 -13.310   4.893  0.00  0.00    +0.024 A 
ATOM     19  C   LIG    1       23.426 -17.971   4.579  0.00  0.00    +0.009 A 
ATOM     20  C   LIG    1       26.616 -16.533   2.943  0.00  0.00    +0.086 C 
ENDROOT
BRANCH   1  21
ATOM     21  O   LIG    1       25.471 -18.643   2.721  0.00  0.00    -0.456 OA
BRANCH  21  23
ATOM     22  C   LIG    1       26.094 -20.030   4.516  0.00  0.00    +0.136 C 
ATOM     23  C   LIG    1       25.226 -19.843   3.309  0.00  0.00    +0.304 C 
ATOM     24  O   LIG    1       24.428 -20.682   2.904  0.00  0.00    -0.251 OA
ENDBRANCH  21  23
ENDBRANCH   1  21
TORSDOF 2
ENDMDL
MODEL 3
REMARK VINA RESULT:       2.4      2.702      5.247
REMARK  Name = *****
REMARK                            x       y       z     vdW  Elec       q    Type
REMARK                         _______ _______ _______ _____ _____    ______ ____
ROOT
ATOM      1  C   LIG    1       26.490 -15.732   3.773  0.00  0.00    +0.213 C 
ATOM      2  C   LIG    1       27.022 -17.090   4.225  0.00  0.00    +0.015 A 
ATOM      3  C   LIG    1       26.387 -18.348   4.061  0.00  0.00    +0.050 A 
ATOM      4  C   LIG    1       27.075 -19.494   4.525  0.00  0.00    +0.024 A 
ATOM      5  C   LIG    1       28.326 -19.424   5.142  0.00  0.00    +0.002 A 
ATOM      6  C   LIG    1       28.933 -18.194   5.321  0.00  0.00    +0.001 A 
ATOM      7  N   LIG    1       25.058 -18.540   3.513  0.00  0.00    -0.224 N 
ATOM      8  C   LIG    1       24.727 -19.698   2.786  0.00  0.00    +0.308 C 
ATOM      9  O   LIG    1       25.484 -20.606   2.451  0.00  0.00    -0.252 OA
ATOM     10  N   LIG    1       23.436 -19.776   2.340  0.00  0.00    -0.313 N 
ATOM     11  H   LIG    1       23.262 -20.525   1.682  0.00  0.00    +0.146 HD
ATOM     12  H   LIG    1       22.909 -18.925   2.204  0.00  0.00    +0.146 HD
ATOM     13  C   LIG    1       24.048 -17.690   4.061  0.00  0.00    +0.046 A 
ATOM     14  C   LIG    1       24.075 -16.311   3.825  0.00  0.00    -0.022 A 
ATOM     15  C   LIG    1       23.063 -15.493   4.349  0.00  0.00    +0.005 A 
ATOM     16  C   LIG    1       22.011 -16.050   5.075  0.00  0.00    +0.000 A 
ATOM     17  C   LIG    1       21.964 -17.424   5.290  0.00  0.00    +0.002 A 
ATOM     18  C   LIG    1       22.982 -18.238   4.793  0.00  0.00    +0.024 A 
ATOM     19  C   LIG    1       28.288 -17.047   4.869  0.00  0.00    +0.009 A 
ATOM     20  C   LIG    1       25.179 -15.732   2.992  0.00  0.00    +0.086 C 
ENDROOT
BRANCH   1  21
ATOM     21  O   LIG    1       27.507 -15.109   2.941  0.00  0.00    -0.456 OA
BRANCH  21  23
ATOM     22  C   LIG    1       28.740 -13.278   3.756  0.00  0.00    +0.136 C 
ATOM     23  C   LIG    1       27.552 -13.751   2.974  0.00  0.00    +0.304 C 
ATOM     24  O   LIG    1       26.727 -13.001   2.464  0.00  0.00    -0.251 OA
ENDBRANCH  21  23
ENDBRANCH   1  21
TORSDOF 2
ENDMDL
MODEL 4
REMARK VINA RESULT:       2.4      1.952      5.740
REMARK  Name = *****
REMARK                            x       y       z     vdW  Elec       q    Type
REMARK                         _______ _______ _______ _____ _____    ______ ____
ROOT
ATOM      1  C   LIG    1       26.643 -15.406   3.296  0.00  0.00    +0.213 C 
ATOM      2  C   LIG    1       25.591 -14.328   3.048  0.00  0.00    +0.015 A 
ATOM      3  C   LIG    1       24.300 -14.250   3.633  0.00  0.00    +0.050 A 
ATOM      4  C   LIG    1       23.492 -13.141   3.291  0.00  0.00    +0.024 A 
ATOM      5  C   LIG    1       23.910 -12.150   2.400  0.00  0.00    +0.002 A 
ATOM      6  C   LIG    1       25.159 -12.239   1.814  0.00  0.00    +0.001 A 
ATOM      7  N   LIG    1       23.725 -15.257   4.505  0.00  0.00    -0.224 N 
ATOM      8  C   LIG    1       22.825 -14.909   5.529  0.00  0.00    +0.308 C 
ATOM      9  O   LIG    1       22.494 -13.776   5.873  0.00  0.00    -0.252 OA
ATOM     10  N   LIG    1       22.330 -15.948   6.270  0.00  0.00    -0.313 N 
ATOM     11  H   LIG    1       21.825 -15.670   7.100  0.00  0.00    +0.146 HD
ATOM     12  H   LIG    1       22.860 -16.805   6.330  0.00  0.00    +0.146 HD
ATOM     13  C   LIG    1       23.831 -16.601   4.030  0.00  0.00    +0.046 A 
ATOM     14  C   LIG    1       25.080 -17.225   3.939  0.00  0.00    -0.022 A 
ATOM     15  C   LIG    1       25.165 -18.553   3.495  0.00  0.00    +0.005 A 
ATOM     16  C   LIG    1       24.010 -19.267   3.178  0.00  0.00    +0.000 A 
ATOM     17  C   LIG    1       22.763 -18.660   3.293  0.00  0.00    +0.002 A 
ATOM     18  C   LIG    1       22.675 -17.332   3.709  0.00  0.00    +0.024 A 
ATOM     19  C   LIG    1       25.984 -13.313   2.134  0.00  0.00    +0.009 A 
ATOM     20  C   LIG    1       26.309 -16.467   4.340  0.00  0.00    +0.086 C 
ENDROOT
BRANCH   1  21
ATOM     21  O   LIG    1       27.872 -14.745   3.706  0.00  0.00    -0.456 OA
BRANCH  21  23
ATOM     22  C   LIG    1       28.648 -12.588   4.238  0.00  0.00    +0.136 C 
ATOM     23  C   LIG    1       27.730 -13.720   4.587  0.00  0.00    +0.304 C 
ATOM     24  O   LIG    1       26.978 -13.716   5.556  0.00  0.00    -0.251 OA
ENDBRANCH  21  23
ENDBRANCH   1  21
TORSDOF 2
ENDMDL
MODEL 5
REMARK VINA RESULT:       2.6      2.016      4.217
REMARK  Name = *****
REMARK                            x       y       z     vdW  Elec       q    Type
REMARK                         _______ _______ _______ _____ _____    ______ ____
ROOT
ATOM      1  C   LIG    1       24.440 -18.327   3.896  0.00  0.00    +0.213 C 
ATOM      2  C   LIG    1       23.864 -16.960   4.259  0.00  0.00    +0.015 A 
ATOM      3  C   LIG    1       24.434 -15.694   3.965  0.00  0.00    +0.050 A 
ATOM      4  C   LIG    1       23.712 -14.543   4.364  0.00  0.00    +0.024 A 
ATOM      5  C   LIG    1       22.491 -14.615   5.038  0.00  0.00    +0.002 A 
ATOM      6  C   LIG    1       21.949 -15.850   5.342  0.00  0.00    +0.001 A 
ATOM      7  N   LIG    1       25.730 -15.492   3.346  0.00  0.00    -0.224 N 
ATOM      8  C   LIG    1       25.978 -14.385   2.514  0.00  0.00    +0.308 C 
ATOM      9  O   LIG    1       25.167 -13.541   2.139  0.00  0.00    -0.252 OA
ATOM     10  N   LIG    1       27.246 -14.290   2.007  0.00  0.00    -0.313 N 
ATOM     11  H   LIG    1       27.358 -13.592   1.284  0.00  0.00    +0.146 HD
ATOM     12  H   LIG    1       27.805 -15.126   1.918  0.00  0.00    +0.146 HD
ATOM     13  C   LIG    1       26.798 -16.250   3.918  0.00  0.00    +0.046 A 
ATOM     14  C   LIG    1       26.825 -17.643   3.796  0.00  0.00    -0.022 A 
ATOM     15  C   LIG    1       27.893 -18.371   4.341  0.00  0.00    +0.005 A 
ATOM     16  C   LIG    1       28.947 -17.711   4.973  0.00  0.00    +0.000 A 
ATOM     17  C   LIG    1       28.939 -16.324   5.073  0.00  0.00    +0.002 A 
ATOM     18  C   LIG    1       27.866 -15.598   4.556  0.00  0.00    +0.024 A 
ATOM     19  C   LIG    1       22.628 -17.003   4.959  0.00  0.00    +0.009 A 
ATOM     20  C   LIG    1       25.717 -18.337   3.062  0.00  0.00    +0.086 C 
ENDROOT
BRANCH   1  21
ATOM     21  O   LIG    1       23.420 -19.060   3.162  0.00  0.00    -0.456 OA
BRANCH  21  23
ATOM     22  C   LIG    1       22.288 -20.491   4.648  0.00  0.00    +0.136 C 
ATOM     23  C   LIG    1       23.257 -20.363   3.512  0.00  0.00    +0.304 C 
ATOM     24  O   LIG    1       23.837 -21.313   2.998  0.00  0.00    -0.251 OA
ENDBRANCH  21  23
ENDBRANCH   1  21
TORSDOF 2
ENDMDL
MODEL 6
REMARK VINA RESULT:       3.3      1.798      4.126
REMARK  Name = *****
REMARK                            x       y       z     vdW  Elec       q    Type
REMARK                         _______ _______ _______ _____ _____    ______ ____
ROOT
ATOM      1  C   LIG    1       23.873 -17.846   4.059  0.00  0.00    +0.213 C 
ATOM      2  C   LIG    1       23.622 -16.396   4.468  0.00  0.00    +0.015 A 
ATOM      3  C   LIG    1       24.409 -15.268   4.119  0.00  0.00    +0.050 A 
ATOM      4  C   LIG    1       23.976 -14.001   4.578  0.00  0.00    +0.024 A 
ATOM      5  C   LIG    1       22.832 -13.834   5.360  0.00  0.00    +0.002 A 
ATOM      6  C   LIG    1       22.080 -14.937   5.718  0.00  0.00    +0.001 A 
ATOM      7  N   LIG    1       25.658 -15.324   3.383  0.00  0.00    -0.224 N 
ATOM      8  C   LIG    1       26.050 -14.279   2.528  0.00  0.00    +0.308 C 
ATOM      9  O   LIG    1       25.397 -13.282   2.225  0.00  0.00    -0.252 OA
ATOM     10  N   LIG    1       27.259 -14.435   1.907  0.00  0.00    -0.313 N 
ATOM     11  H   LIG    1       27.446 -13.764   1.174  0.00  0.00    +0.146 HD
ATOM     12  H   LIG    1       27.626 -15.366   1.770  0.00  0.00    +0.146 HD
ATOM     13  C   LIG    1       26.597 -16.292   3.858  0.00  0.00    +0.046 A 
ATOM     14  C   LIG    1       26.329 -17.660   3.739  0.00  0.00    -0.022 A 
ATOM     15  C   LIG    1       27.271 -18.597   4.187  0.00  0.00    +0.005 A 
ATOM     16  C   LIG    1       28.490 -18.174   4.717  0.00  0.00    +0.000 A 
ATOM     17  C   LIG    1       28.774 -16.816   4.813  0.00  0.00    +0.002 A 
ATOM     18  C   LIG    1       27.829 -15.879   4.393  0.00  0.00    +0.024 A 
ATOM     19  C   LIG    1       22.472 -16.198   5.278  0.00  0.00    +0.009 A 
ATOM     20  C   LIG    1       25.041 -18.103   3.112  0.00  0.00    +0.086 C 
ENDROOT
BRANCH   1  21
ATOM     21  O   LIG    1       22.663 -18.346   3.425  0.00  0.00    -0.456 OA
BRANCH  21  23
ATOM     22  C   LIG    1       22.765 -19.785   5.284  0.00  0.00    +0.136 C 
ATOM     23  C   LIG    1       21.958 -19.267   4.132  0.00  0.00    +0.304 C 
ATOM     24  O   LIG    1       20.826 -19.654   3.862  0.00  0.00    -0.251 OA
ENDBRANCH  21  23
ENDBRANCH   1  21
TORSDOF 2
ENDMDL
