MODEL 1
REMARK VINA RESULT:      -2.8      0.000      0.000
REMARK  Name = *****
REMARK                            x       y       z     vdW  Elec       q    Type
REMARK                         _______ _______ _______ _____ _____    ______ ____
ROOT
ATOM      1  C   LIG    1       26.219 -14.981   3.193  0.00  0.00    +0.199 C 
ENDROOT
BRANCH   1   2
ATOM      2  N   LIG    1       25.658 -16.229   3.847  0.00  0.00    -0.282 NA
ATOM      3  C   LIG    1       24.166 -16.108   3.878  0.00  0.00    +0.121 C 
ATOM      4  C   LIG    1       23.468 -17.427   4.090  0.00  0.00    -0.023 A 
ATOM      5  C   LIG    1       24.110 -18.641   3.987  0.00  0.00    -0.005 A 
ATOM      6  S   LIG    1       23.083 -19.974   4.202  0.00  0.00    -0.101 S 
ATOM      7  C   LIG    1       21.728 -18.951   4.420  0.00  0.00    +0.045 A 
ATOM      8  C   LIG    1       25.564 -18.766   3.711  0.00  0.00    +0.058 C 
ATOM      9  C   LIG    1       22.071 -17.617   4.343  0.00  0.00    +0.013 A 
ATOM     10  C   LIG    1       26.065 -17.447   3.083  0.00  0.00    +0.091 C 
ENDBRANCH   1   2
BRANCH   1  11
ATOM     11  C   LIG    1       25.319 -13.742   3.304  0.00  0.00    -0.001 A 
ATOM     12  C   LIG    1       25.084 -13.102   4.537  0.00  0.00    +0.046 A 
ATOM     13 CL   LIG    1       25.747 -13.677   6.027  0.00  0.00    -0.083 Cl
ATOM     14  C   LIG    1       24.278 -11.959   4.614  0.00  0.00    +0.020 A 
ATOM     15  C   LIG    1       23.671 -11.447   3.472  0.00  0.00    +0.001 A 
ATOM     16  C   LIG    1       23.847 -12.092   2.252  0.00  0.00    +0.000 A 
ATOM     17  C   LIG    1       24.661 -13.228   2.167  0.00  0.00    +0.007 A 
ENDBRANCH   1  11
BRANCH   1  18
ATOM     18  C   LIG    1       27.649 -14.629   3.686  0.00  0.00    +0.329 C 
ATOM     19  O   LIG    1       28.356 -15.291   4.426  0.00  0.00    -0.249 OA
BRANCH  18  21
ATOM     20  C   LIG    1       28.760 -12.571   4.013  0.00  0.00    +0.280 C 
ATOM     21  O   LIG    1       28.007 -13.415   3.146  0.00  0.00    -0.467 OA
ENDBRANCH  18  21
ENDBRANCH   1  18
TORSDOF 4
ENDMDL
MODEL 2
REMARK VINA RESULT:      -2.4      3.494      6.812
REMARK  Name = *****
REMARK                            x       y       z     vdW  Elec       q    Type
REMARK                         _______ _______ _______ _____ _____    ______ ____
ROOT
ATOM      1  C   LIG    1       25.477 -18.977   3.944  0.00  0.00    +0.199 C 
ENDROOT
BRANCH   1   2
ATOM      2  N   LIG    1       25.276 -17.505   4.248  0.00  0.00    -0.282 NA
ATOM      3  C   LIG    1       26.163 -16.716   3.335  0.00  0.00    +0.121 C 
ATOM      4  C   LIG    1       25.757 -15.269   3.217  0.00  0.00    -0.023 A 
ATOM      5  C   LIG    1       24.550 -14.789   3.672  0.00  0.00    -0.005 A 
ATOM      6  S   LIG    1       24.309 -13.140   3.356  0.00  0.00    -0.101 S 
ATOM      7  C   LIG    1       25.826 -13.025   2.569  0.00  0.00    +0.045 A 
ATOM      8  C   LIG    1       23.553 -15.639   4.372  0.00  0.00    +0.058 C 
ATOM      9  C   LIG    1       26.500 -14.230   2.570  0.00  0.00    +0.013 A 
ATOM     10  C   LIG    1       23.846 -17.120   4.044  0.00  0.00    +0.091 C 
ENDBRANCH   1   2
BRANCH   1  11
ATOM     11  C   LIG    1       26.228 -19.757   5.032  0.00  0.00    -0.001 A 
ATOM     12  C   LIG    1       27.549 -19.434   5.401  0.00  0.00    +0.046 A 
ATOM     13 CL   LIG    1       28.448 -18.169   4.635  0.00  0.00    -0.083 Cl
ATOM     14  C   LIG    1       28.210 -20.142   6.412  0.00  0.00    +0.020 A 
ATOM     15  C   LIG    1       27.580 -21.201   7.057  0.00  0.00    +0.001 A 
ATOM     16  C   LIG    1       26.294 -21.571   6.674  0.00  0.00    +0.000 A 
ATOM     17  C   LIG    1       25.624 -20.859   5.672  0.00  0.00    +0.007 A 
ENDBRANCH   1  11
BRANCH   1  18
ATOM     18  C   LIG    1       24.152 -19.711   3.600  0.00  0.00    +0.329 C 
ATOM     19  O   LIG    1       23.913 -20.370   2.603  0.00  0.00    -0.249 OA
BRANCH  18  21
ATOM     20  C   LIG    1       22.257 -20.496   4.771  0.00  0.00    +0.280 C 
ATOM     21  O   LIG    1       23.258 -19.492   4.623  0.00  0.00    -0.467 OA
ENDBRANCH  18  21
ENDBRANCH   1  18
TORSDOF 4
ENDMDL
MODEL 3
REMARK VINA RESULT:      -2.3      1.974      3.469
REMARK  Name = *****
REMARK                            x       y       z     vdW  Elec       q    Type
REMARK                         _______ _______ _______ _____ _____    ______ ____
ROOT
ATOM      1  C   LIG    1       24.621 -13.697   4.455  0.00  0.00    +0.199 C 
ENDROOT
BRANCH   1   2
ATOM      2  N   LIG    1       24.020 -14.991   3.941  0.00  0.00    -0.282 NA
ATOM      3  C   LIG    1       25.128 -15.985   3.777  0.00  0.00    +0.121 C 
ATOM      4  C   LIG    1       24.641 -17.409   3.699  0.00  0.00    -0.023 A 
ATOM      5  C   LIG    1       23.355 -17.781   4.021  0.00  0.00    -0.005 A 
ATOM      6  S   LIG    1       23.083 -19.452   3.916  0.00  0.00    -0.101 S 
ATOM      7  C   LIG    1       24.707 -19.732   3.453  0.00  0.00    +0.045 A 
ATOM      8  C   LIG    1       22.308 -16.808   4.424  0.00  0.00    +0.058 C 
ATOM      9  C   LIG    1       25.429 -18.559   3.368  0.00  0.00    +0.013 A 
ATOM     10  C   LIG    1       22.995 -15.508   4.898  0.00  0.00    +0.091 C 
ENDBRANCH   1   2
BRANCH   1  11
ATOM     11  C   LIG    1       26.123 -13.538   4.185  0.00  0.00    -0.001 A 
ATOM     12  C   LIG    1       27.057 -13.405   5.232  0.00  0.00    +0.046 A 
ATOM     13 CL   LIG    1       26.590 -13.364   6.897  0.00  0.00    -0.083 Cl
ATOM     14  C   LIG    1       28.426 -13.284   4.967  0.00  0.00    +0.020 A 
ATOM     15  C   LIG    1       28.891 -13.267   3.655  0.00  0.00    +0.001 A 
ATOM     16  C   LIG    1       27.983 -13.346   2.604  0.00  0.00    +0.000 A 
ATOM     17  C   LIG    1       26.613 -13.479   2.864  0.00  0.00    +0.007 A 
ENDBRANCH   1  11
BRANCH   1  18
ATOM     18  C   LIG    1       23.866 -12.437   3.950  0.00  0.00    +0.329 C 
ATOM     19  O   LIG    1       23.481 -11.492   4.617  0.00  0.00    -0.249 OA
BRANCH  18  21
ATOM     20  C   LIG    1       24.267 -11.509   1.815  0.00  0.00    +0.280 C 
ATOM     21  O   LIG    1       23.687 -12.555   2.590  0.00  0.00    -0.467 OA
ENDBRANCH  18  21
ENDBRANCH   1  18
TORSDOF 4
ENDMDL
MODEL 4
REMARK VINA RESULT:      -2.0      2.161      3.777
REMARK  Name = *****
REMARK                            x       y       z     vdW  Elec       q    Type
REMARK                         _______ _______ _______ _____ _____    ______ ____
ROOT
ATOM      1  C   LIG    1       24.644 -13.643   4.636  0.00  0.00    +0.199 C 
ENDROOT
BRANCH   1   2
ATOM      2  N   LIG    1       24.138 -14.934   4.020  0.00  0.00    -0.282 NA
ATOM      3  C   LIG    1       25.297 -15.874   3.892  0.00  0.00    +0.121 C 
ATOM      4  C   LIG    1       24.879 -17.311   3.713  0.00  0.00    -0.023 A 
ATOM      5  C   LIG    1       23.590 -17.749   3.923  0.00  0.00    -0.005 A 
ATOM      6  S   LIG    1       23.399 -19.423   3.721  0.00  0.00    -0.101 S 
ATOM      7  C   LIG    1       25.063 -19.614   3.365  0.00  0.00    +0.045 A 
ATOM      8  C   LIG    1       22.476 -16.839   4.293  0.00  0.00    +0.058 C 
ATOM      9  C   LIG    1       25.737 -18.410   3.388  0.00  0.00    +0.013 A 
ATOM     10  C   LIG    1       23.071 -15.537   4.875  0.00  0.00    +0.091 C 
ENDBRANCH   1   2
BRANCH   1  11
ATOM     11  C   LIG    1       26.151 -13.403   4.468  0.00  0.00    -0.001 A 
ATOM     12  C   LIG    1       26.798 -13.579   3.229  0.00  0.00    +0.046 A 
ATOM     13 CL   LIG    1       25.967 -14.121   1.812  0.00  0.00    -0.083 Cl
ATOM     14  C   LIG    1       28.169 -13.333   3.090  0.00  0.00    +0.020 A 
ATOM     15  C   LIG    1       28.927 -12.931   4.186  0.00  0.00    +0.001 A 
ATOM     16  C   LIG    1       28.319 -12.799   5.430  0.00  0.00    +0.000 A 
ATOM     17  C   LIG    1       26.946 -13.033   5.572  0.00  0.00    +0.007 A 
ENDBRANCH   1  11
BRANCH   1  18
ATOM     18  C   LIG    1       23.861 -12.393   4.149  0.00  0.00    +0.329 C 
ATOM     19  O   LIG    1       23.493 -11.447   4.823  0.00  0.00    -0.249 OA
BRANCH  18  21
ATOM     20  C   LIG    1       24.139 -11.457   1.999  0.00  0.00    +0.280 C 
ATOM     21  O   LIG    1       23.634 -12.523   2.798  0.00  0.00    -0.467 OA
ENDBRANCH  18  21
ENDBRANCH   1  18
TORSDOF 4
ENDMDL
MODEL 5
REMARK VINA RESULT:      -1.5      1.387      2.356
REMARK  Name = *****
REMARK                            x       y       z     vdW  Elec       q    Type
REMARK                         _______ _______ _______ _____ _____    ______ ____
ROOT
ATOM      1  C   LIG    1       25.808 -14.653   3.174  0.00  0.00    +0.199 C 
ENDROOT
BRANCH   1   2
ATOM      2  N   LIG    1       24.953 -15.905   3.108  0.00  0.00    -0.282 NA
ATOM      3  C   LIG    1       25.845 -17.089   3.312  0.00  0.00    +0.121 C 
ATOM      4  C   LIG    1       25.097 -18.337   3.704  0.00  0.00    -0.023 A 
ATOM      5  C   LIG    1       23.778 -18.327   4.102  0.00  0.00    -0.005 A 
ATOM      6  S   LIG    1       23.192 -19.853   4.556  0.00  0.00    -0.101 S 
ATOM      7  C   LIG    1       24.714 -20.576   4.250  0.00  0.00    +0.045 A 
ATOM      8  C   LIG    1       22.951 -17.093   4.132  0.00  0.00    +0.058 C 
ATOM      9  C   LIG    1       25.639 -19.659   3.795  0.00  0.00    +0.013 A 
ATOM     10  C   LIG    1       23.891 -15.867   4.159  0.00  0.00    +0.091 C 
ENDBRANCH   1   2
BRANCH   1  11
ATOM     11  C   LIG    1       25.215 -13.518   4.020  0.00  0.00    -0.001 A 
ATOM     12  C   LIG    1       24.318 -12.576   3.476  0.00  0.00    +0.046 A 
ATOM     13 CL   LIG    1       23.846 -12.591   1.812  0.00  0.00    -0.083 Cl
ATOM     14  C   LIG    1       23.770 -11.561   4.270  0.00  0.00    +0.020 A 
ATOM     15  C   LIG    1       24.122 -11.447   5.611  0.00  0.00    +0.001 A 
ATOM     16  C   LIG    1       25.045 -12.334   6.156  0.00  0.00    +0.000 A 
ATOM     17  C   LIG    1       25.587 -13.359   5.370  0.00  0.00    +0.007 A 
ENDBRANCH   1  11
BRANCH   1  18
ATOM     18  C   LIG    1       27.263 -14.938   3.634  0.00  0.00    +0.329 C 
ATOM     19  O   LIG    1       27.630 -15.780   4.435  0.00  0.00    -0.249 OA
BRANCH  18  21
ATOM     20  C   LIG    1       28.719 -13.088   3.816  0.00  0.00    +0.280 C 
ATOM     21  O   LIG    1       28.103 -14.065   2.982  0.00  0.00    -0.467 OA
ENDBRANCH  18  21
ENDBRANCH   1  18
TORSDOF 4
ENDMDL
MODEL 6
REMARK VINA RESULT:      -0.7      0.799      1.835
REMARK  Name = *****
REMARK                            x       y       z     vdW  Elec       q    Type
REMARK                         _______ _______ _______ _____ _____    ______ ____
ROOT
ATOM      1  C   LIG    1       26.284 -14.848   2.824  0.00  0.00    +0.199 C 
ENDROOT
BRANCH   1   2
ATOM      2  N   LIG    1       25.596 -16.200   2.868  0.00  0.00    -0.282 NA
ATOM      3  C   LIG    1       26.555 -17.191   3.451  0.00  0.00    +0.121 C 
ATOM      4  C   LIG    1       25.883 -18.442   3.954  0.00  0.00    -0.023 A 
ATOM      5  C   LIG    1       24.520 -18.549   4.116  0.00  0.00    -0.005 A 
ATOM      6  S   LIG    1       24.025 -20.037   4.762  0.00  0.00    -0.101 S 
ATOM      7  C   LIG    1       25.646 -20.581   4.865  0.00  0.00    +0.045 A 
ATOM      8  C   LIG    1       23.576 -17.459   3.761  0.00  0.00    +0.058 C 
ATOM      9  C   LIG    1       26.537 -19.638   4.396  0.00  0.00    +0.013 A 
ATOM     10  C   LIG    1       24.356 -16.127   3.699  0.00  0.00    +0.091 C 
ENDBRANCH   1   2
BRANCH   1  11
ATOM     11  C   LIG    1       25.379 -13.658   3.172  0.00  0.00    -0.001 A 
ATOM     12  C   LIG    1       25.192 -13.230   4.501  0.00  0.00    +0.046 A 
ATOM     13 CL   LIG    1       25.925 -14.029   5.849  0.00  0.00    -0.083 Cl
ATOM     14  C   LIG    1       24.381 -12.128   4.797  0.00  0.00    +0.020 A 
ATOM     15  C   LIG    1       23.719 -11.447   3.780  0.00  0.00    +0.001 A 
ATOM     16  C   LIG    1       23.848 -11.883   2.465  0.00  0.00    +0.000 A 
ATOM     17  C   LIG    1       24.668 -12.977   2.162  0.00  0.00    +0.007 A 
ENDBRANCH   1  11
BRANCH   1  18
ATOM     18  C   LIG    1       27.569 -14.795   3.694  0.00  0.00    +0.329 C 
ATOM     19  O   LIG    1       27.868 -15.538   4.612  0.00  0.00    -0.249 OA
BRANCH  18  21
ATOM     20  C   LIG    1       28.725 -12.818   4.273  0.00  0.00    +0.280 C 
ATOM     21  O   LIG    1       28.343 -13.743   3.258  0.00  0.00    -0.467 OA
ENDBRANCH  18  21
ENDBRANCH   1  18
TORSDOF 4
ENDMDL
MODEL 7
REMARK VINA RESULT:      -0.7      1.686      2.984
REMARK  Name = *****
REMARK                            x       y       z     vdW  Elec       q    Type
REMARK                         _______ _______ _______ _____ _____    ______ ____
ROOT
ATOM      1  C   LIG    1       25.089 -13.833   4.182  0.00  0.00    +0.199 C 
ENDROOT
BRANCH   1   2
ATOM      2  N   LIG    1       24.945 -15.328   4.397  0.00  0.00    -0.282 NA
ATOM      3  C   LIG    1       23.484 -15.647   4.483  0.00  0.00    +0.121 C 
ATOM      4  C   LIG    1       23.181 -17.106   4.258  0.00  0.00    -0.023 A 
ATOM      5  C   LIG    1       24.104 -17.996   3.755  0.00  0.00    -0.005 A 
ATOM      6  S   LIG    1       23.489 -19.561   3.532  0.00  0.00    -0.101 S 
ATOM      7  C   LIG    1       21.943 -19.081   4.090  0.00  0.00    +0.045 A 
ATOM      8  C   LIG    1       25.503 -17.615   3.436  0.00  0.00    +0.058 C 
ATOM      9  C   LIG    1       21.916 -17.749   4.451  0.00  0.00    +0.013 A 
ATOM     10  C   LIG    1       25.575 -16.081   3.270  0.00  0.00    +0.091 C 
ENDBRANCH   1   2
BRANCH   1  11
ATOM     11  C   LIG    1       26.538 -13.330   4.140  0.00  0.00    -0.001 A 
ATOM     12  C   LIG    1       27.310 -13.189   5.311  0.00  0.00    +0.046 A 
ATOM     13 CL   LIG    1       26.681 -13.523   6.888  0.00  0.00    -0.083 Cl
ATOM     14  C   LIG    1       28.638 -12.750   5.251  0.00  0.00    +0.020 A 
ATOM     15  C   LIG    1       29.216 -12.420   4.030  0.00  0.00    +0.001 A 
ATOM     16  C   LIG    1       28.458 -12.504   2.866  0.00  0.00    +0.000 A 
ATOM     17  C   LIG    1       27.133 -12.953   2.919  0.00  0.00    +0.007 A 
ENDBRANCH   1  11
BRANCH   1  18
ATOM     18  C   LIG    1       24.327 -13.326   2.927  0.00  0.00    +0.329 C 
ATOM     19  O   LIG    1       24.335 -13.819   1.812  0.00  0.00    -0.249 OA
BRANCH  18  21
ATOM     20  C   LIG    1       23.742 -11.811   4.642  0.00  0.00    +0.280 C 
ATOM     21  O   LIG    1       23.623 -12.197   3.275  0.00  0.00    -0.467 OA
ENDBRANCH  18  21
ENDBRANCH   1  18
TORSDOF 4
ENDMDL
MODEL 8
REMARK VINA RESULT:      -0.6      3.706      6.553
REMARK  Name = *****
REMARK                            x       y       z     vdW  Elec       q    Type
REMARK                         _______ _______ _______ _____ _____    ______ ____
ROOT
ATOM      1  C   LIG    1       25.735 -19.309   3.554  0.00  0.00    +0.199 C 
ENDROOT
BRANCH   1   2
ATOM      2  N   LIG    1       25.795 -17.837   3.193  0.00  0.00    -0.282 NA
ATOM      3  C   LIG    1       24.565 -17.176   3.732  0.00  0.00    +0.121 C 
ATOM      4  C   LIG    1       24.692 -15.678   3.835  0.00  0.00    -0.023 A 
ATOM      5  C   LIG    1       25.894 -15.017   3.714  0.00  0.00    -0.005 A 
ATOM      6  S   LIG    1       25.775 -13.340   3.939  0.00  0.00    -0.101 S 
ATOM      7  C   LIG    1       24.092 -13.455   4.231  0.00  0.00    +0.045 A 
ATOM      8  C   LIG    1       27.173 -15.712   3.416  0.00  0.00    +0.058 C 
ATOM      9  C   LIG    1       23.640 -14.755   4.140  0.00  0.00    +0.013 A 
ATOM     10  C   LIG    1       27.020 -17.207   3.773  0.00  0.00    +0.091 C 
ENDBRANCH   1   2
BRANCH   1  11
ATOM     11  C   LIG    1       26.556 -19.698   4.791  0.00  0.00    -0.001 A 
ATOM     12  C   LIG    1       26.135 -20.713   5.673  0.00  0.00    +0.046 A 
ATOM     13 CL   LIG    1       24.647 -21.571   5.466  0.00  0.00    -0.083 Cl
ATOM     14  C   LIG    1       26.909 -21.070   6.785  0.00  0.00    +0.020 A 
ATOM     15  C   LIG    1       28.103 -20.408   7.054  0.00  0.00    +0.001 A 
ATOM     16  C   LIG    1       28.513 -19.368   6.225  0.00  0.00    +0.000 A 
ATOM     17  C   LIG    1       27.749 -19.015   5.106  0.00  0.00    +0.007 A 
ENDBRANCH   1  11
BRANCH   1  18
ATOM     18  C   LIG    1       24.282 -19.836   3.708  0.00  0.00    +0.329 C 
ATOM     19  O   LIG    1       23.767 -20.762   3.106  0.00  0.00    -0.249 OA
BRANCH  18  21
ATOM     20  C   LIG    1       22.242 -19.310   4.777  0.00  0.00    +0.280 C 
ATOM     21  O   LIG    1       23.642 -19.069   4.655  0.00  0.00    -0.467 OA
ENDBRANCH  18  21
ENDBRANCH   1  18
TORSDOF 4
ENDMDL
MODEL 9
REMARK VINA RESULT:      -0.4      3.729      6.874
REMARK  Name = *****
REMARK                            x       y       z     vdW  Elec       q    Type
REMARK                         _______ _______ _______ _____ _____    ______ ____
ROOT
ATOM      1  C   LIG    1       24.763 -18.908   4.109  0.00  0.00    +0.199 C 
ENDROOT
BRANCH   1   2
ATOM      2  N   LIG    1       24.776 -17.410   4.346  0.00  0.00    -0.282 NA
ATOM      3  C   LIG    1       25.789 -16.802   3.426  0.00  0.00    +0.121 C 
ATOM      4  C   LIG    1       25.604 -15.318   3.238  0.00  0.00    -0.023 A 
ATOM      5  C   LIG    1       24.472 -14.645   3.640  0.00  0.00    -0.005 A 
ATOM      6  S   LIG    1       24.485 -12.994   3.249  0.00  0.00    -0.101 S 
ATOM      7  C   LIG    1       26.019 -13.139   2.501  0.00  0.00    +0.045 A 
ATOM      8  C   LIG    1       23.345 -15.308   4.346  0.00  0.00    +0.058 C 
ATOM      9  C   LIG    1       26.506 -14.428   2.570  0.00  0.00    +0.013 A 
ATOM     10  C   LIG    1       23.424 -16.829   4.087  0.00  0.00    +0.091 C 
ENDBRANCH   1   2
BRANCH   1  11
ATOM     11  C   LIG    1       25.611 -19.719   5.099  0.00  0.00    -0.001 A 
ATOM     12  C   LIG    1       25.031 -20.417   6.176  0.00  0.00    +0.046 A 
ATOM     13 CL   LIG    1       23.332 -20.385   6.501  0.00  0.00    -0.083 Cl
ATOM     14  C   LIG    1       25.819 -21.171   7.055  0.00  0.00    +0.020 A 
ATOM     15  C   LIG    1       27.200 -21.223   6.895  0.00  0.00    +0.001 A 
ATOM     16  C   LIG    1       27.800 -20.501   5.868  0.00  0.00    +0.000 A 
ATOM     17  C   LIG    1       27.016 -19.755   4.979  0.00  0.00    +0.007 A 
ENDBRANCH   1  11
BRANCH   1  18
ATOM     18  C   LIG    1       23.328 -19.499   4.048  0.00  0.00    +0.329 C 
ATOM     19  O   LIG    1       22.287 -18.936   4.339  0.00  0.00    -0.249 OA
BRANCH  18  21
ATOM     20  C   LIG    1       24.355 -21.018   2.559  0.00  0.00    +0.280 C 
ATOM     21  O   LIG    1       23.414 -20.800   3.607  0.00  0.00    -0.467 OA
ENDBRANCH  18  21
ENDBRANCH   1  18
TORSDOF 4
ENDMDL
