MODEL 1
REMARK VINA RESULT:      -7.0      0.000      0.000
REMARK  Name = *****
REMARK                            x       y       z     vdW  Elec       q    Type
REMARK                         _______ _______ _______ _____ _____    ______ ____
ROOT
ATOM      1  CA  LIG    1       26.036 -21.445   6.803  0.00  0.00    +0.195 C 
ATOM      2  N   LIG    1       25.300 -22.490   6.061  0.00  0.00    -0.276 N 
ATOM      3  C   LIG    1       25.285 -23.796   6.509  0.00  0.00    +0.237 C 
ATOM      4  O   LIG    1       25.852 -24.059   7.577  0.00  0.00    -0.274 OA
ATOM      5  C   LIG    1       24.588 -21.994   4.901  0.00  0.00    +0.178 C 
ATOM      6  SG  LIG    1       25.081 -20.292   4.609  0.00  0.00    -0.139 S 
ATOM      7  CB  LIG    1       26.411 -20.334   5.829  0.00  0.00    +0.104 C 
ENDROOT
BRANCH   3   8
ATOM      8  CA  LIG    1       24.587 -24.898   5.652  0.00  0.00    +0.160 C 
ATOM      9  N   LIG    1       25.490 -25.473   4.679  0.00  0.00    -0.304 N 
ATOM     10  H   LIG    1       25.904 -24.985   3.893  0.00  0.00    +0.149 HD
ATOM     11  C   LIG    1       26.042 -26.659   5.114  0.00  0.00    +0.214 C 
ATOM     12  O   LIG    1       26.926 -27.284   4.544  0.00  0.00    -0.276 OA
ATOM     13  C   LIG    1       25.403 -27.019   6.426  0.00  0.00    +0.098 C 
ATOM     14  C   LIG    1       24.151 -26.147   6.410  0.00  0.00    +0.041 C 
ENDBRANCH   3   8
BRANCH   1  16
ATOM     15  O   LIG    1       24.061 -20.612   7.994  0.00  0.00    -0.249 OA
ATOM     16  C   LIG    1       25.245 -20.914   8.009  0.00  0.00    +0.326 C 
BRANCH  16  17
ATOM     17  OXT LIG    1       26.011 -20.740   9.115  0.00  0.00    -0.479 OA
ATOM     18  HXT LIG    1       25.778 -21.351   9.856  0.00  0.00    +0.295 HD
ENDBRANCH  16  17
ENDBRANCH   1  16
TORSDOF 3
ENDMDL
MODEL 2
REMARK VINA RESULT:      -6.9      4.339      5.758
REMARK  Name = *****
REMARK                            x       y       z     vdW  Elec       q    Type
REMARK                         _______ _______ _______ _____ _____    ______ ____
ROOT
ATOM      1  CA  LIG    1       30.960 -20.336   7.923  0.00  0.00    +0.195 C 
ATOM      2  N   LIG    1       29.532 -19.958   7.930  0.00  0.00    -0.276 N 
ATOM      3  C   LIG    1       28.588 -20.751   7.309  0.00  0.00    +0.237 C 
ATOM      4  O   LIG    1       28.957 -21.815   6.797  0.00  0.00    -0.274 OA
ATOM      5  C   LIG    1       29.249 -18.749   8.677  0.00  0.00    +0.178 C 
ATOM      6  SG  LIG    1       30.805 -17.967   9.114  0.00  0.00    -0.139 S 
ATOM      7  CB  LIG    1       31.796 -19.072   8.086  0.00  0.00    +0.104 C 
ENDROOT
BRANCH   3   8
ATOM      8  CA  LIG    1       27.102 -20.277   7.242  0.00  0.00    +0.160 C 
ATOM      9  N   LIG    1       26.387 -20.902   6.150  0.00  0.00    -0.304 N 
ATOM     10  H   LIG    1       26.578 -20.770   5.164  0.00  0.00    +0.149 HD
ATOM     11  C   LIG    1       25.651 -21.992   6.564  0.00  0.00    +0.214 C 
ATOM     12  O   LIG    1       25.058 -22.770   5.829  0.00  0.00    -0.276 OA
ATOM     13  C   LIG    1       25.746 -22.079   8.061  0.00  0.00    +0.098 C 
ATOM     14  C   LIG    1       26.227 -20.677   8.423  0.00  0.00    +0.041 C 
ENDBRANCH   3   8
BRANCH   1  16
ATOM     15  O   LIG    1       30.860 -21.394  10.134  0.00  0.00    -0.249 OA
ATOM     16  C   LIG    1       31.293 -21.391   8.991  0.00  0.00    +0.326 C 
BRANCH  16  17
ATOM     17  OXT LIG    1       32.190 -22.316   8.566  0.00  0.00    -0.479 OA
ATOM     18  HXT LIG    1       33.100 -21.952   8.440  0.00  0.00    +0.295 HD
ENDBRANCH  16  17
ENDBRANCH   1  16
TORSDOF 3
ENDMDL
MODEL 3
REMARK VINA RESULT:      -6.4      6.916      9.705
REMARK  Name = *****
REMARK                            x       y       z     vdW  Elec       q    Type
REMARK                         _______ _______ _______ _____ _____    ______ ____
ROOT
ATOM      1  CA  LIG    1       29.995 -20.360   8.789  0.00  0.00    +0.195 C 
ATOM      2  N   LIG    1       30.476 -18.964   8.806  0.00  0.00    -0.276 N 
ATOM      3  C   LIG    1       30.731 -18.320  10.001  0.00  0.00    +0.237 C 
ATOM      4  O   LIG    1       30.602 -18.958  11.053  0.00  0.00    -0.274 OA
ATOM      5  C   LIG    1       30.693 -18.401   7.489  0.00  0.00    +0.178 C 
ATOM      6  SG  LIG    1       30.025 -19.533   6.265  0.00  0.00    -0.139 S 
ATOM      7  CB  LIG    1       29.228 -20.591   7.491  0.00  0.00    +0.104 C 
ENDROOT
BRANCH   3   8
ATOM      8  CA  LIG    1       31.139 -16.813   9.995  0.00  0.00    +0.160 C 
ATOM      9  N   LIG    1       30.744 -16.145  11.216  0.00  0.00    -0.304 N 
ATOM     10  H   LIG    1       29.791 -15.988  11.525  0.00  0.00    +0.149 HD
ATOM     11  C   LIG    1       31.779 -16.057  12.123  0.00  0.00    +0.214 C 
ATOM     12  O   LIG    1       31.684 -15.655  13.274  0.00  0.00    -0.276 OA
ATOM     13  C   LIG    1       33.023 -16.584  11.464  0.00  0.00    +0.098 C 
ATOM     14  C   LIG    1       32.637 -16.534   9.989  0.00  0.00    +0.041 C 
ENDBRANCH   3   8
BRANCH   1  16
ATOM     15  O   LIG    1       30.990 -22.589   9.033  0.00  0.00    -0.249 OA
ATOM     16  C   LIG    1       31.134 -21.376   8.976  0.00  0.00    +0.326 C 
BRANCH  16  17
ATOM     17  OXT LIG    1       32.347 -20.793   9.147  0.00  0.00    -0.479 OA
ATOM     18  HXT LIG    1       33.034 -21.124   8.519  0.00  0.00    +0.295 HD
ENDBRANCH  16  17
ENDBRANCH   1  16
TORSDOF 3
ENDMDL
MODEL 4
REMARK VINA RESULT:      -6.2      2.272      2.728
REMARK  Name = *****
REMARK                            x       y       z     vdW  Elec       q    Type
REMARK                         _______ _______ _______ _____ _____    ______ ____
ROOT
ATOM      1  CA  LIG    1       23.984 -22.246   7.290  0.00  0.00    +0.195 C 
ATOM      2  N   LIG    1       25.021 -23.203   6.854  0.00  0.00    -0.276 N 
ATOM      3  C   LIG    1       24.685 -24.493   6.494  0.00  0.00    +0.237 C 
ATOM      4  O   LIG    1       23.489 -24.812   6.490  0.00  0.00    -0.274 OA
ATOM      5  C   LIG    1       26.353 -22.638   6.796  0.00  0.00    +0.178 C 
ATOM      6  SG  LIG    1       26.320 -21.010   7.553  0.00  0.00    -0.139 S 
ATOM      7  CB  LIG    1       24.638 -21.197   8.182  0.00  0.00    +0.104 C 
ENDROOT
BRANCH   3   8
ATOM      8  CA  LIG    1       25.810 -25.514   6.137  0.00  0.00    +0.160 C 
ATOM      9  N   LIG    1       25.918 -26.563   7.128  0.00  0.00    -0.304 N 
ATOM     10  H   LIG    1       26.199 -26.440   8.094  0.00  0.00    +0.149 HD
ATOM     11  C   LIG    1       25.249 -27.708   6.752  0.00  0.00    +0.214 C 
ATOM     12  O   LIG    1       25.076 -28.694   7.455  0.00  0.00    -0.276 OA
ATOM     13  C   LIG    1       24.733 -27.511   5.354  0.00  0.00    +0.098 C 
ATOM     14  C   LIG    1       25.580 -26.336   4.875  0.00  0.00    +0.041 C 
ENDBRANCH   3   8
BRANCH   1  16
ATOM     15  O   LIG    1       23.489 -20.522   5.616  0.00  0.00    -0.249 OA
ATOM     16  C   LIG    1       23.234 -21.613   6.106  0.00  0.00    +0.326 C 
BRANCH  16  17
ATOM     17  OXT LIG    1       22.187 -22.360   5.676  0.00  0.00    -0.479 OA
ATOM     18  HXT LIG    1       21.441 -22.402   6.323  0.00  0.00    +0.295 HD
ENDBRANCH  16  17
ENDBRANCH   1  16
TORSDOF 3
ENDMDL
MODEL 5
REMARK VINA RESULT:      -6.1      3.199      5.879
REMARK  Name = *****
REMARK                            x       y       z     vdW  Elec       q    Type
REMARK                         _______ _______ _______ _____ _____    ______ ____
ROOT
ATOM      1  CA  LIG    1       25.412 -21.140   6.871  0.00  0.00    +0.195 C 
ATOM      2  N   LIG    1       26.662 -20.412   6.572  0.00  0.00    -0.276 N 
ATOM      3  C   LIG    1       27.637 -20.257   7.538  0.00  0.00    +0.237 C 
ATOM      4  O   LIG    1       27.465 -20.792   8.640  0.00  0.00    -0.274 OA
ATOM      5  C   LIG    1       26.762 -19.955   5.201  0.00  0.00    +0.178 C 
ATOM      6  SG  LIG    1       25.176 -20.201   4.397  0.00  0.00    -0.139 S 
ATOM      7  CB  LIG    1       24.324 -20.638   5.928  0.00  0.00    +0.104 C 
ENDROOT
BRANCH   3   8
ATOM      8  CA  LIG    1       28.902 -19.396   7.228  0.00  0.00    +0.160 C 
ATOM      9  N   LIG    1       29.387 -18.711   8.407  0.00  0.00    -0.304 N 
ATOM     10  H   LIG    1       28.895 -17.985   8.916  0.00  0.00    +0.149 HD
ATOM     11  C   LIG    1       30.427 -19.383   9.012  0.00  0.00    +0.214 C 
ATOM     12  O   LIG    1       30.934 -19.091  10.086  0.00  0.00    -0.276 OA
ATOM     13  C   LIG    1       30.791 -20.557   8.147  0.00  0.00    +0.098 C 
ATOM     14  C   LIG    1       30.147 -20.173   6.819  0.00  0.00    +0.041 C 
ENDBRANCH   3   8
BRANCH   1  16
ATOM     15  O   LIG    1       25.332 -23.352   5.815  0.00  0.00    -0.249 OA
ATOM     16  C   LIG    1       25.588 -22.665   6.793  0.00  0.00    +0.326 C 
BRANCH  16  17
ATOM     17  OXT LIG    1       26.002 -23.215   7.962  0.00  0.00    -0.479 OA
ATOM     18  HXT LIG    1       25.696 -22.720   8.760  0.00  0.00    +0.295 HD
ENDBRANCH  16  17
ENDBRANCH   1  16
TORSDOF 3
ENDMDL
MODEL 6
REMARK VINA RESULT:      -6.1      3.819      6.075
REMARK  Name = *****
REMARK                            x       y       z     vdW  Elec       q    Type
REMARK                         _______ _______ _______ _____ _____    ______ ____
ROOT
ATOM      1  CA  LIG    1       26.173 -21.334   5.846  0.00  0.00    +0.195 C 
ATOM      2  N   LIG    1       26.900 -20.630   6.921  0.00  0.00    -0.276 N 
ATOM      3  C   LIG    1       28.128 -20.045   6.679  0.00  0.00    +0.237 C 
ATOM      4  O   LIG    1       28.576 -20.074   5.526  0.00  0.00    -0.274 OA
ATOM      5  C   LIG    1       26.183 -20.579   8.179  0.00  0.00    +0.178 C 
ATOM      6  SG  LIG    1       24.747 -21.651   8.064  0.00  0.00    -0.139 S 
ATOM      7  CB  LIG    1       25.246 -22.364   6.483  0.00  0.00    +0.104 C 
ENDROOT
BRANCH   3   8
ATOM      8  CA  LIG    1       28.921 -19.397   7.856  0.00  0.00    +0.160 C 
ATOM      9  N   LIG    1       29.677 -20.382   8.600  0.00  0.00    -0.304 N 
ATOM     10  H   LIG    1       29.287 -21.139   9.149  0.00  0.00    +0.149 HD
ATOM     11  C   LIG    1       30.997 -20.435   8.206  0.00  0.00    +0.214 C 
ATOM     12  O   LIG    1       31.819 -21.260   8.581  0.00  0.00    -0.276 OA
ATOM     13  C   LIG    1       31.231 -19.338   7.205  0.00  0.00    +0.098 C 
ATOM     14  C   LIG    1       30.029 -18.432   7.454  0.00  0.00    +0.041 C 
ENDBRANCH   3   8
BRANCH   1  16
ATOM     15  O   LIG    1       24.259 -20.006   5.078  0.00  0.00    -0.249 OA
ATOM     16  C   LIG    1       25.416 -20.369   4.920  0.00  0.00    +0.326 C 
BRANCH  16  17
ATOM     17  OXT LIG    1       26.139 -19.991   3.836  0.00  0.00    -0.479 OA
ATOM     18  HXT LIG    1       27.095 -19.842   4.034  0.00  0.00    +0.295 HD
ENDBRANCH  16  17
ENDBRANCH   1  16
TORSDOF 3
ENDMDL
MODEL 7
REMARK VINA RESULT:      -6.0      3.461      4.612
REMARK  Name = *****
REMARK                            x       y       z     vdW  Elec       q    Type
REMARK                         _______ _______ _______ _____ _____    ______ ____
ROOT
ATOM      1  CA  LIG    1       27.048 -21.605   7.268  0.00  0.00    +0.195 C 
ATOM      2  N   LIG    1       26.367 -21.021   6.095  0.00  0.00    -0.276 N 
ATOM      3  C   LIG    1       25.133 -21.488   5.690  0.00  0.00    +0.237 C 
ATOM      4  O   LIG    1       24.584 -22.367   6.367  0.00  0.00    -0.274 OA
ATOM      5  C   LIG    1       27.086 -19.919   5.488  0.00  0.00    +0.178 C 
ATOM      6  SG  LIG    1       28.720 -19.824   6.225  0.00  0.00    -0.139 S 
ATOM      7  CB  LIG    1       28.549 -21.385   7.115  0.00  0.00    +0.104 C 
ENDROOT
BRANCH   3   8
ATOM      8  CA  LIG    1       24.483 -20.925   4.387  0.00  0.00    +0.160 C 
ATOM      9  N   LIG    1       23.204 -21.545   4.114  0.00  0.00    -0.304 N 
ATOM     10  H   LIG    1       23.054 -22.521   3.886  0.00  0.00    +0.149 HD
ATOM     11  C   LIG    1       22.146 -20.777   4.552  0.00  0.00    +0.214 C 
ATOM     12  O   LIG    1       20.972 -21.120   4.560  0.00  0.00    -0.276 OA
ATOM     13  C   LIG    1       22.694 -19.472   5.059  0.00  0.00    +0.098 C 
ATOM     14  C   LIG    1       24.084 -19.456   4.430  0.00  0.00    +0.041 C 
ENDBRANCH   3   8
BRANCH   1  16
ATOM     15  O   LIG    1       26.849 -19.979   9.094  0.00  0.00    -0.249 OA
ATOM     16  C   LIG    1       26.514 -21.044   8.596  0.00  0.00    +0.326 C 
BRANCH  16  17
ATOM     17  OXT LIG    1       25.660 -21.888   9.227  0.00  0.00    -0.479 OA
ATOM     18  HXT LIG    1       25.773 -21.902  10.209  0.00  0.00    +0.295 HD
ENDBRANCH  16  17
ENDBRANCH   1  16
TORSDOF 3
ENDMDL
MODEL 8
REMARK VINA RESULT:      -6.0      4.605      7.504
REMARK  Name = *****
REMARK                            x       y       z     vdW  Elec       q    Type
REMARK                         _______ _______ _______ _____ _____    ______ ____
ROOT
ATOM      1  CA  LIG    1       25.164 -30.386   8.431  0.00  0.00    +0.195 C 
ATOM      2  N   LIG    1       25.086 -29.570   7.202  0.00  0.00    -0.276 N 
ATOM      3  C   LIG    1       25.538 -28.266   7.190  0.00  0.00    +0.237 C 
ATOM      4  O   LIG    1       26.064 -27.815   8.215  0.00  0.00    -0.274 OA
ATOM      5  C   LIG    1       24.559 -30.284   6.057  0.00  0.00    +0.178 C 
ATOM      6  SG  LIG    1       23.916 -31.866   6.613  0.00  0.00    -0.139 S 
ATOM      7  CB  LIG    1       24.090 -31.466   8.364  0.00  0.00    +0.104 C 
ENDROOT
BRANCH   3   8
ATOM      8  CA  LIG    1       25.349 -27.394   5.909  0.00  0.00    +0.160 C 
ATOM      9  N   LIG    1       24.065 -26.725   5.899  0.00  0.00    -0.304 N 
ATOM     10  H   LIG    1       23.161 -27.179   5.845  0.00  0.00    +0.149 HD
ATOM     11  C   LIG    1       24.151 -25.423   6.344  0.00  0.00    +0.214 C 
ATOM     12  O   LIG    1       23.203 -24.679   6.553  0.00  0.00    -0.276 OA
ATOM     13  C   LIG    1       25.602 -25.100   6.570  0.00  0.00    +0.098 C 
ATOM     14  C   LIG    1       26.291 -26.204   5.774  0.00  0.00    +0.041 C 
ENDBRANCH   3   8
BRANCH   1  16
ATOM     15  O   LIG    1       26.916 -32.098   8.318  0.00  0.00    -0.249 OA
ATOM     16  C   LIG    1       26.566 -30.977   8.655  0.00  0.00    +0.326 C 
BRANCH  16  17
ATOM     17  OXT LIG    1       27.392 -30.148   9.341  0.00  0.00    -0.479 OA
ATOM     18  HXT LIG    1       27.000 -29.258   9.515  0.00  0.00    +0.295 HD
ENDBRANCH  16  17
ENDBRANCH   1  16
TORSDOF 3
ENDMDL
MODEL 9
REMARK VINA RESULT:      -5.9      2.453      5.385
REMARK  Name = *****
REMARK                            x       y       z     vdW  Elec       q    Type
REMARK                         _______ _______ _______ _____ _____    ______ ____
ROOT
ATOM      1  CA  LIG    1       24.682 -23.543   6.645  0.00  0.00    +0.195 C 
ATOM      2  N   LIG    1       25.158 -22.147   6.563  0.00  0.00    -0.276 N 
ATOM      3  C   LIG    1       26.444 -21.817   6.941  0.00  0.00    +0.237 C 
ATOM      4  O   LIG    1       27.207 -22.725   7.293  0.00  0.00    -0.274 OA
ATOM      5  C   LIG    1       24.184 -21.226   6.014  0.00  0.00    +0.178 C 
ATOM      6  SG  LIG    1       22.607 -22.074   5.876  0.00  0.00    -0.139 S 
ATOM      7  CB  LIG    1       23.164 -23.529   6.788  0.00  0.00    +0.104 C 
ENDROOT
BRANCH   3   8
ATOM      8  CA  LIG    1       26.889 -20.320   6.942  0.00  0.00    +0.160 C 
ATOM      9  N   LIG    1       27.697 -20.001   8.100  0.00  0.00    -0.304 N 
ATOM     10  H   LIG    1       27.383 -20.013   9.063  0.00  0.00    +0.149 HD
ATOM     11  C   LIG    1       29.046 -20.035   7.821  0.00  0.00    +0.214 C 
ATOM     12  O   LIG    1       29.946 -19.928   8.643  0.00  0.00    -0.276 OA
ATOM     13  C   LIG    1       29.213 -20.271   6.346  0.00  0.00    +0.098 C 
ATOM     14  C   LIG    1       27.829 -19.909   5.816  0.00  0.00    +0.041 C 
ENDBRANCH   3   8
BRANCH   1  16
ATOM     15  O   LIG    1       25.861 -25.377   5.521  0.00  0.00    -0.249 OA
ATOM     16  C   LIG    1       25.142 -24.391   5.448  0.00  0.00    +0.326 C 
BRANCH  16  17
ATOM     17  OXT LIG    1       24.724 -23.901   4.254  0.00  0.00    -0.479 OA
ATOM     18  HXT LIG    1       23.799 -24.161   4.024  0.00  0.00    +0.295 HD
ENDBRANCH  16  17
ENDBRANCH   1  16
TORSDOF 3
ENDMDL
