MODEL 1
REMARK VINA RESULT:      -5.6      0.000      0.000
REMARK  Name = *****
REMARK                            x       y       z     vdW  Elec       q    Type
REMARK                         _______ _______ _______ _____ _____    ______ ____
ROOT
ATOM      1  C   LIG    1       29.475 -18.233   5.649  0.00  0.00    +0.027 C 
ATOM      2  C   LIG    1       28.041 -18.269   5.116  0.00  0.00    +0.084 C 
ENDROOT
BRANCH   2   3
ATOM      3  N   LIG    1       27.995 -17.338   3.965  0.00  0.00    -0.305 NA
ATOM      4  H   LIG    1       27.560 -17.817   3.177  0.00  0.00    +0.123 HD
BRANCH   3   5
ATOM      5  C   LIG    1       27.276 -16.069   4.226  0.00  0.00    +0.088 C 
ATOM      6  C   LIG    1       28.199 -14.849   4.106  0.00  0.00    +0.027 C 
BRANCH   5   7
ATOM      7  C   LIG    1       26.106 -15.935   3.215  0.00  0.00    +0.247 C 
BRANCH   7   8
ATOM      8  O   LIG    1       26.206 -14.720   2.453  0.00  0.00    -0.490 OA
BRANCH   8   9
ATOM      9  C   LIG    1       25.376 -13.706   2.862  0.00  0.00    +0.121 A 
ATOM     10  C   LIG    1       25.070 -12.733   1.905  0.00  0.00    +0.045 A 
ATOM     11  C   LIG    1       24.229 -11.658   2.230  0.00  0.00    +0.004 A 
ATOM     12  C   LIG    1       23.706 -11.544   3.516  0.00  0.00    +0.000 A 
ATOM     13  C   LIG    1       24.029 -12.496   4.478  0.00  0.00    +0.004 A 
ATOM     14  C   LIG    1       24.865 -13.567   4.155  0.00  0.00    +0.045 A 
ENDBRANCH   8   9
ENDBRANCH   7   8
ENDBRANCH   5   7
ENDBRANCH   3   5
ENDBRANCH   2   3
BRANCH   2  15
ATOM     15  C   LIG    1       27.540 -19.727   4.855  0.00  0.00    +0.161 C 
BRANCH  15  16
ATOM     16  C   LIG    1       26.042 -19.935   4.862  0.00  0.00    -0.018 A 
ATOM     17  C   LIG    1       25.428 -20.591   5.944  0.00  0.00    +0.010 A 
ATOM     18  C   LIG    1       24.051 -20.800   5.968  0.00  0.00    +0.046 A 
ATOM     19  C   LIG    1       23.270 -20.345   4.908  0.00  0.00    +0.117 A 
ATOM     20  C   LIG    1       23.851 -19.691   3.830  0.00  0.00    +0.046 A 
ATOM     21  C   LIG    1       25.230 -19.490   3.802  0.00  0.00    +0.010 A 
BRANCH  19  22
ATOM     22  O   LIG    1       21.921 -20.559   4.977  0.00  0.00    -0.507 OA
ATOM     23  H   LIG    1       21.776 -21.444   5.348  0.00  0.00    +0.292 HD
ENDBRANCH  19  22
ENDBRANCH  15  16
BRANCH  15  24
ATOM     24  O   LIG    1       28.166 -20.623   5.785  0.00  0.00    -0.386 OA
ATOM     25  H   LIG    1       28.914 -20.137   6.175  0.00  0.00    +0.210 HD
ENDBRANCH  15  24
ENDBRANCH   2  15
TORSDOF 9
ENDMDL
MODEL 2
REMARK VINA RESULT:      -5.4      1.595      2.245
REMARK  Name = *****
REMARK                            x       y       z     vdW  Elec       q    Type
REMARK                         _______ _______ _______ _____ _____    ______ ____
ROOT
ATOM      1  C   LIG    1       28.041 -20.787   6.831  0.00  0.00    +0.027 C 
ATOM      2  C   LIG    1       26.953 -20.046   6.051  0.00  0.00    +0.084 C 
ENDROOT
BRANCH   2   3
ATOM      3  N   LIG    1       27.600 -19.502   4.836  0.00  0.00    -0.305 NA
ATOM      4  H   LIG    1       26.981 -19.656   4.041  0.00  0.00    +0.123 HD
BRANCH   3   5
ATOM      5  C   LIG    1       27.949 -18.064   4.914  0.00  0.00    +0.088 C 
ATOM      6  C   LIG    1       29.464 -17.834   4.828  0.00  0.00    +0.027 C 
BRANCH   5   7
ATOM      7  C   LIG    1       27.244 -17.309   3.755  0.00  0.00    +0.247 C 
BRANCH   7   8
ATOM      8  O   LIG    1       27.562 -15.907   3.770  0.00  0.00    -0.490 OA
BRANCH   8   9
ATOM      9  C   LIG    1       26.508 -15.070   3.497  0.00  0.00    +0.121 A 
ATOM     10  C   LIG    1       26.792 -13.962   2.692  0.00  0.00    +0.045 A 
ATOM     11  C   LIG    1       25.780 -13.049   2.358  0.00  0.00    +0.004 A 
ATOM     12  C   LIG    1       24.487 -13.233   2.843  0.00  0.00    +0.000 A 
ATOM     13  C   LIG    1       24.206 -14.320   3.665  0.00  0.00    +0.004 A 
ATOM     14  C   LIG    1       25.214 -15.228   3.997  0.00  0.00    +0.045 A 
ENDBRANCH   8   9
ENDBRANCH   7   8
ENDBRANCH   5   7
ENDBRANCH   3   5
ENDBRANCH   2   3
BRANCH   2  15
ATOM     15  C   LIG    1       25.678 -20.924   5.830  0.00  0.00    +0.161 C 
BRANCH  15  16
ATOM     16  C   LIG    1       24.472 -20.224   5.243  0.00  0.00    -0.018 A 
ATOM     17  C   LIG    1       23.275 -20.153   5.977  0.00  0.00    +0.010 A 
ATOM     18  C   LIG    1       22.149 -19.520   5.454  0.00  0.00    +0.046 A 
ATOM     19  C   LIG    1       22.215 -18.942   4.188  0.00  0.00    +0.117 A 
ATOM     20  C   LIG    1       23.387 -18.994   3.444  0.00  0.00    +0.046 A 
ATOM     21  C   LIG    1       24.509 -19.636   3.965  0.00  0.00    +0.010 A 
BRANCH  19  22
ATOM     22  O   LIG    1       21.093 -18.318   3.717  0.00  0.00    -0.507 OA
ATOM     23  H   LIG    1       20.333 -18.639   4.229  0.00  0.00    +0.292 HD
ENDBRANCH  19  22
ENDBRANCH  15  16
BRANCH  15  24
ATOM     24  O   LIG    1       25.321 -21.571   7.060  0.00  0.00    -0.386 OA
ATOM     25  H   LIG    1       24.981 -22.451   6.820  0.00  0.00    +0.210 HD
ENDBRANCH  15  24
ENDBRANCH   2  15
TORSDOF 9
ENDMDL
MODEL 3
REMARK VINA RESULT:      -5.4      2.073      4.556
REMARK  Name = *****
REMARK                            x       y       z     vdW  Elec       q    Type
REMARK                         _______ _______ _______ _____ _____    ______ ____
ROOT
ATOM      1  C   LIG    1       23.034 -21.188   7.057  0.00  0.00    +0.027 C 
ATOM      2  C   LIG    1       23.096 -20.779   5.584  0.00  0.00    +0.084 C 
ENDROOT
BRANCH   2   3
ATOM      3  N   LIG    1       22.910 -19.310   5.545  0.00  0.00    -0.305 NA
ATOM      4  H   LIG    1       23.728 -18.869   5.965  0.00  0.00    +0.123 HD
BRANCH   3   5
ATOM      5  C   LIG    1       22.692 -18.751   4.191  0.00  0.00    +0.088 C 
ATOM      6  C   LIG    1       21.218 -18.820   3.770  0.00  0.00    +0.027 C 
BRANCH   5   7
ATOM      7  C   LIG    1       23.167 -17.273   4.171  0.00  0.00    +0.247 C 
BRANCH   7   8
ATOM      8  O   LIG    1       24.534 -17.166   3.741  0.00  0.00    -0.490 OA
BRANCH   8   9
ATOM      9  C   LIG    1       25.036 -15.888   3.714  0.00  0.00    +0.121 A 
ATOM     10  C   LIG    1       26.369 -15.755   3.311  0.00  0.00    +0.045 A 
ATOM     11  C   LIG    1       26.970 -14.489   3.251  0.00  0.00    +0.004 A 
ATOM     12  C   LIG    1       26.245 -13.355   3.611  0.00  0.00    +0.000 A 
ATOM     13  C   LIG    1       24.927 -13.485   4.037  0.00  0.00    +0.004 A 
ATOM     14  C   LIG    1       24.329 -14.745   4.095  0.00  0.00    +0.045 A 
ENDBRANCH   8   9
ENDBRANCH   7   8
ENDBRANCH   5   7
ENDBRANCH   3   5
ENDBRANCH   2   3
BRANCH   2  15
ATOM     15  C   LIG    1       24.363 -21.342   4.863  0.00  0.00    +0.161 C 
BRANCH  15  16
ATOM     16  C   LIG    1       25.701 -20.924   5.430  0.00  0.00    -0.018 A 
ATOM     17  C   LIG    1       26.422 -19.875   4.831  0.00  0.00    +0.010 A 
ATOM     18  C   LIG    1       27.660 -19.477   5.331  0.00  0.00    +0.046 A 
ATOM     19  C   LIG    1       28.187 -20.124   6.447  0.00  0.00    +0.117 A 
ATOM     20  C   LIG    1       27.495 -21.160   7.060  0.00  0.00    +0.046 A 
ATOM     21  C   LIG    1       26.261 -21.563   6.553  0.00  0.00    +0.010 A 
BRANCH  19  22
ATOM     22  O   LIG    1       29.399 -19.694   6.915  0.00  0.00    -0.507 OA
ATOM     23  H   LIG    1       30.029 -20.428   6.834  0.00  0.00    +0.292 HD
ENDBRANCH  19  22
ENDBRANCH  15  16
BRANCH  15  24
ATOM     24  O   LIG    1       24.300 -21.026   3.465  0.00  0.00    -0.386 OA
ATOM     25  H   LIG    1       24.342 -20.056   3.400  0.00  0.00    +0.210 HD
ENDBRANCH  15  24
ENDBRANCH   2  15
TORSDOF 9
ENDMDL
MODEL 4
REMARK VINA RESULT:      -4.9      2.239      4.549
REMARK  Name = *****
REMARK                            x       y       z     vdW  Elec       q    Type
REMARK                         _______ _______ _______ _____ _____    ______ ____
ROOT
ATOM      1  C   LIG    1       21.109 -18.695   3.680  0.00  0.00    +0.027 C 
ATOM      2  C   LIG    1       22.438 -18.708   4.438  0.00  0.00    +0.084 C 
ENDROOT
BRANCH   2   3
ATOM      3  N   LIG    1       22.372 -17.604   5.423  0.00  0.00    -0.305 NA
ATOM      4  H   LIG    1       23.209 -17.637   6.004  0.00  0.00    +0.123 HD
BRANCH   3   5
ATOM      5  C   LIG    1       22.241 -16.253   4.829  0.00  0.00    +0.088 C 
ATOM      6  C   LIG    1       21.998 -15.177   5.896  0.00  0.00    +0.027 C 
BRANCH   5   7
ATOM      7  C   LIG    1       23.536 -15.919   4.042  0.00  0.00    +0.247 C 
BRANCH   7   8
ATOM      8  O   LIG    1       23.870 -14.524   4.147  0.00  0.00    -0.490 OA
BRANCH   8   9
ATOM      9  C   LIG    1       25.203 -14.233   3.995  0.00  0.00    +0.121 A 
ATOM     10  C   LIG    1       25.847 -13.684   5.108  0.00  0.00    +0.045 A 
ATOM     11  C   LIG    1       27.209 -13.353   5.050  0.00  0.00    +0.004 A 
ATOM     12  C   LIG    1       27.925 -13.554   3.871  0.00  0.00    +0.000 A 
ATOM     13  C   LIG    1       27.283 -14.076   2.753  0.00  0.00    +0.004 A 
ATOM     14  C   LIG    1       25.927 -14.406   2.813  0.00  0.00    +0.045 A 
ENDBRANCH   8   9
ENDBRANCH   7   8
ENDBRANCH   5   7
ENDBRANCH   3   5
ENDBRANCH   2   3
BRANCH   2  15
ATOM     15  C   LIG    1       22.788 -20.124   4.999  0.00  0.00    +0.161 C 
BRANCH  15  16
ATOM     16  C   LIG    1       24.217 -20.336   5.449  0.00  0.00    -0.018 A 
ATOM     17  C   LIG    1       25.281 -19.891   4.644  0.00  0.00    +0.010 A 
ATOM     18  C   LIG    1       26.605 -20.081   5.035  0.00  0.00    +0.046 A 
ATOM     19  C   LIG    1       26.877 -20.714   6.246  0.00  0.00    +0.117 A 
ATOM     20  C   LIG    1       25.845 -21.159   7.062  0.00  0.00    +0.046 A 
ATOM     21  C   LIG    1       24.521 -20.977   6.665  0.00  0.00    +0.010 A 
BRANCH  19  22
ATOM     22  O   LIG    1       28.189 -20.869   6.599  0.00  0.00    -0.507 OA
ATOM     23  H   LIG    1       28.496 -20.034   6.986  0.00  0.00    +0.292 HD
ENDBRANCH  19  22
ENDBRANCH  15  16
BRANCH  15  24
ATOM     24  O   LIG    1       22.422 -21.125   4.038  0.00  0.00    -0.386 OA
ATOM     25  H   LIG    1       23.252 -21.533   3.736  0.00  0.00    +0.210 HD
ENDBRANCH  15  24
ENDBRANCH   2  15
TORSDOF 9
ENDMDL
MODEL 5
REMARK VINA RESULT:      -4.4      1.512      6.704
REMARK  Name = *****
REMARK                            x       y       z     vdW  Elec       q    Type
REMARK                         _______ _______ _______ _____ _____    ______ ____
ROOT
ATOM      1  C   LIG    1       26.098 -17.193   3.277  0.00  0.00    +0.027 C 
ATOM      2  C   LIG    1       27.145 -16.870   4.345  0.00  0.00    +0.084 C 
ENDROOT
BRANCH   2   3
ATOM      3  N   LIG    1       28.307 -17.748   4.076  0.00  0.00    -0.305 NA
ATOM      4  H   LIG    1       29.130 -17.163   3.933  0.00  0.00    +0.123 HD
BRANCH   3   5
ATOM      5  C   LIG    1       28.590 -18.742   5.138  0.00  0.00    +0.088 C 
ATOM      6  C   LIG    1       29.472 -18.159   6.250  0.00  0.00    +0.027 C 
BRANCH   5   7
ATOM      7  C   LIG    1       27.248 -19.230   5.744  0.00  0.00    +0.247 C 
BRANCH   7   8
ATOM      8  O   LIG    1       26.625 -20.224   4.913  0.00  0.00    -0.490 OA
BRANCH   8   9
ATOM      9  C   LIG    1       25.275 -20.383   5.108  0.00  0.00    +0.121 A 
ATOM     10  C   LIG    1       24.879 -20.784   6.388  0.00  0.00    +0.045 A 
ATOM     11  C   LIG    1       23.520 -20.973   6.684  0.00  0.00    +0.004 A 
ATOM     12  C   LIG    1       22.557 -20.777   5.696  0.00  0.00    +0.000 A 
ATOM     13  C   LIG    1       22.950 -20.402   4.415  0.00  0.00    +0.004 A 
ATOM     14  C   LIG    1       24.302 -20.214   4.121  0.00  0.00    +0.045 A 
ENDBRANCH   8   9
ENDBRANCH   7   8
ENDBRANCH   5   7
ENDBRANCH   3   5
ENDBRANCH   2   3
BRANCH   2  15
ATOM     15  C   LIG    1       27.436 -15.338   4.449  0.00  0.00    +0.161 C 
BRANCH  15  16
ATOM     16  C   LIG    1       26.376 -14.412   3.895  0.00  0.00    -0.018 A 
ATOM     17  C   LIG    1       26.517 -13.875   2.603  0.00  0.00    +0.010 A 
ATOM     18  C   LIG    1       25.557 -13.014   2.075  0.00  0.00    +0.046 A 
ATOM     19  C   LIG    1       24.436 -12.689   2.837  0.00  0.00    +0.117 A 
ATOM     20  C   LIG    1       24.270 -13.209   4.113  0.00  0.00    +0.046 A 
ATOM     21  C   LIG    1       25.236 -14.062   4.644  0.00  0.00    +0.010 A 
BRANCH  19  22
ATOM     22  O   LIG    1       23.511 -11.852   2.276  0.00  0.00    -0.507 OA
ATOM     23  H   LIG    1       23.108 -12.311   1.522  0.00  0.00    +0.292 HD
ENDBRANCH  19  22
ENDBRANCH  15  16
BRANCH  15  24
ATOM     24  O   LIG    1       28.706 -15.049   3.846  0.00  0.00    -0.386 OA
ATOM     25  H   LIG    1       28.874 -15.761   3.203  0.00  0.00    +0.210 HD
ENDBRANCH  15  24
ENDBRANCH   2  15
TORSDOF 9
ENDMDL
MODEL 6
REMARK VINA RESULT:      -4.1      1.211      2.154
REMARK  Name = *****
REMARK                            x       y       z     vdW  Elec       q    Type
REMARK                         _______ _______ _______ _____ _____    ______ ____
ROOT
ATOM      1  C   LIG    1       28.508 -18.852   5.232  0.00  0.00    +0.027 C 
ATOM      2  C   LIG    1       27.006 -19.055   5.024  0.00  0.00    +0.084 C 
ENDROOT
BRANCH   2   3
ATOM      3  N   LIG    1       26.747 -18.843   3.581  0.00  0.00    -0.305 NA
ATOM      4  H   LIG    1       26.156 -19.602   3.242  0.00  0.00    +0.123 HD
BRANCH   3   5
ATOM      5  C   LIG    1       26.115 -17.544   3.252  0.00  0.00    +0.088 C 
ATOM      6  C   LIG    1       24.680 -17.451   3.786  0.00  0.00    +0.027 C 
BRANCH   5   7
ATOM      7  C   LIG    1       26.969 -16.398   3.858  0.00  0.00    +0.247 C 
BRANCH   7   8
ATOM      8  O   LIG    1       27.041 -15.270   2.970  0.00  0.00    -0.490 OA
BRANCH   8   9
ATOM      9  C   LIG    1       26.051 -14.334   3.138  0.00  0.00    +0.121 A 
ATOM     10  C   LIG    1       25.831 -13.894   4.448  0.00  0.00    +0.045 A 
ATOM     11  C   LIG    1       24.841 -12.938   4.719  0.00  0.00    +0.004 A 
ATOM     12  C   LIG    1       24.057 -12.433   3.684  0.00  0.00    +0.000 A 
ATOM     13  C   LIG    1       24.256 -12.885   2.384  0.00  0.00    +0.004 A 
ATOM     14  C   LIG    1       25.242 -13.837   2.114  0.00  0.00    +0.045 A 
ENDBRANCH   8   9
ENDBRANCH   7   8
ENDBRANCH   5   7
ENDBRANCH   3   5
ENDBRANCH   2   3
BRANCH   2  15
ATOM     15  C   LIG    1       26.498 -20.402   5.634  0.00  0.00    +0.161 C 
BRANCH  15  16
ATOM     16  C   LIG    1       25.028 -20.710   5.455  0.00  0.00    -0.018 A 
ATOM     17  C   LIG    1       24.455 -20.684   4.171  0.00  0.00    +0.010 A 
ATOM     18  C   LIG    1       23.101 -20.957   3.983  0.00  0.00    +0.046 A 
ATOM     19  C   LIG    1       22.307 -21.269   5.084  0.00  0.00    +0.117 A 
ATOM     20  C   LIG    1       22.848 -21.305   6.362  0.00  0.00    +0.046 A 
ATOM     21  C   LIG    1       24.200 -21.022   6.550  0.00  0.00    +0.010 A 
BRANCH  19  22
ATOM     22  O   LIG    1       20.986 -21.544   4.855  0.00  0.00    -0.507 OA
ATOM     23  H   LIG    1       20.745 -22.318   5.387  0.00  0.00    +0.292 HD
ENDBRANCH  19  22
ENDBRANCH  15  16
BRANCH  15  24
ATOM     24  O   LIG    1       26.848 -20.462   7.024  0.00  0.00    -0.386 OA
ATOM     25  H   LIG    1       26.597 -19.603   7.408  0.00  0.00    +0.210 HD
ENDBRANCH  15  24
ENDBRANCH   2  15
TORSDOF 9
ENDMDL
MODEL 7
REMARK VINA RESULT:      -3.8      2.104      7.206
REMARK  Name = *****
REMARK                            x       y       z     vdW  Elec       q    Type
REMARK                         _______ _______ _______ _____ _____    ______ ____
ROOT
ATOM      1  C   LIG    1       22.607 -17.985   3.313  0.00  0.00    +0.027 C 
ATOM      2  C   LIG    1       23.740 -18.272   4.300  0.00  0.00    +0.084 C 
ENDROOT
BRANCH   2   3
ATOM      3  N   LIG    1       23.826 -19.745   4.428  0.00  0.00    -0.305 NA
ATOM      4  H   LIG    1       24.792 -20.029   4.268  0.00  0.00    +0.123 HD
BRANCH   3   5
ATOM      5  C   LIG    1       23.366 -20.279   5.731  0.00  0.00    +0.088 C 
ATOM      6  C   LIG    1       22.396 -21.456   5.560  0.00  0.00    +0.027 C 
BRANCH   5   7
ATOM      7  C   LIG    1       24.600 -20.741   6.552  0.00  0.00    +0.247 C 
BRANCH   7   8
ATOM      8  O   LIG    1       25.638 -21.252   5.699  0.00  0.00    -0.490 OA
BRANCH   8   9
ATOM      9  C   LIG    1       26.901 -20.795   5.983  0.00  0.00    +0.121 A 
ATOM     10  C   LIG    1       27.301 -19.630   5.321  0.00  0.00    +0.045 A 
ATOM     11  C   LIG    1       28.574 -19.086   5.546  0.00  0.00    +0.004 A 
ATOM     12  C   LIG    1       29.457 -19.716   6.420  0.00  0.00    +0.000 A 
ATOM     13  C   LIG    1       29.073 -20.890   7.062  0.00  0.00    +0.004 A 
ATOM     14  C   LIG    1       27.805 -21.430   6.838  0.00  0.00    +0.045 A 
ENDBRANCH   8   9
ENDBRANCH   7   8
ENDBRANCH   5   7
ENDBRANCH   3   5
ENDBRANCH   2   3
BRANCH   2  15
ATOM     15  C   LIG    1       25.061 -17.526   3.922  0.00  0.00    +0.161 C 
BRANCH  15  16
ATOM     16  C   LIG    1       24.944 -16.041   3.661  0.00  0.00    -0.018 A 
ATOM     17  C   LIG    1       25.914 -15.385   2.882  0.00  0.00    +0.010 A 
ATOM     18  C   LIG    1       25.831 -14.016   2.634  0.00  0.00    +0.046 A 
ATOM     19  C   LIG    1       24.765 -13.289   3.160  0.00  0.00    +0.117 A 
ATOM     20  C   LIG    1       23.791 -13.913   3.928  0.00  0.00    +0.046 A 
ATOM     21  C   LIG    1       23.881 -15.280   4.184  0.00  0.00    +0.010 A 
BRANCH  19  22
ATOM     22  O   LIG    1       24.713 -11.951   2.882  0.00  0.00    -0.507 OA
ATOM     23  H   LIG    1       25.608 -11.588   2.985  0.00  0.00    +0.292 HD
ENDBRANCH  19  22
ENDBRANCH  15  16
BRANCH  15  24
ATOM     24  O   LIG    1       25.675 -18.176   2.800  0.00  0.00    -0.386 OA
ATOM     25  H   LIG    1       25.065 -18.065   2.049  0.00  0.00    +0.210 HD
ENDBRANCH  15  24
ENDBRANCH   2  15
TORSDOF 9
ENDMDL
MODEL 8
REMARK VINA RESULT:      -3.5      2.449      7.375
REMARK  Name = *****
REMARK                            x       y       z     vdW  Elec       q    Type
REMARK                         _______ _______ _______ _____ _____    ______ ____
ROOT
ATOM      1  C   LIG    1       24.896 -17.165   3.684  0.00  0.00    +0.027 C 
ATOM      2  C   LIG    1       23.558 -16.438   3.827  0.00  0.00    +0.084 C 
ENDROOT
BRANCH   2   3
ATOM      3  N   LIG    1       22.811 -17.135   4.900  0.00  0.00    -0.305 NA
ATOM      4  H   LIG    1       22.203 -16.460   5.364  0.00  0.00    +0.123 HD
BRANCH   3   5
ATOM      5  C   LIG    1       22.004 -18.289   4.441  0.00  0.00    +0.088 C 
ATOM      6  C   LIG    1       22.249 -18.610   2.960  0.00  0.00    +0.027 C 
BRANCH   5   7
ATOM      7  C   LIG    1       22.357 -19.529   5.304  0.00  0.00    +0.247 C 
BRANCH   7   8
ATOM      8  O   LIG    1       23.272 -20.402   4.621  0.00  0.00    -0.490 OA
BRANCH   8   9
ATOM      9  C   LIG    1       24.551 -20.411   5.122  0.00  0.00    +0.121 A 
ATOM     10  C   LIG    1       24.688 -20.793   6.461  0.00  0.00    +0.045 A 
ATOM     11  C   LIG    1       25.955 -20.833   7.062  0.00  0.00    +0.004 A 
ATOM     12  C   LIG    1       27.085 -20.473   6.331  0.00  0.00    +0.000 A 
ATOM     13  C   LIG    1       26.951 -20.069   5.006  0.00  0.00    +0.004 A 
ATOM     14  C   LIG    1       25.689 -20.030   4.408  0.00  0.00    +0.045 A 
ENDBRANCH   8   9
ENDBRANCH   7   8
ENDBRANCH   5   7
ENDBRANCH   3   5
ENDBRANCH   2   3
BRANCH   2  15
ATOM     15  C   LIG    1       23.734 -14.893   3.990  0.00  0.00    +0.161 C 
BRANCH  15  16
ATOM     16  C   LIG    1       25.145 -14.360   3.871  0.00  0.00    -0.018 A 
ATOM     17  C   LIG    1       25.850 -13.972   5.024  0.00  0.00    +0.010 A 
ATOM     18  C   LIG    1       27.148 -13.472   4.938  0.00  0.00    +0.046 A 
ATOM     19  C   LIG    1       27.758 -13.363   3.690  0.00  0.00    +0.117 A 
ATOM     20  C   LIG    1       27.085 -13.743   2.536  0.00  0.00    +0.046 A 
ATOM     21  C   LIG    1       25.784 -14.234   2.622  0.00  0.00    +0.010 A 
BRANCH  19  22
ATOM     22  O   LIG    1       29.037 -12.880   3.650  0.00  0.00    -0.507 OA
ATOM     23  H   LIG    1       29.078 -12.195   2.963  0.00  0.00    +0.292 HD
ENDBRANCH  19  22
ENDBRANCH  15  16
BRANCH  15  24
ATOM     24  O   LIG    1       23.153 -14.472   5.232  0.00  0.00    -0.386 OA
ATOM     25  H   LIG    1       22.544 -15.180   5.506  0.00  0.00    +0.210 HD
ENDBRANCH  15  24
ENDBRANCH   2  15
TORSDOF 9
ENDMDL
MODEL 9
REMARK VINA RESULT:      -3.5      2.157      6.689
REMARK  Name = *****
REMARK                            x       y       z     vdW  Elec       q    Type
REMARK                         _______ _______ _______ _____ _____    ______ ____
ROOT
ATOM      1  C   LIG    1       23.738 -12.341   3.660  0.00  0.00    +0.027 C 
ATOM      2  C   LIG    1       24.216 -13.777   3.886  0.00  0.00    +0.084 C 
ENDROOT
BRANCH   2   3
ATOM      3  N   LIG    1       23.010 -14.635   3.845  0.00  0.00    -0.305 NA
ATOM      4  H   LIG    1       22.977 -15.107   2.941  0.00  0.00    +0.123 HD
BRANCH   3   5
ATOM      5  C   LIG    1       22.933 -15.644   4.927  0.00  0.00    +0.088 C 
ATOM      6  C   LIG    1       22.119 -15.140   6.127  0.00  0.00    +0.027 C 
BRANCH   5   7
ATOM      7  C   LIG    1       22.284 -16.938   4.368  0.00  0.00    +0.247 C 
BRANCH   7   8
ATOM      8  O   LIG    1       23.248 -17.759   3.689  0.00  0.00    -0.490 OA
BRANCH   8   9
ATOM      9  C   LIG    1       23.389 -19.029   4.193  0.00  0.00    +0.121 A 
ATOM     10  C   LIG    1       22.594 -19.346   5.300  0.00  0.00    +0.045 A 
ATOM     11  C   LIG    1       22.668 -20.619   5.886  0.00  0.00    +0.004 A 
ATOM     12  C   LIG    1       23.548 -21.571   5.376  0.00  0.00    +0.000 A 
ATOM     13  C   LIG    1       24.358 -21.252   4.291  0.00  0.00    +0.004 A 
ATOM     14  C   LIG    1       24.284 -19.984   3.708  0.00  0.00    +0.045 A 
ENDBRANCH   8   9
ENDBRANCH   7   8
ENDBRANCH   5   7
ENDBRANCH   3   5
ENDBRANCH   2   3
BRANCH   2  15
ATOM     15  C   LIG    1       25.386 -14.171   2.927  0.00  0.00    +0.161 C 
BRANCH  15  16
ATOM     16  C   LIG    1       26.338 -15.234   3.428  0.00  0.00    -0.018 A 
ATOM     17  C   LIG    1       26.052 -16.593   3.211  0.00  0.00    +0.010 A 
ATOM     18  C   LIG    1       26.911 -17.590   3.670  0.00  0.00    +0.046 A 
ATOM     19  C   LIG    1       28.075 -17.233   4.347  0.00  0.00    +0.117 A 
ATOM     20  C   LIG    1       28.384 -15.898   4.571  0.00  0.00    +0.046 A 
ATOM     21  C   LIG    1       27.519 -14.902   4.120  0.00  0.00    +0.010 A 
BRANCH  19  22
ATOM     22  O   LIG    1       28.897 -18.241   4.769  0.00  0.00    -0.507 OA
ATOM     23  H   LIG    1       29.411 -18.549   4.005  0.00  0.00    +0.292 HD
ENDBRANCH  19  22
ENDBRANCH  15  16
BRANCH  15  24
ATOM     24  O   LIG    1       26.116 -12.994   2.552  0.00  0.00    -0.386 OA
ATOM     25  H   LIG    1       25.467 -12.270   2.506  0.00  0.00    +0.210 HD
ENDBRANCH  15  24
ENDBRANCH   2  15
TORSDOF 9
ENDMDL
