MODEL 1
REMARK VINA RESULT:      -4.3      0.000      0.000
REMARK  Name = *****
REMARK                            x       y       z     vdW  Elec       q    Type
REMARK                         _______ _______ _______ _____ _____    ______ ____
ROOT
ATOM      1  C   LIG    1       24.329 -15.446   3.397  0.00  0.00    +0.226 C 
ATOM      2  O   LIG    1       25.586 -14.856   3.008  0.00  0.00    -0.349 OA
ATOM      3  C   LIG    1       25.835 -13.686   3.814  0.00  0.00    +0.177 C 
ATOM      4  C   LIG    1       24.536 -13.355   4.540  0.00  0.00    +0.226 C 
ATOM      5  C   LIG    1       23.856 -14.701   4.643  0.00  0.00    +0.091 C 
ENDROOT
BRANCH   1  14
ATOM      6  C   LIG    1       22.420 -19.823   4.815  0.00  0.00    +0.051 C 
ATOM      7  C   LIG    1       23.536 -18.975   4.301  0.00  0.00    +0.030 C 
ATOM      8  C   LIG    1       24.842 -19.622   4.044  0.00  0.00    +0.257 C 
ATOM      9  O   LIG    1       25.019 -20.822   4.219  0.00  0.00    -0.267 OA
ATOM     10  N   LIG    1       25.835 -18.795   3.605  0.00  0.00    -0.275 N 
ATOM     11  H   LIG    1       26.735 -19.216   3.437  0.00  0.00    +0.173 HD
ATOM     12  C   LIG    1       25.732 -17.448   3.377  0.00  0.00    +0.331 C 
ATOM     13  O   LIG    1       26.710 -16.811   2.991  0.00  0.00    -0.246 OA
ATOM     14  N   LIG    1       24.477 -16.892   3.600  0.00  0.00    -0.274 N 
ATOM     15  C   LIG    1       23.430 -17.663   4.068  0.00  0.00    +0.102 C 
ENDBRANCH   1  14
BRANCH   4  16
ATOM     16  N   LIG    1       23.705 -12.458   3.717  0.00  0.00    +0.083 NA
ATOM     17  N   LIG    1       24.276 -11.952   2.729  0.00  0.00    -0.014 NA
ATOM     18  N   LIG    1       24.815 -11.503   1.836  0.00  0.00    -0.328 NA
ENDBRANCH   4  16
BRANCH   3  19
ATOM     19  C   LIG    1       26.973 -14.006   4.790  0.00  0.00    +0.190 C 
BRANCH  19  20
ATOM     20  O   LIG    1       28.022 -14.699   4.116  0.00  0.00    -0.392 OA
ATOM     21  H   LIG    1       28.523 -15.178   4.802  0.00  0.00    +0.209 HD
ENDBRANCH  19  20
ENDBRANCH   3  19
TORSDOF 4
ENDMDL
MODEL 2
REMARK VINA RESULT:      -4.1      2.136      2.880
REMARK  Name = *****
REMARK                            x       y       z     vdW  Elec       q    Type
REMARK                         _______ _______ _______ _____ _____    ______ ____
ROOT
ATOM      1  C   LIG    1       26.468 -16.054   3.120  0.00  0.00    +0.226 C 
ATOM      2  O   LIG    1       27.598 -15.160   3.188  0.00  0.00    -0.349 OA
ATOM      3  C   LIG    1       27.141 -13.840   3.549  0.00  0.00    +0.177 C 
ATOM      4  C   LIG    1       25.624 -13.836   3.414  0.00  0.00    +0.226 C 
ATOM      5  C   LIG    1       25.260 -15.284   3.648  0.00  0.00    +0.091 C 
ENDROOT
BRANCH   1  14
ATOM      6  C   LIG    1       29.471 -18.768   6.023  0.00  0.00    +0.051 C 
ATOM      7  C   LIG    1       28.214 -18.575   5.241  0.00  0.00    +0.030 C 
ATOM      8  C   LIG    1       27.252 -19.697   5.177  0.00  0.00    +0.257 C 
ATOM      9  O   LIG    1       27.450 -20.757   5.761  0.00  0.00    -0.267 OA
ATOM     10  N   LIG    1       26.135 -19.477   4.425  0.00  0.00    -0.275 N 
ATOM     11  H   LIG    1       25.475 -20.235   4.359  0.00  0.00    +0.173 HD
ATOM     12  C   LIG    1       25.826 -18.330   3.741  0.00  0.00    +0.331 C 
ATOM     13  O   LIG    1       24.788 -18.262   3.087  0.00  0.00    -0.246 OA
ATOM     14  N   LIG    1       26.744 -17.291   3.859  0.00  0.00    -0.274 N 
ATOM     15  C   LIG    1       27.909 -17.450   4.585  0.00  0.00    +0.102 C 
ENDBRANCH   1  14
BRANCH   4  16
ATOM     16  N   LIG    1       25.235 -13.458   2.043  0.00  0.00    +0.083 NA
ATOM     17  N   LIG    1       24.569 -12.407   1.942  0.00  0.00    -0.014 NA
ATOM     18  N   LIG    1       23.965 -11.448   1.874  0.00  0.00    -0.328 NA
ENDBRANCH   4  16
BRANCH   3  19
ATOM     19  C   LIG    1       27.591 -13.552   4.987  0.00  0.00    +0.190 C 
BRANCH  19  20
ATOM     20  O   LIG    1       26.542 -12.919   5.716  0.00  0.00    -0.392 OA
ATOM     21  H   LIG    1       25.711 -13.340   5.427  0.00  0.00    +0.209 HD
ENDBRANCH  19  20
ENDBRANCH   3  19
TORSDOF 4
ENDMDL
MODEL 3
REMARK VINA RESULT:      -3.9      1.297      1.526
REMARK  Name = *****
REMARK                            x       y       z     vdW  Elec       q    Type
REMARK                         _______ _______ _______ _____ _____    ______ ____
ROOT
ATOM      1  C   LIG    1       25.864 -16.210   2.994  0.00  0.00    +0.226 C 
ATOM      2  O   LIG    1       27.187 -15.671   3.191  0.00  0.00    -0.349 OA
ATOM      3  C   LIG    1       27.084 -14.333   3.720  0.00  0.00    +0.177 C 
ATOM      4  C   LIG    1       25.630 -13.901   3.571  0.00  0.00    +0.226 C 
ATOM      5  C   LIG    1       24.883 -15.214   3.607  0.00  0.00    +0.091 C 
ENDROOT
BRANCH   1  14
ATOM      6  C   LIG    1       23.114 -20.158   4.285  0.00  0.00    +0.051 C 
ATOM      7  C   LIG    1       24.415 -19.432   4.187  0.00  0.00    +0.030 C 
ATOM      8  C   LIG    1       25.623 -20.087   4.736  0.00  0.00    +0.257 C 
ATOM      9  O   LIG    1       25.585 -21.203   5.241  0.00  0.00    -0.267 OA
ATOM     10  N   LIG    1       26.779 -19.367   4.646  0.00  0.00    -0.275 N 
ATOM     11  H   LIG    1       27.610 -19.791   5.027  0.00  0.00    +0.173 HD
ATOM     12  C   LIG    1       26.920 -18.119   4.098  0.00  0.00    +0.331 C 
ATOM     13  O   LIG    1       28.020 -17.570   4.090  0.00  0.00    -0.246 OA
ATOM     14  N   LIG    1       25.765 -17.558   3.564  0.00  0.00    -0.274 N 
ATOM     15  C   LIG    1       24.553 -18.220   3.640  0.00  0.00    +0.102 C 
ENDBRANCH   1  14
BRANCH   4  16
ATOM     16  N   LIG    1       25.419 -13.264   2.259  0.00  0.00    +0.083 NA
ATOM     17  N   LIG    1       24.612 -12.311   2.247  0.00  0.00    -0.014 NA
ATOM     18  N   LIG    1       23.875 -11.447   2.259  0.00  0.00    -0.328 NA
ENDBRANCH   4  16
BRANCH   3  19
ATOM     19  C   LIG    1       27.528 -14.360   5.187  0.00  0.00    +0.190 C 
BRANCH  19  20
ATOM     20  O   LIG    1       26.815 -13.380   5.938  0.00  0.00    -0.392 OA
ATOM     21  H   LIG    1       27.200 -13.384   6.834  0.00  0.00    +0.209 HD
ENDBRANCH  19  20
ENDBRANCH   3  19
TORSDOF 4
ENDMDL
MODEL 4
REMARK VINA RESULT:      -3.5      2.092      2.715
REMARK  Name = *****
REMARK                            x       y       z     vdW  Elec       q    Type
REMARK                         _______ _______ _______ _____ _____    ______ ____
ROOT
ATOM      1  C   LIG    1       24.722 -17.150   3.312  0.00  0.00    +0.226 C 
ATOM      2  O   LIG    1       26.101 -17.343   2.938  0.00  0.00    -0.349 OA
ATOM      3  C   LIG    1       26.852 -16.153   3.255  0.00  0.00    +0.177 C 
ATOM      4  C   LIG    1       25.844 -15.055   3.570  0.00  0.00    +0.226 C 
ATOM      5  C   LIG    1       24.648 -15.829   4.073  0.00  0.00    +0.091 C 
ENDROOT
BRANCH   1  14
ATOM      6  C   LIG    1       25.535 -21.570   5.462  0.00  0.00    +0.051 C 
ATOM      7  C   LIG    1       24.649 -20.427   5.091  0.00  0.00    +0.030 C 
ATOM      8  C   LIG    1       23.221 -20.497   5.474  0.00  0.00    +0.257 C 
ATOM      9  O   LIG    1       22.762 -21.446   6.099  0.00  0.00    -0.267 OA
ATOM     10  N   LIG    1       22.451 -19.439   5.084  0.00  0.00    -0.275 N 
ATOM     11  H   LIG    1       21.474 -19.476   5.325  0.00  0.00    +0.173 HD
ATOM     12  C   LIG    1       22.875 -18.336   4.389  0.00  0.00    +0.331 C 
ATOM     13  O   LIG    1       22.074 -17.454   4.086  0.00  0.00    -0.246 OA
ATOM     14  N   LIG    1       24.230 -18.299   4.082  0.00  0.00    -0.274 N 
ATOM     15  C   LIG    1       25.066 -19.346   4.424  0.00  0.00    +0.102 C 
ENDBRANCH   1  14
BRANCH   4  16
ATOM     16  N   LIG    1       25.468 -14.338   2.338  0.00  0.00    +0.083 NA
ATOM     17  N   LIG    1       24.862 -13.260   2.506  0.00  0.00    -0.014 NA
ATOM     18  N   LIG    1       24.312 -12.282   2.683  0.00  0.00    -0.328 NA
ENDBRANCH   4  16
BRANCH   3  19
ATOM     19  C   LIG    1       27.760 -16.462   4.452  0.00  0.00    +0.190 C 
BRANCH  19  20
ATOM     20  O   LIG    1       28.277 -17.787   4.352  0.00  0.00    -0.392 OA
ATOM     21  H   LIG    1       29.249 -17.705   4.349  0.00  0.00    +0.209 HD
ENDBRANCH  19  20
ENDBRANCH   3  19
TORSDOF 4
ENDMDL
MODEL 5
REMARK VINA RESULT:      -3.2      2.293      2.843
REMARK  Name = *****
REMARK                            x       y       z     vdW  Elec       q    Type
REMARK                         _______ _______ _______ _____ _____    ______ ____
ROOT
ATOM      1  C   LIG    1       27.219 -15.743   3.730  0.00  0.00    +0.226 C 
ATOM      2  O   LIG    1       26.917 -14.965   4.907  0.00  0.00    -0.349 OA
ATOM      3  C   LIG    1       26.337 -13.705   4.512  0.00  0.00    +0.177 C 
ATOM      4  C   LIG    1       26.554 -13.561   3.010  0.00  0.00    +0.226 C 
ATOM      5  C   LIG    1       26.622 -14.996   2.540  0.00  0.00    +0.091 C 
ENDROOT
BRANCH   1  14
ATOM      6  C   LIG    1       23.519 -19.049   3.294  0.00  0.00    +0.051 C 
ATOM      7  C   LIG    1       24.915 -18.674   3.667  0.00  0.00    +0.030 C 
ATOM      8  C   LIG    1       25.787 -19.718   4.248  0.00  0.00    +0.257 C 
ATOM      9  O   LIG    1       25.403 -20.871   4.407  0.00  0.00    -0.267 OA
ATOM     10  N   LIG    1       27.042 -19.313   4.599  0.00  0.00    -0.275 N 
ATOM     11  H   LIG    1       27.646 -20.008   5.009  0.00  0.00    +0.173 HD
ATOM     12  C   LIG    1       27.560 -18.052   4.457  0.00  0.00    +0.331 C 
ATOM     13  O   LIG    1       28.708 -17.812   4.825  0.00  0.00    -0.246 OA
ATOM     14  N   LIG    1       26.716 -17.114   3.874  0.00  0.00    -0.274 N 
ATOM     15  C   LIG    1       25.423 -17.446   3.516  0.00  0.00    +0.102 C 
ENDBRANCH   1  14
BRANCH   4  16
ATOM     16  N   LIG    1       27.847 -12.906   2.743  0.00  0.00    +0.083 NA
ATOM     17  N   LIG    1       28.472 -12.517   3.751  0.00  0.00    -0.014 NA
ATOM     18  N   LIG    1       29.024 -12.171   4.681  0.00  0.00    -0.328 NA
ENDBRANCH   4  16
BRANCH   3  19
ATOM     19  C   LIG    1       24.848 -13.726   4.877  0.00  0.00    +0.190 C 
BRANCH  19  20
ATOM     20  O   LIG    1       24.169 -12.640   4.250  0.00  0.00    -0.392 OA
ATOM     21  H   LIG    1       24.838 -11.947   4.097  0.00  0.00    +0.209 HD
ENDBRANCH  19  20
ENDBRANCH   3  19
TORSDOF 4
ENDMDL
MODEL 6
REMARK VINA RESULT:      -3.0      2.225      2.698
REMARK  Name = *****
REMARK                            x       y       z     vdW  Elec       q    Type
REMARK                         _______ _______ _______ _____ _____    ______ ____
ROOT
ATOM      1  C   LIG    1       25.699 -15.329   4.092  0.00  0.00    +0.226 C 
ATOM      2  O   LIG    1       24.628 -14.401   4.358  0.00  0.00    -0.349 OA
ATOM      3  C   LIG    1       24.822 -13.208   3.570  0.00  0.00    +0.177 C 
ATOM      4  C   LIG    1       26.236 -13.268   3.005  0.00  0.00    +0.226 C 
ATOM      5  C   LIG    1       26.509 -14.752   2.933  0.00  0.00    +0.091 C 
ENDROOT
BRANCH   1  14
ATOM      6  C   LIG    1       21.872 -18.517   4.028  0.00  0.00    +0.051 C 
ATOM      7  C   LIG    1       23.312 -18.180   3.819  0.00  0.00    +0.030 C 
ATOM      8  C   LIG    1       24.225 -19.259   3.380  0.00  0.00    +0.257 C 
ATOM      9  O   LIG    1       23.828 -20.399   3.165  0.00  0.00    -0.267 OA
ATOM     10  N   LIG    1       25.534 -18.903   3.234  0.00  0.00    -0.275 N 
ATOM     11  H   LIG    1       26.173 -19.628   2.949  0.00  0.00    +0.173 HD
ATOM     12  C   LIG    1       26.068 -17.658   3.446  0.00  0.00    +0.331 C 
ATOM     13  O   LIG    1       27.273 -17.470   3.291  0.00  0.00    -0.246 OA
ATOM     14  N   LIG    1       25.166 -16.670   3.824  0.00  0.00    -0.274 N 
ATOM     15  C   LIG    1       23.829 -16.963   4.015  0.00  0.00    +0.102 C 
ENDBRANCH   1  14
BRANCH   4  16
ATOM     16  N   LIG    1       27.188 -12.650   3.946  0.00  0.00    +0.083 NA
ATOM     17  N   LIG    1       28.389 -12.940   3.765  0.00  0.00    -0.014 NA
ATOM     18  N   LIG    1       29.475 -13.218   3.582  0.00  0.00    -0.328 NA
ENDBRANCH   4  16
BRANCH   3  19
ATOM     19  C   LIG    1       23.761 -13.185   2.463  0.00  0.00    +0.190 C 
BRANCH  19  20
ATOM     20  O   LIG    1       23.720 -11.901   1.844  0.00  0.00    -0.392 OA
ATOM     21  H   LIG    1       23.520 -12.054   0.902  0.00  0.00    +0.209 HD
ENDBRANCH  19  20
ENDBRANCH   3  19
TORSDOF 4
ENDMDL
MODEL 7
REMARK VINA RESULT:      -2.8      1.494      2.066
REMARK  Name = *****
REMARK                            x       y       z     vdW  Elec       q    Type
REMARK                         _______ _______ _______ _____ _____    ______ ____
ROOT
ATOM      1  C   LIG    1       23.799 -15.216   3.762  0.00  0.00    +0.226 C 
ATOM      2  O   LIG    1       25.022 -14.932   3.051  0.00  0.00    -0.349 OA
ATOM      3  C   LIG    1       25.709 -13.841   3.698  0.00  0.00    +0.177 C 
ATOM      4  C   LIG    1       24.731 -13.217   4.686  0.00  0.00    +0.226 C 
ATOM      5  C   LIG    1       23.818 -14.370   5.033  0.00  0.00    +0.091 C 
ENDROOT
BRANCH   1  14
ATOM      6  C   LIG    1       25.632 -19.836   3.424  0.00  0.00    +0.051 C 
ATOM      7  C   LIG    1       24.573 -18.863   3.826  0.00  0.00    +0.030 C 
ATOM      8  C   LIG    1       23.341 -19.391   4.452  0.00  0.00    +0.257 C 
ATOM      9  O   LIG    1       23.182 -20.588   4.665  0.00  0.00    -0.267 OA
ATOM     10  N   LIG    1       22.394 -18.462   4.772  0.00  0.00    -0.275 N 
ATOM     11  H   LIG    1       21.542 -18.805   5.187  0.00  0.00    +0.173 HD
ATOM     12  C   LIG    1       22.483 -17.108   4.576  0.00  0.00    +0.331 C 
ATOM     13  O   LIG    1       21.550 -16.376   4.899  0.00  0.00    -0.246 OA
ATOM     14  N   LIG    1       23.673 -16.655   4.017  0.00  0.00    -0.274 N 
ATOM     15  C   LIG    1       24.667 -17.542   3.646  0.00  0.00    +0.102 C 
ENDBRANCH   1  14
BRANCH   4  16
ATOM     16  N   LIG    1       23.941 -12.162   4.025  0.00  0.00    +0.083 NA
ATOM     17  N   LIG    1       24.301 -11.867   2.866  0.00  0.00    -0.014 NA
ATOM     18  N   LIG    1       24.644 -11.616   1.813  0.00  0.00    -0.328 NA
ENDBRANCH   4  16
BRANCH   3  19
ATOM     19  C   LIG    1       26.952 -14.404   4.398  0.00  0.00    +0.190 C 
BRANCH  19  20
ATOM     20  O   LIG    1       27.506 -15.475   3.636  0.00  0.00    -0.392 OA
ATOM     21  H   LIG    1       28.472 -15.343   3.636  0.00  0.00    +0.209 HD
ENDBRANCH  19  20
ENDBRANCH   3  19
TORSDOF 4
ENDMDL
MODEL 8
REMARK VINA RESULT:      -2.6      2.500      3.316
REMARK  Name = *****
REMARK                            x       y       z     vdW  Elec       q    Type
REMARK                         _______ _______ _______ _____ _____    ______ ____
ROOT
ATOM      1  C   LIG    1       25.635 -15.273   3.977  0.00  0.00    +0.226 C 
ATOM      2  O   LIG    1       25.030 -13.964   4.001  0.00  0.00    -0.349 OA
ATOM      3  C   LIG    1       25.590 -13.161   2.941  0.00  0.00    +0.177 C 
ATOM      4  C   LIG    1       26.813 -13.900   2.414  0.00  0.00    +0.226 C 
ATOM      5  C   LIG    1       26.489 -15.346   2.714  0.00  0.00    +0.091 C 
ENDROOT
BRANCH   1  14
ATOM      6  C   LIG    1       24.234 -20.005   3.291  0.00  0.00    +0.051 C 
ATOM      7  C   LIG    1       23.961 -18.594   3.695  0.00  0.00    +0.030 C 
ATOM      8  C   LIG    1       22.590 -18.245   4.130  0.00  0.00    +0.257 C 
ATOM      9  O   LIG    1       21.694 -19.080   4.187  0.00  0.00    -0.267 OA
ATOM     10  N   LIG    1       22.389 -16.936   4.460  0.00  0.00    -0.275 N 
ATOM     11  H   LIG    1       21.458 -16.678   4.746  0.00  0.00    +0.173 HD
ATOM     12  C   LIG    1       23.325 -15.936   4.432  0.00  0.00    +0.331 C 
ATOM     13  O   LIG    1       23.012 -14.789   4.743  0.00  0.00    -0.246 OA
ATOM     14  N   LIG    1       24.607 -16.318   4.050  0.00  0.00    -0.274 N 
ATOM     15  C   LIG    1       24.879 -17.622   3.679  0.00  0.00    +0.102 C 
ENDBRANCH   1  14
BRANCH   4  16
ATOM     16  N   LIG    1       28.014 -13.509   3.175  0.00  0.00    +0.083 NA
ATOM     17  N   LIG    1       27.821 -13.225   4.375  0.00  0.00    -0.014 NA
ATOM     18  N   LIG    1       27.623 -12.972   5.464  0.00  0.00    -0.328 NA
ENDBRANCH   4  16
BRANCH   3  19
ATOM     19  C   LIG    1       24.519 -12.977   1.859  0.00  0.00    +0.190 C 
BRANCH  19  20
ATOM     20  O   LIG    1       23.785 -11.776   2.089  0.00  0.00    -0.392 OA
ATOM     21  H   LIG    1       24.405 -11.039   1.932  0.00  0.00    +0.209 HD
ENDBRANCH  19  20
ENDBRANCH   3  19
TORSDOF 4
ENDMDL
MODEL 9
REMARK VINA RESULT:      -2.4      2.424      6.296
REMARK  Name = *****
REMARK                            x       y       z     vdW  Elec       q    Type
REMARK                         _______ _______ _______ _____ _____    ______ ____
ROOT
ATOM      1  C   LIG    1       23.915 -18.557   4.013  0.00  0.00    +0.226 C 
ATOM      2  O   LIG    1       24.445 -19.094   5.243  0.00  0.00    -0.349 OA
ATOM      3  C   LIG    1       25.217 -20.278   4.953  0.00  0.00    +0.177 C 
ATOM      4  C   LIG    1       24.916 -20.671   3.512  0.00  0.00    +0.226 C 
ATOM      5  C   LIG    1       24.547 -19.352   2.873  0.00  0.00    +0.091 C 
ENDROOT
BRANCH   1  14
ATOM      6  C   LIG    1       26.979 -14.758   3.017  0.00  0.00    +0.051 C 
ATOM      7  C   LIG    1       25.664 -15.311   3.458  0.00  0.00    +0.030 C 
ATOM      8  C   LIG    1       24.609 -14.360   3.872  0.00  0.00    +0.257 C 
ATOM      9  O   LIG    1       24.780 -13.146   3.840  0.00  0.00    -0.267 OA
ATOM     10  N   LIG    1       23.439 -14.920   4.295  0.00  0.00    -0.275 N 
ATOM     11  H   LIG    1       22.714 -14.288   4.594  0.00  0.00    +0.173 HD
ATOM     12  C   LIG    1       23.156 -16.260   4.362  0.00  0.00    +0.331 C 
ATOM     13  O   LIG    1       22.061 -16.639   4.775  0.00  0.00    -0.246 OA
ATOM     14  N   LIG    1       24.164 -17.114   3.930  0.00  0.00    -0.274 N 
ATOM     15  C   LIG    1       25.385 -16.618   3.511  0.00  0.00    +0.102 C 
ENDBRANCH   1  14
BRANCH   4  16
ATOM     16  N   LIG    1       23.750 -21.572   3.462  0.00  0.00    +0.083 NA
ATOM     17  N   LIG    1       23.026 -21.572   4.478  0.00  0.00    -0.014 NA
ATOM     18  N   LIG    1       22.381 -21.556   5.413  0.00  0.00    -0.328 NA
ENDBRANCH   4  16
BRANCH   3  19
ATOM     19  C   LIG    1       26.700 -19.947   5.161  0.00  0.00    +0.190 C 
BRANCH  19  20
ATOM     20  O   LIG    1       27.279 -20.843   6.107  0.00  0.00    -0.392 OA
ATOM     21  H   LIG    1       28.131 -20.451   6.374  0.00  0.00    +0.209 HD
ENDBRANCH  19  20
ENDBRANCH   3  19
TORSDOF 4
ENDMDL
