MODEL 1
REMARK VINA RESULT:      -4.5      0.000      0.000
REMARK  Name = *****
REMARK                            x       y       z     vdW  Elec       q    Type
REMARK                         _______ _______ _______ _____ _____    ______ ____
ROOT
ATOM      1  C   LIG    1       22.616 -19.620   4.363  0.00  0.00    +0.158 C 
ENDROOT
BRANCH   1   2
ATOM      2  C   LIG    1       23.879 -20.158   5.029  0.00  0.00    -0.016 A 
ATOM      3  C   LIG    1       25.169 -19.706   4.678  0.00  0.00    +0.033 A 
ATOM      4  C   LIG    1       26.330 -20.169   5.328  0.00  0.00    +0.075 A 
ATOM      5  C   LIG    1       26.180 -21.090   6.368  0.00  0.00    +0.138 A 
ATOM      6  C   LIG    1       24.913 -21.540   6.742  0.00  0.00    +0.048 A 
ATOM      7  C   LIG    1       23.776 -21.073   6.084  0.00  0.00    +0.010 A 
BRANCH   4   8
ATOM      8  N   LIG    1       27.557 -19.644   4.860  0.00  0.00    -0.285 N 
ATOM      9  H   LIG    1       27.939 -20.010   3.997  0.00  0.00    +0.155 HD
ATOM     10  C   LIG    1       28.338 -18.681   5.417  0.00  0.00    +0.330 C 
ATOM     11  O   LIG    1       29.392 -18.316   4.889  0.00  0.00    -0.279 OA
ENDBRANCH   4   8
BRANCH   5  12
ATOM     12  O   LIG    1       27.255 -21.571   7.057  0.00  0.00    -0.505 OA
ATOM     13  H   LIG    1       27.401 -22.501   6.821  0.00  0.00    +0.292 HD
ENDBRANCH   5  12
ENDBRANCH   1   2
BRANCH   1  14
ATOM     14  O   LIG    1       22.812 -19.520   2.942  0.00  0.00    -0.386 OA
ATOM     15  H   LIG    1       23.095 -20.394   2.629  0.00  0.00    +0.210 HD
ENDBRANCH   1  14
BRANCH   1  16
ATOM     16  C   LIG    1       22.153 -18.241   4.904  0.00  0.00    +0.117 C 
BRANCH  16  17
ATOM     17  N   LIG    1       22.570 -17.128   4.041  0.00  0.00    -0.310 NA
ATOM     18  H   LIG    1       23.229 -17.481   3.343  0.00  0.00    +0.122 HD
BRANCH  17  19
ATOM     19  C   LIG    1       23.161 -15.994   4.779  0.00  0.00    +0.055 C 
ATOM     20  C   LIG    1       22.261 -15.518   5.930  0.00  0.00    +0.024 C 
BRANCH  19  21
ATOM     21  C   LIG    1       23.399 -14.825   3.787  0.00  0.00    +0.053 C 
BRANCH  21  25
ATOM     22  C   LIG    1       27.525 -13.527   3.816  0.00  0.00    +0.120 A 
ATOM     23  C   LIG    1       26.783 -13.555   4.996  0.00  0.00    +0.046 A 
ATOM     24  C   LIG    1       25.445 -13.954   4.976  0.00  0.00    +0.007 A 
ATOM     25  C   LIG    1       24.828 -14.329   3.776  0.00  0.00    -0.046 A 
ATOM     26  C   LIG    1       25.569 -14.272   2.590  0.00  0.00    +0.007 A 
ATOM     27  C   LIG    1       26.908 -13.871   2.613  0.00  0.00    +0.046 A 
BRANCH  22  29
ATOM     28  C   LIG    1       29.191 -11.990   4.475  0.00  0.00    +0.277 C 
ATOM     29  O   LIG    1       28.836 -13.146   3.722  0.00  0.00    -0.495 OA
ENDBRANCH  22  29
ENDBRANCH  21  25
ENDBRANCH  19  21
ENDBRANCH  17  19
ENDBRANCH  16  17
ENDBRANCH   1  16
TORSDOF 10
ENDMDL
MODEL 2
REMARK VINA RESULT:      -4.3      1.916      6.383
REMARK  Name = *****
REMARK                            x       y       z     vdW  Elec       q    Type
REMARK                         _______ _______ _______ _____ _____    ______ ____
ROOT
ATOM      1  C   LIG    1       24.122 -17.617   4.048  0.00  0.00    +0.158 C 
ENDROOT
BRANCH   1   2
ATOM      2  C   LIG    1       24.361 -16.110   4.012  0.00  0.00    -0.016 A 
ATOM      3  C   LIG    1       25.585 -15.549   3.588  0.00  0.00    +0.033 A 
ATOM      4  C   LIG    1       25.787 -14.158   3.509  0.00  0.00    +0.075 A 
ATOM      5  C   LIG    1       24.722 -13.318   3.845  0.00  0.00    +0.138 A 
ATOM      6  C   LIG    1       23.498 -13.849   4.253  0.00  0.00    +0.048 A 
ATOM      7  C   LIG    1       23.319 -15.230   4.328  0.00  0.00    +0.010 A 
BRANCH   4   8
ATOM      8  N   LIG    1       27.070 -13.738   3.087  0.00  0.00    -0.285 N 
ATOM      9  H   LIG    1       27.193 -13.462   2.121  0.00  0.00    +0.155 HD
ATOM     10  C   LIG    1       28.215 -13.644   3.814  0.00  0.00    +0.330 C 
ATOM     11  O   LIG    1       29.271 -13.252   3.310  0.00  0.00    -0.279 OA
ENDBRANCH   4   8
BRANCH   5  12
ATOM     12  O   LIG    1       24.835 -11.959   3.776  0.00  0.00    -0.505 OA
ATOM     13  H   LIG    1       25.741 -11.722   3.524  0.00  0.00    +0.292 HD
ENDBRANCH   5  12
ENDBRANCH   1   2
BRANCH   1  14
ATOM     14  O   LIG    1       24.849 -18.257   2.986  0.00  0.00    -0.386 OA
ATOM     15  H   LIG    1       24.353 -19.054   2.739  0.00  0.00    +0.210 HD
ENDBRANCH   1  14
BRANCH   1  16
ATOM     16  C   LIG    1       22.627 -18.024   3.951  0.00  0.00    +0.117 C 
BRANCH  16  17
ATOM     17  N   LIG    1       22.214 -18.916   5.042  0.00  0.00    -0.310 NA
ATOM     18  H   LIG    1       22.628 -18.582   5.915  0.00  0.00    +0.122 HD
BRANCH  17  19
ATOM     19  C   LIG    1       22.564 -20.332   4.816  0.00  0.00    +0.055 C 
ATOM     20  C   LIG    1       21.337 -21.183   4.453  0.00  0.00    +0.024 C 
BRANCH  19  21
ATOM     21  C   LIG    1       23.223 -20.893   6.103  0.00  0.00    +0.053 C 
BRANCH  21  25
ATOM     22  C   LIG    1       27.541 -20.645   6.044  0.00  0.00    +0.120 A 
ATOM     23  C   LIG    1       26.784 -20.049   5.037  0.00  0.00    +0.046 A 
ATOM     24  C   LIG    1       25.392 -20.152   5.050  0.00  0.00    +0.007 A 
ATOM     25  C   LIG    1       24.735 -20.853   6.069  0.00  0.00    -0.046 A 
ATOM     26  C   LIG    1       25.503 -21.475   7.062  0.00  0.00    +0.007 A 
ATOM     27  C   LIG    1       26.896 -21.371   7.046  0.00  0.00    +0.046 A 
BRANCH  22  29
ATOM     28  C   LIG    1       29.472 -19.344   6.437  0.00  0.00    +0.277 C 
ATOM     29  O   LIG    1       28.907 -20.613   6.122  0.00  0.00    -0.495 OA
ENDBRANCH  22  29
ENDBRANCH  21  25
ENDBRANCH  19  21
ENDBRANCH  17  19
ENDBRANCH  16  17
ENDBRANCH   1  16
TORSDOF 10
ENDMDL
MODEL 3
REMARK VINA RESULT:      -4.2      1.844      6.405
REMARK  Name = *****
REMARK                            x       y       z     vdW  Elec       q    Type
REMARK                         _______ _______ _______ _____ _____    ______ ____
ROOT
ATOM      1  C   LIG    1       23.054 -15.568   4.146  0.00  0.00    +0.158 C 
ENDROOT
BRANCH   1   2
ATOM      2  C   LIG    1       24.379 -14.863   3.873  0.00  0.00    -0.016 A 
ATOM      3  C   LIG    1       25.626 -15.485   4.097  0.00  0.00    +0.033 A 
ATOM      4  C   LIG    1       26.847 -14.850   3.798  0.00  0.00    +0.075 A 
ATOM      5  C   LIG    1       26.805 -13.569   3.241  0.00  0.00    +0.138 A 
ATOM      6  C   LIG    1       25.584 -12.940   2.996  0.00  0.00    +0.048 A 
ATOM      7  C   LIG    1       24.385 -13.584   3.302  0.00  0.00    +0.010 A 
BRANCH   4   8
ATOM      8  N   LIG    1       28.020 -15.584   4.094  0.00  0.00    -0.285 N 
ATOM      9  H   LIG    1       28.915 -15.126   3.987  0.00  0.00    +0.155 HD
ATOM     10  C   LIG    1       28.133 -16.871   4.518  0.00  0.00    +0.330 C 
ATOM     11  O   LIG    1       29.232 -17.385   4.743  0.00  0.00    -0.279 OA
ENDBRANCH   4   8
BRANCH   5  12
ATOM     12  O   LIG    1       27.945 -12.897   2.908  0.00  0.00    -0.505 OA
ATOM     13  H   LIG    1       28.260 -13.202   2.042  0.00  0.00    +0.292 HD
ENDBRANCH   5  12
ENDBRANCH   1   2
BRANCH   1  14
ATOM     14  O   LIG    1       22.539 -15.170   5.428  0.00  0.00    -0.386 OA
ATOM     15  H   LIG    1       21.900 -15.847   5.702  0.00  0.00    +0.210 HD
ENDBRANCH   1  14
BRANCH   1  16
ATOM     16  C   LIG    1       23.139 -17.117   4.098  0.00  0.00    +0.117 C 
BRANCH  16  17
ATOM     17  N   LIG    1       21.932 -17.765   4.629  0.00  0.00    -0.310 NA
ATOM     18  H   LIG    1       22.112 -18.059   5.591  0.00  0.00    +0.122 HD
BRANCH  17  19
ATOM     19  C   LIG    1       21.467 -18.908   3.820  0.00  0.00    +0.055 C 
ATOM     20  C   LIG    1       20.036 -18.706   3.297  0.00  0.00    +0.024 C 
BRANCH  19  21
ATOM     21  C   LIG    1       21.526 -20.190   4.690  0.00  0.00    +0.053 C 
BRANCH  21  25
ATOM     22  C   LIG    1       25.538 -20.966   6.108  0.00  0.00    +0.120 A 
ATOM     23  C   LIG    1       25.269 -20.910   4.742  0.00  0.00    +0.046 A 
ATOM     24  C   LIG    1       23.967 -20.681   4.291  0.00  0.00    +0.007 A 
ATOM     25  C   LIG    1       22.916 -20.507   5.199  0.00  0.00    -0.046 A 
ATOM     26  C   LIG    1       23.187 -20.593   6.570  0.00  0.00    +0.007 A 
ATOM     27  C   LIG    1       24.490 -20.823   7.018  0.00  0.00    +0.046 A 
BRANCH  22  29
ATOM     28  C   LIG    1       27.771 -20.232   6.330  0.00  0.00    +0.277 C 
ATOM     29  O   LIG    1       26.772 -21.192   6.656  0.00  0.00    -0.495 OA
ENDBRANCH  22  29
ENDBRANCH  21  25
ENDBRANCH  19  21
ENDBRANCH  17  19
ENDBRANCH  16  17
ENDBRANCH   1  16
TORSDOF 10
ENDMDL
MODEL 4
REMARK VINA RESULT:      -2.9      2.497      7.475
REMARK  Name = *****
REMARK                            x       y       z     vdW  Elec       q    Type
REMARK                         _______ _______ _______ _____ _____    ______ ____
ROOT
ATOM      1  C   LIG    1       26.469 -18.004   3.717  0.00  0.00    +0.158 C 
ENDROOT
BRANCH   1   2
ATOM      2  C   LIG    1       26.840 -16.529   3.600  0.00  0.00    -0.016 A 
ATOM      3  C   LIG    1       26.020 -15.594   2.931  0.00  0.00    +0.033 A 
ATOM      4  C   LIG    1       26.339 -14.225   2.867  0.00  0.00    +0.075 A 
ATOM      5  C   LIG    1       27.500 -13.788   3.510  0.00  0.00    +0.138 A 
ATOM      6  C   LIG    1       28.319 -14.691   4.190  0.00  0.00    +0.048 A 
ATOM      7  C   LIG    1       27.987 -16.044   4.240  0.00  0.00    +0.010 A 
BRANCH   4   8
ATOM      8  N   LIG    1       25.437 -13.407   2.147  0.00  0.00    -0.285 N 
ATOM      9  H   LIG    1       25.381 -13.520   1.143  0.00  0.00    +0.155 HD
ATOM     10  C   LIG    1       24.595 -12.450   2.619  0.00  0.00    +0.330 C 
ATOM     11  O   LIG    1       23.852 -11.812   1.867  0.00  0.00    -0.279 OA
ENDBRANCH   4   8
BRANCH   5  12
ATOM     12  O   LIG    1       27.868 -12.473   3.507  0.00  0.00    -0.505 OA
ATOM     13  H   LIG    1       28.234 -12.238   4.375  0.00  0.00    +0.292 HD
ENDBRANCH   5  12
ENDBRANCH   1   2
BRANCH   1  14
ATOM     14  O   LIG    1       25.105 -18.204   3.310  0.00  0.00    -0.386 OA
ATOM     15  H   LIG    1       24.902 -19.144   3.439  0.00  0.00    +0.210 HD
ENDBRANCH   1  14
BRANCH   1  16
ATOM     16  C   LIG    1       26.660 -18.595   5.139  0.00  0.00    +0.117 C 
BRANCH  16  17
ATOM     17  N   LIG    1       27.492 -19.806   5.140  0.00  0.00    -0.310 NA
ATOM     18  H   LIG    1       27.068 -20.497   4.516  0.00  0.00    +0.122 HD
BRANCH  17  19
ATOM     19  C   LIG    1       27.700 -20.383   6.482  0.00  0.00    +0.055 C 
ATOM     20  C   LIG    1       29.144 -20.867   6.688  0.00  0.00    +0.024 C 
BRANCH  19  21
ATOM     21  C   LIG    1       26.721 -21.572   6.669  0.00  0.00    +0.053 C 
BRANCH  21  25
ATOM     22  C   LIG    1       22.762 -20.618   5.213  0.00  0.00    +0.120 A 
ATOM     23  C   LIG    1       23.100 -20.389   6.546  0.00  0.00    +0.046 A 
ATOM     24  C   LIG    1       24.373 -20.719   7.015  0.00  0.00    +0.007 A 
ATOM     25  C   LIG    1       25.326 -21.286   6.159  0.00  0.00    -0.046 A 
ATOM     26  C   LIG    1       24.971 -21.541   4.829  0.00  0.00    +0.007 A 
ATOM     27  C   LIG    1       23.696 -21.210   4.363  0.00  0.00    +0.046 A 
BRANCH  22  29
ATOM     28  C   LIG    1       21.423 -19.051   4.062  0.00  0.00    +0.277 C 
ATOM     29  O   LIG    1       21.544 -20.341   4.654  0.00  0.00    -0.495 OA
ENDBRANCH  22  29
ENDBRANCH  21  25
ENDBRANCH  19  21
ENDBRANCH  17  19
ENDBRANCH  16  17
ENDBRANCH   1  16
TORSDOF 10
ENDMDL
MODEL 5
REMARK VINA RESULT:      -2.5      2.112      4.523
REMARK  Name = *****
REMARK                            x       y       z     vdW  Elec       q    Type
REMARK                         _______ _______ _______ _____ _____    ______ ____
ROOT
ATOM      1  C   LIG    1       27.990 -19.723   5.549  0.00  0.00    +0.158 C 
ENDROOT
BRANCH   1   2
ATOM      2  C   LIG    1       26.550 -20.159   5.805  0.00  0.00    -0.016 A 
ATOM      3  C   LIG    1       25.477 -19.737   4.991  0.00  0.00    +0.033 A 
ATOM      4  C   LIG    1       24.157 -20.179   5.199  0.00  0.00    +0.075 A 
ATOM      5  C   LIG    1       23.920 -21.084   6.238  0.00  0.00    +0.138 A 
ATOM      6  C   LIG    1       24.968 -21.527   7.046  0.00  0.00    +0.048 A 
ATOM      7  C   LIG    1       26.269 -21.074   6.827  0.00  0.00    +0.010 A 
BRANCH   4   8
ATOM      8  N   LIG    1       23.179 -19.659   4.319  0.00  0.00    -0.285 N 
ATOM      9  H   LIG    1       23.267 -19.856   3.330  0.00  0.00    +0.155 HD
ATOM     10  C   LIG    1       22.090 -18.899   4.611  0.00  0.00    +0.330 C 
ATOM     11  O   LIG    1       21.312 -18.517   3.733  0.00  0.00    -0.279 OA
ENDBRANCH   4   8
BRANCH   5  12
ATOM     12  O   LIG    1       22.671 -21.571   6.491  0.00  0.00    -0.505 OA
ATOM     13  H   LIG    1       22.502 -22.339   5.921  0.00  0.00    +0.292 HD
ENDBRANCH   5  12
ENDBRANCH   1   2
BRANCH   1  14
ATOM     14  O   LIG    1       28.558 -19.169   6.748  0.00  0.00    -0.386 OA
ATOM     15  H   LIG    1       27.821 -18.958   7.343  0.00  0.00    +0.210 HD
ENDBRANCH   1  14
BRANCH   1  16
ATOM     16  C   LIG    1       28.144 -18.693   4.398  0.00  0.00    +0.117 C 
BRANCH  16  17
ATOM     17  N   LIG    1       28.260 -17.313   4.889  0.00  0.00    -0.310 NA
ATOM     18  H   LIG    1       27.628 -17.193   5.684  0.00  0.00    +0.122 HD
BRANCH  17  19
ATOM     19  C   LIG    1       27.989 -16.292   3.858  0.00  0.00    +0.055 C 
ATOM     20  C   LIG    1       28.261 -14.867   4.367  0.00  0.00    +0.024 C 
BRANCH  19  21
ATOM     21  C   LIG    1       26.506 -16.411   3.417  0.00  0.00    +0.053 C 
BRANCH  21  25
ATOM     22  C   LIG    1       24.268 -12.711   3.529  0.00  0.00    +0.120 A 
ATOM     23  C   LIG    1       25.228 -12.929   2.541  0.00  0.00    +0.046 A 
ATOM     24  C   LIG    1       25.962 -14.116   2.524  0.00  0.00    +0.007 A 
ATOM     25  C   LIG    1       25.750 -15.103   3.495  0.00  0.00    -0.046 A 
ATOM     26  C   LIG    1       24.806 -14.866   4.502  0.00  0.00    +0.007 A 
ATOM     27  C   LIG    1       24.074 -13.677   4.517  0.00  0.00    +0.046 A 
BRANCH  22  29
ATOM     28  C   LIG    1       22.785 -11.453   4.867  0.00  0.00    +0.277 C 
ATOM     29  O   LIG    1       23.502 -11.584   3.643  0.00  0.00    -0.495 OA
ENDBRANCH  22  29
ENDBRANCH  21  25
ENDBRANCH  19  21
ENDBRANCH  17  19
ENDBRANCH  16  17
ENDBRANCH   1  16
TORSDOF 10
ENDMDL
