MODEL 1
REMARK VINA RESULT:      -8.1      0.000      0.000
REMARK  Name = *****
REMARK                            x       y       z     vdW  Elec       q    Type
REMARK                         _______ _______ _______ _____ _____    ______ ____
ROOT
ATOM      1  C   LIG    1       30.187 -19.879   7.326  0.00  0.00    +0.084 C 
ATOM      2  N   LIG    1       29.005 -20.510   7.923  0.00  0.00    -0.339 N 
ATOM      3  H   LIG    1       28.832 -20.160   8.868  0.00  0.00    +0.146 HD
ATOM      4  C   LIG    1       27.837 -20.547   7.153  0.00  0.00    +0.037 A 
ATOM      5  C   LIG    1       27.715 -19.861   5.929  0.00  0.00    -0.026 A 
ATOM      6  C   LIG    1       26.536 -19.964   5.167  0.00  0.00    +0.018 A 
ATOM      7  C   LIG    1       25.458 -20.746   5.602  0.00  0.00    +0.055 A 
ATOM      8  C   LIG    1       25.597 -21.393   6.839  0.00  0.00    +0.280 A 
ATOM      9  C   LIG    1       28.853 -19.023   5.407  0.00  0.00    +0.039 C 
ATOM     10  C   LIG    1       26.762 -21.307   7.609  0.00  0.00    +0.107 A 
ATOM     11  C   LIG    1       29.797 -18.631   6.532  0.00  0.00    +0.028 C 
ENDROOT
BRANCH   8  12
ATOM     12  N   LIG    1       24.513 -22.197   7.362  0.00  0.00    +0.080 N 
ATOM     13  O   LIG    1       24.490 -23.395   7.033  0.00  0.00    -0.576 OA
ATOM     14  O   LIG    1       23.681 -21.624   8.071  0.00  0.00    +0.042 OA
ENDBRANCH   8  12
BRANCH   1  15
ATOM     15  C   LIG    1       31.221 -19.538   8.430  0.00  0.00    +0.103 C 
BRANCH  15  16
ATOM     16  N   LIG    1       31.768 -18.172   8.306  0.00  0.00    -0.312 NA
ATOM     17  H   LIG    1       32.714 -18.217   7.928  0.00  0.00    +0.122 HD
BRANCH  16  19
ATOM     18  C   LIG    1       32.449 -16.064   9.465  0.00  0.00    +0.024 C 
ATOM     19  C   LIG    1       31.801 -17.445   9.583  0.00  0.00    +0.048 C 
ATOM     20  C   LIG    1       30.364 -17.284  10.090  0.00  0.00    +0.024 C 
ENDBRANCH  16  19
ENDBRANCH  15  16
ENDBRANCH   1  15
BRANCH   7  21
ATOM     21  C   LIG    1       24.225 -20.850   4.750  0.00  0.00    +0.197 C 
BRANCH  21  22
ATOM     22  O   LIG    1       24.166 -22.132   4.148  0.00  0.00    -0.390 OA
ATOM     23  H   LIG    1       25.066 -22.509   4.184  0.00  0.00    +0.210 HD
ENDBRANCH  21  22
ENDBRANCH   7  21
TORSDOF 6
ENDMDL
MODEL 2
REMARK VINA RESULT:      -8.1      3.644      6.991
REMARK  Name = *****
REMARK                            x       y       z     vdW  Elec       q    Type
REMARK                         _______ _______ _______ _____ _____    ______ ____
ROOT
ATOM      1  C   LIG    1       25.892 -21.024   6.033  0.00  0.00    +0.084 C 
ATOM      2  N   LIG    1       26.898 -21.765   6.802  0.00  0.00    -0.339 N 
ATOM      3  H   LIG    1       27.022 -22.713   6.440  0.00  0.00    +0.146 HD
ATOM      4  C   LIG    1       28.122 -21.128   7.042  0.00  0.00    +0.037 A 
ATOM      5  C   LIG    1       28.472 -19.907   6.434  0.00  0.00    -0.026 A 
ATOM      6  C   LIG    1       29.696 -19.282   6.741  0.00  0.00    +0.018 A 
ATOM      7  C   LIG    1       30.593 -19.854   7.651  0.00  0.00    +0.055 A 
ATOM      8  C   LIG    1       30.231 -21.086   8.216  0.00  0.00    +0.280 A 
ATOM      9  C   LIG    1       27.532 -19.240   5.465  0.00  0.00    +0.039 C 
ATOM     10  C   LIG    1       29.018 -21.721   7.928  0.00  0.00    +0.107 A 
ATOM     11  C   LIG    1       26.545 -20.244   4.891  0.00  0.00    +0.028 C 
ENDROOT
BRANCH   8  12
ATOM     12  N   LIG    1       31.123 -21.747   9.145  0.00  0.00    +0.080 N 
ATOM     13  O   LIG    1       32.175 -22.216   8.680  0.00  0.00    -0.576 OA
ATOM     14  O   LIG    1       30.757 -21.817  10.322  0.00  0.00    +0.042 OA
ENDBRANCH   8  12
BRANCH   1  15
ATOM     15  C   LIG    1       24.811 -21.998   5.498  0.00  0.00    +0.103 C 
BRANCH  15  16
ATOM     16  N   LIG    1       25.186 -23.418   5.654  0.00  0.00    -0.312 NA
ATOM     17  H   LIG    1       25.159 -23.879   4.745  0.00  0.00    +0.122 HD
BRANCH  16  19
ATOM     18  C   LIG    1       22.938 -23.489   6.746  0.00  0.00    +0.024 C 
ATOM     19  C   LIG    1       24.311 -24.147   6.583  0.00  0.00    +0.048 C 
ATOM     20  C   LIG    1       24.125 -25.575   6.060  0.00  0.00    +0.024 C 
ENDBRANCH  16  19
ENDBRANCH  15  16
ENDBRANCH   1  15
BRANCH   7  21
ATOM     21  C   LIG    1       31.880 -19.145   7.970  0.00  0.00    +0.197 C 
BRANCH  21  22
ATOM     22  O   LIG    1       32.090 -19.144   9.371  0.00  0.00    -0.390 OA
ATOM     23  H   LIG    1       33.004 -18.837   9.526  0.00  0.00    +0.210 HD
ENDBRANCH  21  22
ENDBRANCH   7  21
TORSDOF 6
ENDMDL
MODEL 3
REMARK VINA RESULT:      -7.7      3.586      6.822
REMARK  Name = *****
REMARK                            x       y       z     vdW  Elec       q    Type
REMARK                         _______ _______ _______ _____ _____    ______ ____
ROOT
ATOM      1  C   LIG    1       25.948 -21.175   6.049  0.00  0.00    +0.084 C 
ATOM      2  N   LIG    1       26.981 -21.881   6.815  0.00  0.00    -0.339 N 
ATOM      3  H   LIG    1       27.157 -22.814   6.433  0.00  0.00    +0.146 HD
ATOM      4  C   LIG    1       28.167 -21.190   7.084  0.00  0.00    +0.037 A 
ATOM      5  C   LIG    1       28.463 -19.939   6.509  0.00  0.00    -0.026 A 
ATOM      6  C   LIG    1       29.649 -19.260   6.845  0.00  0.00    +0.018 A 
ATOM      7  C   LIG    1       30.564 -19.807   7.754  0.00  0.00    +0.055 A 
ATOM      8  C   LIG    1       30.258 -21.068   8.287  0.00  0.00    +0.280 A 
ATOM      9  C   LIG    1       27.501 -19.297   5.543  0.00  0.00    +0.039 C 
ATOM     10  C   LIG    1       29.082 -21.757   7.969  0.00  0.00    +0.107 A 
ATOM     11  C   LIG    1       26.573 -20.336   4.933  0.00  0.00    +0.028 C 
ENDROOT
BRANCH   8  12
ATOM     12  N   LIG    1       31.171 -21.704   9.213  0.00  0.00    +0.080 N 
ATOM     13  O   LIG    1       30.815 -21.770  10.401  0.00  0.00    -0.576 OA
ATOM     14  O   LIG    1       32.244 -22.107   8.755  0.00  0.00    +0.042 OA
ENDBRANCH   8  12
BRANCH   1  15
ATOM     15  C   LIG    1       24.924 -22.189   5.478  0.00  0.00    +0.103 C 
BRANCH  15  16
ATOM     16  N   LIG    1       23.833 -21.544   4.720  0.00  0.00    -0.312 NA
ATOM     17  H   LIG    1       24.215 -20.784   4.156  0.00  0.00    +0.122 HD
BRANCH  16  19
ATOM     18  C   LIG    1       23.104 -21.107   7.071  0.00  0.00    +0.024 C 
ATOM     19  C   LIG    1       22.769 -21.010   5.580  0.00  0.00    +0.048 C 
ATOM     20  C   LIG    1       22.534 -19.542   5.213  0.00  0.00    +0.024 C 
ENDBRANCH  16  19
ENDBRANCH  15  16
ENDBRANCH   1  15
BRANCH   7  21
ATOM     21  C   LIG    1       31.809 -19.042   8.106  0.00  0.00    +0.197 C 
BRANCH  21  22
ATOM     22  O   LIG    1       31.963 -19.000   9.514  0.00  0.00    -0.390 OA
ATOM     23  H   LIG    1       32.014 -19.924   9.826  0.00  0.00    +0.210 HD
ENDBRANCH  21  22
ENDBRANCH   7  21
TORSDOF 6
ENDMDL
MODEL 4
REMARK VINA RESULT:      -7.7      3.527      7.038
REMARK  Name = *****
REMARK                            x       y       z     vdW  Elec       q    Type
REMARK                         _______ _______ _______ _____ _____    ______ ____
ROOT
ATOM      1  C   LIG    1       24.467 -22.368   6.705  0.00  0.00    +0.084 C 
ATOM      2  N   LIG    1       25.748 -22.493   7.408  0.00  0.00    -0.339 N 
ATOM      3  H   LIG    1       26.094 -23.456   7.388  0.00  0.00    +0.146 HD
ATOM      4  C   LIG    1       26.749 -21.568   7.092  0.00  0.00    +0.037 A 
ATOM      5  C   LIG    1       26.630 -20.658   6.024  0.00  0.00    -0.026 A 
ATOM      6  C   LIG    1       27.643 -19.715   5.771  0.00  0.00    +0.018 A 
ATOM      7  C   LIG    1       28.793 -19.656   6.569  0.00  0.00    +0.055 A 
ATOM      8  C   LIG    1       28.899 -20.595   7.606  0.00  0.00    +0.280 A 
ATOM      9  C   LIG    1       25.402 -20.666   5.149  0.00  0.00    +0.039 C 
ATOM     10  C   LIG    1       27.901 -21.537   7.876  0.00  0.00    +0.107 A 
ATOM     11  C   LIG    1       24.685 -22.003   5.236  0.00  0.00    +0.028 C 
ENDROOT
BRANCH   8  12
ATOM     12  N   LIG    1       30.072 -20.609   8.453  0.00  0.00    +0.080 N 
ATOM     13  O   LIG    1       30.271 -19.604   9.157  0.00  0.00    -0.576 OA
ATOM     14  O   LIG    1       30.799 -21.605   8.391  0.00  0.00    +0.042 OA
ENDBRANCH   8  12
BRANCH   1  15
ATOM     15  C   LIG    1       23.658 -23.684   6.840  0.00  0.00    +0.103 C 
BRANCH  15  16
ATOM     16  N   LIG    1       24.001 -24.681   5.806  0.00  0.00    -0.312 NA
ATOM     17  H   LIG    1       23.151 -24.979   5.326  0.00  0.00    +0.122 HD
BRANCH  16  19
ATOM     18  C   LIG    1       24.232 -27.167   5.681  0.00  0.00    +0.024 C 
ATOM     19  C   LIG    1       24.681 -25.864   6.348  0.00  0.00    +0.048 C 
ATOM     20  C   LIG    1       26.191 -25.693   6.151  0.00  0.00    +0.024 C 
ENDBRANCH  16  19
ENDBRANCH  15  16
ENDBRANCH   1  15
BRANCH   7  21
ATOM     21  C   LIG    1       29.843 -18.620   6.282  0.00  0.00    +0.197 C 
BRANCH  21  22
ATOM     22  O   LIG    1       29.572 -17.994   5.040  0.00  0.00    -0.390 OA
ATOM     23  H   LIG    1       28.601 -17.968   4.937  0.00  0.00    +0.210 HD
ENDBRANCH  21  22
ENDBRANCH   7  21
TORSDOF 6
ENDMDL
MODEL 5
REMARK VINA RESULT:      -7.6      3.576      6.954
REMARK  Name = *****
REMARK                            x       y       z     vdW  Elec       q    Type
REMARK                         _______ _______ _______ _____ _____    ______ ____
ROOT
ATOM      1  C   LIG    1       24.958 -21.798   5.979  0.00  0.00    +0.084 C 
ATOM      2  N   LIG    1       25.987 -20.806   5.651  0.00  0.00    -0.339 N 
ATOM      3  H   LIG    1       25.583 -19.874   5.528  0.00  0.00    +0.146 HD
ATOM      4  C   LIG    1       27.135 -20.782   6.450  0.00  0.00    +0.037 A 
ATOM      5  C   LIG    1       27.251 -21.537   7.633  0.00  0.00    -0.026 A 
ATOM      6  C   LIG    1       28.443 -21.514   8.381  0.00  0.00    +0.018 A 
ATOM      7  C   LIG    1       29.540 -20.744   7.974  0.00  0.00    +0.055 A 
ATOM      8  C   LIG    1       29.384 -19.978   6.809  0.00  0.00    +0.280 A 
ATOM      9  C   LIG    1       26.108 -22.399   8.103  0.00  0.00    +0.039 C 
ATOM     10  C   LIG    1       28.209 -19.990   6.049  0.00  0.00    +0.107 A 
ATOM     11  C   LIG    1       24.795 -21.935   7.494  0.00  0.00    +0.028 C 
ENDROOT
BRANCH   8  12
ATOM     12  N   LIG    1       30.468 -19.138   6.344  0.00  0.00    +0.080 N 
ATOM     13  O   LIG    1       31.622 -19.499   6.628  0.00  0.00    -0.576 OA
ATOM     14  O   LIG    1       30.160 -18.116   5.725  0.00  0.00    +0.042 OA
ENDBRANCH   8  12
BRANCH   1  15
ATOM     15  C   LIG    1       23.615 -21.413   5.306  0.00  0.00    +0.103 C 
BRANCH  15  16
ATOM     16  N   LIG    1       23.215 -20.017   5.573  0.00  0.00    -0.312 NA
ATOM     17  H   LIG    1       22.427 -20.007   6.221  0.00  0.00    +0.122 HD
BRANCH  16  19
ATOM     18  C   LIG    1       22.162 -17.943   4.659  0.00  0.00    +0.024 C 
ATOM     19  C   LIG    1       22.841 -19.281   4.358  0.00  0.00    +0.048 C 
ATOM     20  C   LIG    1       24.106 -19.028   3.531  0.00  0.00    +0.024 C 
ENDBRANCH  16  19
ENDBRANCH  15  16
ENDBRANCH   1  15
BRANCH   7  21
ATOM     21  C   LIG    1       30.804 -20.764   8.786  0.00  0.00    +0.197 C 
BRANCH  21  22
ATOM     22  O   LIG    1       31.613 -21.857   8.386  0.00  0.00    -0.390 OA
ATOM     23  H   LIG    1       32.311 -21.501   7.804  0.00  0.00    +0.210 HD
ENDBRANCH  21  22
ENDBRANCH   7  21
TORSDOF 6
ENDMDL
MODEL 6
REMARK VINA RESULT:      -7.3      1.687      2.778
REMARK  Name = *****
REMARK                            x       y       z     vdW  Elec       q    Type
REMARK                         _______ _______ _______ _____ _____    ______ ____
ROOT
ATOM      1  C   LIG    1       29.201 -19.646   7.180  0.00  0.00    +0.084 C 
ATOM      2  N   LIG    1       28.424 -19.590   5.937  0.00  0.00    -0.339 N 
ATOM      3  H   LIG    1       28.951 -19.974   5.149  0.00  0.00    +0.146 HD
ATOM      4  C   LIG    1       27.111 -20.072   5.977  0.00  0.00    +0.037 A 
ATOM      5  C   LIG    1       26.586 -20.751   7.093  0.00  0.00    -0.026 A 
ATOM      6  C   LIG    1       25.245 -21.178   7.105  0.00  0.00    +0.018 A 
ATOM      7  C   LIG    1       24.400 -20.942   6.013  0.00  0.00    +0.055 A 
ATOM      8  C   LIG    1       24.958 -20.291   4.903  0.00  0.00    +0.280 A 
ATOM      9  C   LIG    1       27.448 -21.011   8.302  0.00  0.00    +0.039 C 
ATOM     10  C   LIG    1       26.288 -19.854   4.874  0.00  0.00    +0.107 A 
ATOM     11  C   LIG    1       28.923 -20.945   7.939  0.00  0.00    +0.028 C 
ENDROOT
BRANCH   8  12
ATOM     12  N   LIG    1       24.150 -20.037   3.730  0.00  0.00    +0.080 N 
ATOM     13  O   LIG    1       24.064 -20.953   2.895  0.00  0.00    -0.576 OA
ATOM     14  O   LIG    1       23.631 -18.921   3.636  0.00  0.00    +0.042 OA
ENDBRANCH   8  12
BRANCH   1  15
ATOM     15  C   LIG    1       30.712 -19.494   6.868  0.00  0.00    +0.103 C 
BRANCH  15  16
ATOM     16  N   LIG    1       31.512 -19.128   8.054  0.00  0.00    -0.312 NA
ATOM     17  H   LIG    1       31.482 -19.888   8.732  0.00  0.00    +0.122 HD
BRANCH  16  19
ATOM     18  C   LIG    1       30.358 -18.149  10.043  0.00  0.00    +0.024 C 
ATOM     19  C   LIG    1       31.050 -17.893   8.702  0.00  0.00    +0.048 C 
ATOM     20  C   LIG    1       32.258 -16.978   8.927  0.00  0.00    +0.024 C 
ENDBRANCH  16  19
ENDBRANCH  15  16
ENDBRANCH   1  15
BRANCH   7  21
ATOM     21  C   LIG    1       22.968 -21.392   6.072  0.00  0.00    +0.197 C 
BRANCH  21  22
ATOM     22  O   LIG    1       22.909 -22.807   6.020  0.00  0.00    -0.390 OA
ATOM     23  H   LIG    1       23.102 -23.137   6.918  0.00  0.00    +0.210 HD
ENDBRANCH  21  22
ENDBRANCH   7  21
TORSDOF 6
ENDMDL
MODEL 7
REMARK VINA RESULT:      -6.9      5.412      8.920
REMARK  Name = *****
REMARK                            x       y       z     vdW  Elec       q    Type
REMARK                         _______ _______ _______ _____ _____    ______ ____
ROOT
ATOM      1  C   LIG    1       24.708 -27.337   5.482  0.00  0.00    +0.084 C 
ATOM      2  N   LIG    1       23.792 -26.220   5.738  0.00  0.00    -0.339 N 
ATOM      3  H   LIG    1       22.964 -26.526   6.254  0.00  0.00    +0.146 HD
ATOM      4  C   LIG    1       24.340 -25.047   6.270  0.00  0.00    +0.037 A 
ATOM      5  C   LIG    1       25.672 -24.969   6.719  0.00  0.00    -0.026 A 
ATOM      6  C   LIG    1       26.193 -23.755   7.205  0.00  0.00    +0.018 A 
ATOM      7  C   LIG    1       25.405 -22.598   7.257  0.00  0.00    +0.055 A 
ATOM      8  C   LIG    1       24.073 -22.713   6.831  0.00  0.00    +0.280 A 
ATOM      9  C   LIG    1       26.568 -26.180   6.665  0.00  0.00    +0.039 C 
ATOM     10  C   LIG    1       23.538 -23.910   6.341  0.00  0.00    +0.107 A 
ATOM     11  C   LIG    1       25.746 -27.457   6.599  0.00  0.00    +0.028 C 
ENDROOT
BRANCH   8  12
ATOM     12  N   LIG    1       23.195 -21.564   6.881  0.00  0.00    +0.080 N 
ATOM     13  O   LIG    1       23.012 -21.042   7.994  0.00  0.00    -0.576 OA
ATOM     14  O   LIG    1       22.674 -21.208   5.820  0.00  0.00    +0.042 OA
ENDBRANCH   8  12
BRANCH   1  15
ATOM     15  C   LIG    1       23.907 -28.653   5.319  0.00  0.00    +0.103 C 
BRANCH  15  16
ATOM     16  N   LIG    1       23.884 -29.471   6.549  0.00  0.00    -0.312 NA
ATOM     17  H   LIG    1       24.507 -29.058   7.243  0.00  0.00    +0.122 HD
BRANCH  16  19
ATOM     18  C   LIG    1       25.433 -31.001   5.321  0.00  0.00    +0.024 C 
ATOM     19  C   LIG    1       24.283 -30.866   6.322  0.00  0.00    +0.048 C 
ATOM     20  C   LIG    1       24.709 -31.477   7.661  0.00  0.00    +0.024 C 
ENDBRANCH  16  19
ENDBRANCH  15  16
ENDBRANCH   1  15
BRANCH   7  21
ATOM     21  C   LIG    1       26.003 -21.315   7.760  0.00  0.00    +0.197 C 
BRANCH  21  22
ATOM     22  O   LIG    1       25.828 -21.224   9.164  0.00  0.00    -0.390 OA
ATOM     23  H   LIG    1       26.032 -20.305   9.421  0.00  0.00    +0.210 HD
ENDBRANCH  21  22
ENDBRANCH   7  21
TORSDOF 6
ENDMDL
MODEL 8
REMARK VINA RESULT:      -6.6      6.059      8.093
REMARK  Name = *****
REMARK                            x       y       z     vdW  Elec       q    Type
REMARK                         _______ _______ _______ _____ _____    ______ ____
ROOT
ATOM      1  C   LIG    1       26.074 -24.673   6.315  0.00  0.00    +0.084 C 
ATOM      2  N   LIG    1       25.880 -25.726   7.317  0.00  0.00    -0.339 N 
ATOM      3  H   LIG    1       25.257 -25.418   8.068  0.00  0.00    +0.146 HD
ATOM      4  C   LIG    1       25.552 -27.005   6.851  0.00  0.00    +0.037 A 
ATOM      5  C   LIG    1       25.238 -27.262   5.503  0.00  0.00    -0.026 A 
ATOM      6  C   LIG    1       24.959 -28.573   5.072  0.00  0.00    +0.018 A 
ATOM      7  C   LIG    1       24.983 -29.650   5.967  0.00  0.00    +0.055 A 
ATOM      8  C   LIG    1       25.268 -29.359   7.309  0.00  0.00    +0.280 A 
ATOM      9  C   LIG    1       25.220 -26.141   4.496  0.00  0.00    +0.039 C 
ATOM     10  C   LIG    1       25.553 -28.064   7.756  0.00  0.00    +0.107 A 
ATOM     11  C   LIG    1       25.049 -24.798   5.187  0.00  0.00    +0.028 C 
ENDROOT
BRANCH   8  12
ATOM     12  N   LIG    1       25.285 -30.420   8.293  0.00  0.00    +0.080 N 
ATOM     13  O   LIG    1       26.393 -30.898   8.589  0.00  0.00    -0.576 OA
ATOM     14  O   LIG    1       24.195 -30.788   8.742  0.00  0.00    +0.042 OA
ENDBRANCH   8  12
BRANCH   1  15
ATOM     15  C   LIG    1       25.996 -23.279   6.989  0.00  0.00    +0.103 C 
BRANCH  15  16
ATOM     16  N   LIG    1       25.625 -22.203   6.049  0.00  0.00    -0.312 NA
ATOM     17  H   LIG    1       26.460 -21.867   5.570  0.00  0.00    +0.122 HD
BRANCH  16  19
ATOM     18  C   LIG    1       23.550 -21.399   7.187  0.00  0.00    +0.024 C 
ATOM     19  C   LIG    1       24.963 -21.066   6.704  0.00  0.00    +0.048 C 
ATOM     20  C   LIG    1       25.814 -20.629   7.901  0.00  0.00    +0.024 C 
ENDBRANCH  16  19
ENDBRANCH  15  16
ENDBRANCH   1  15
BRANCH   7  21
ATOM     21  C   LIG    1       24.702 -31.039   5.465  0.00  0.00    +0.197 C 
BRANCH  21  22
ATOM     22  O   LIG    1       23.344 -31.368   5.704  0.00  0.00    -0.390 OA
ATOM     23  H   LIG    1       23.327 -31.994   6.453  0.00  0.00    +0.210 HD
ENDBRANCH  21  22
ENDBRANCH   7  21
TORSDOF 6
ENDMDL
MODEL 9
REMARK VINA RESULT:      -6.5      5.059      8.219
REMARK  Name = *****
REMARK                            x       y       z     vdW  Elec       q    Type
REMARK                         _______ _______ _______ _____ _____    ______ ____
ROOT
ATOM      1  C   LIG    1       25.092 -26.672   6.495  0.00  0.00    +0.084 C 
ATOM      2  N   LIG    1       25.736 -25.624   7.296  0.00  0.00    -0.339 N 
ATOM      3  H   LIG    1       26.691 -25.884   7.554  0.00  0.00    +0.146 HD
ATOM      4  C   LIG    1       25.658 -24.311   6.819  0.00  0.00    +0.037 A 
ATOM      5  C   LIG    1       25.151 -23.997   5.543  0.00  0.00    -0.026 A 
ATOM      6  C   LIG    1       25.051 -22.657   5.124  0.00  0.00    +0.018 A 
ATOM      7  C   LIG    1       25.451 -21.605   5.957  0.00  0.00    +0.055 A 
ATOM      8  C   LIG    1       25.982 -21.950   7.210  0.00  0.00    +0.280 A 
ATOM      9  C   LIG    1       24.686 -25.091   4.617  0.00  0.00    +0.039 C 
ATOM     10  C   LIG    1       26.085 -23.275   7.647  0.00  0.00    +0.107 A 
ATOM     11  C   LIG    1       25.305 -26.424   5.001  0.00  0.00    +0.028 C 
ENDROOT
BRANCH   8  12
ATOM     12  N   LIG    1       26.440 -20.915   8.112  0.00  0.00    +0.080 N 
ATOM     13  O   LIG    1       27.402 -20.225   7.736  0.00  0.00    -0.576 OA
ATOM     14  O   LIG    1       25.857 -20.816   9.196  0.00  0.00    +0.042 OA
ENDBRANCH   8  12
BRANCH   1  15
ATOM     15  C   LIG    1       25.630 -28.064   6.913  0.00  0.00    +0.103 C 
BRANCH  15  16
ATOM     16  N   LIG    1       25.832 -28.973   5.767  0.00  0.00    -0.312 NA
ATOM     17  H   LIG    1       25.686 -28.461   4.897  0.00  0.00    +0.122 HD
BRANCH  16  19
ATOM     18  C   LIG    1       25.638 -31.434   5.376  0.00  0.00    +0.024 C 
ATOM     19  C   LIG    1       24.937 -30.138   5.789  0.00  0.00    +0.048 C 
ATOM     20  C   LIG    1       24.379 -30.298   7.207  0.00  0.00    +0.024 C 
ENDBRANCH  16  19
ENDBRANCH  15  16
ENDBRANCH   1  15
BRANCH   7  21
ATOM     21  C   LIG    1       25.308 -20.186   5.484  0.00  0.00    +0.197 C 
BRANCH  21  22
ATOM     22  O   LIG    1       26.450 -19.815   4.731  0.00  0.00    -0.390 OA
ATOM     23  H   LIG    1       26.160 -19.702   3.805  0.00  0.00    +0.210 HD
ENDBRANCH  21  22
ENDBRANCH   7  21
TORSDOF 6
ENDMDL
