MODEL 1
REMARK VINA RESULT:      -5.1      0.000      0.000
REMARK  Name = *****
REMARK                            x       y       z     vdW  Elec       q    Type
REMARK                         _______ _______ _______ _____ _____    ______ ____
ROOT
ATOM      1  C   LIG    1       26.201 -14.666   3.206  0.00  0.00    +0.190 C 
ENDROOT
BRANCH   1   2
ATOM      2  C   LIG    1       24.651 -14.479   3.451  0.00  0.00    +0.036 C 
ATOM      3  C   LIG    1       24.271 -13.816   4.787  0.00  0.00    +0.007 C 
ATOM      4  C   LIG    1       24.604 -12.332   4.856  0.00  0.00    +0.000 C 
ATOM      5  C   LIG    1       24.024 -11.530   3.693  0.00  0.00    +0.000 C 
ATOM      6  C   LIG    1       24.174 -12.184   2.325  0.00  0.00    +0.000 C 
ATOM      7  C   LIG    1       23.922 -13.691   2.331  0.00  0.00    +0.007 C 
ENDBRANCH   1   2
BRANCH   1   8
ATOM      8  C   LIG    1       27.113 -13.733   4.031  0.00  0.00    -0.005 A 
ATOM      9  C   LIG    1       27.042 -13.669   5.440  0.00  0.00    +0.007 A 
ATOM     10  C   LIG    1       27.934 -12.881   6.180  0.00  0.00    +0.000 A 
ATOM     11  C   LIG    1       28.901 -12.116   5.535  0.00  0.00    +0.000 A 
ATOM     12  C   LIG    1       28.973 -12.134   4.148  0.00  0.00    +0.000 A 
ATOM     13  C   LIG    1       28.090 -12.929   3.410  0.00  0.00    +0.007 A 
ENDBRANCH   1   8
BRANCH   1  14
ATOM     14  C   LIG    1       26.536 -16.162   3.498  0.00  0.00    +0.344 C 
ATOM     15  O   LIG    1       27.646 -16.591   3.811  0.00  0.00    -0.247 OA
BRANCH  14  16
ATOM     16  O   LIG    1       25.471 -16.977   3.244  0.00  0.00    -0.457 OA
BRANCH  16  17
ATOM     17  C   LIG    1       25.695 -18.387   3.389  0.00  0.00    +0.283 C 
BRANCH  17  18
ATOM     18  C   LIG    1       24.331 -19.090   3.361  0.00  0.00    +0.174 C 
BRANCH  18  19
ATOM     19  N   LIG    1       24.119 -20.184   4.438  0.00  0.00    +0.243 N 
ATOM     20  C   LIG    1       23.868 -21.502   3.689  0.00  0.00    +0.192 C 
BRANCH  19  22
ATOM     21  C   LIG    1       25.018 -20.787   6.773  0.00  0.00    +0.060 C 
ATOM     22  C   LIG    1       25.346 -20.320   5.363  0.00  0.00    +0.129 C 
ENDBRANCH  19  22
BRANCH  19  23
ATOM     23  C   LIG    1       22.856 -19.805   5.256  0.00  0.00    +0.129 C 
ATOM     24  C   LIG    1       22.054 -18.651   4.679  0.00  0.00    +0.060 C 
ENDBRANCH  19  23
ENDBRANCH  18  19
ENDBRANCH  17  18
ENDBRANCH  16  17
ENDBRANCH  14  16
ENDBRANCH   1  14
BRANCH   1  25
ATOM     25  O   LIG    1       26.460 -14.458   1.812  0.00  0.00    -0.373 OA
ATOM     26  H   LIG    1       26.568 -13.498   1.677  0.00  0.00    +0.211 HD
ENDBRANCH   1  25
TORSDOF 10
ENDMDL
MODEL 2
REMARK VINA RESULT:      -2.8      2.412      6.889
REMARK  Name = *****
REMARK                            x       y       z     vdW  Elec       q    Type
REMARK                         _______ _______ _______ _____ _____    ______ ____
ROOT
ATOM      1  C   LIG    1       25.560 -19.820   4.927  0.00  0.00    +0.190 C 
ENDROOT
BRANCH   1   2
ATOM      2  C   LIG    1       24.725 -21.152   4.763  0.00  0.00    +0.036 C 
ATOM      3  C   LIG    1       23.907 -21.572   5.997  0.00  0.00    +0.007 C 
ATOM      4  C   LIG    1       22.700 -20.683   6.267  0.00  0.00    +0.000 C 
ATOM      5  C   LIG    1       21.780 -20.532   5.058  0.00  0.00    +0.000 C 
ATOM      6  C   LIG    1       22.496 -20.299   3.733  0.00  0.00    +0.000 C 
ATOM      7  C   LIG    1       23.754 -21.148   3.554  0.00  0.00    +0.007 C 
ENDBRANCH   1   2
BRANCH   1   8
ATOM      8  C   LIG    1       26.956 -19.994   5.562  0.00  0.00    -0.005 A 
ATOM      9  C   LIG    1       27.997 -19.064   5.350  0.00  0.00    +0.007 A 
ATOM     10  C   LIG    1       29.232 -19.191   6.000  0.00  0.00    +0.000 A 
ATOM     11  C   LIG    1       29.470 -20.261   6.858  0.00  0.00    +0.000 A 
ATOM     12  C   LIG    1       28.476 -21.209   7.060  0.00  0.00    +0.000 A 
ATOM     13  C   LIG    1       27.240 -21.076   6.419  0.00  0.00    +0.007 A 
ENDBRANCH   1   8
BRANCH   1  14
ATOM     14  C   LIG    1       25.676 -19.173   3.511  0.00  0.00    +0.344 C 
ATOM     15  O   LIG    1       26.267 -19.668   2.553  0.00  0.00    -0.247 OA
BRANCH  14  16
ATOM     16  O   LIG    1       25.144 -17.916   3.487  0.00  0.00    -0.457 OA
BRANCH  16  17
ATOM     17  C   LIG    1       26.078 -16.826   3.504  0.00  0.00    +0.283 C 
BRANCH  17  18
ATOM     18  C   LIG    1       25.310 -15.538   3.178  0.00  0.00    +0.174 C 
BRANCH  18  19
ATOM     19  N   LIG    1       26.076 -14.216   3.442  0.00  0.00    +0.243 N 
ATOM     20  C   LIG    1       25.627 -13.711   4.822  0.00  0.00    +0.192 C 
BRANCH  19  22
ATOM     21  C   LIG    1       28.406 -13.242   3.932  0.00  0.00    +0.060 C 
ATOM     22  C   LIG    1       27.604 -14.428   3.421  0.00  0.00    +0.129 C 
ENDBRANCH  19  22
BRANCH  19  23
ATOM     23  C   LIG    1       25.649 -13.196   2.353  0.00  0.00    +0.129 C 
ATOM     24  C   LIG    1       24.232 -12.670   2.503  0.00  0.00    +0.060 C 
ENDBRANCH  19  23
ENDBRANCH  18  19
ENDBRANCH  17  18
ENDBRANCH  16  17
ENDBRANCH  14  16
ENDBRANCH   1  14
BRANCH   1  25
ATOM     25  O   LIG    1       24.794 -18.910   5.727  0.00  0.00    -0.373 OA
ATOM     26  H   LIG    1       24.300 -19.441   6.378  0.00  0.00    +0.211 HD
ENDBRANCH   1  25
TORSDOF 10
ENDMDL
MODEL 3
REMARK VINA RESULT:      -2.5      2.406      6.924
REMARK  Name = *****
REMARK                            x       y       z     vdW  Elec       q    Type
REMARK                         _______ _______ _______ _____ _____    ______ ____
ROOT
ATOM      1  C   LIG    1       25.614 -19.686   4.810  0.00  0.00    +0.190 C 
ENDROOT
BRANCH   1   2
ATOM      2  C   LIG    1       24.802 -21.010   4.520  0.00  0.00    +0.036 C 
ATOM      3  C   LIG    1       24.012 -21.572   5.715  0.00  0.00    +0.007 C 
ATOM      4  C   LIG    1       22.794 -20.740   6.095  0.00  0.00    +0.000 C 
ATOM      5  C   LIG    1       21.851 -20.482   4.923  0.00  0.00    +0.000 C 
ATOM      6  C   LIG    1       22.540 -20.097   3.618  0.00  0.00    +0.000 C 
ATOM      7  C   LIG    1       23.810 -20.898   3.333  0.00  0.00    +0.007 C 
ENDBRANCH   1   2
BRANCH   1   8
ATOM      8  C   LIG    1       26.993 -19.893   5.474  0.00  0.00    -0.005 A 
ATOM      9  C   LIG    1       28.083 -19.032   5.223  0.00  0.00    +0.007 A 
ATOM     10  C   LIG    1       29.302 -19.183   5.897  0.00  0.00    +0.000 A 
ATOM     11  C   LIG    1       29.474 -20.211   6.818  0.00  0.00    +0.000 A 
ATOM     12  C   LIG    1       28.430 -21.094   7.062  0.00  0.00    +0.000 A 
ATOM     13  C   LIG    1       27.210 -20.936   6.396  0.00  0.00    +0.007 A 
ENDBRANCH   1   8
BRANCH   1  14
ATOM     14  C   LIG    1       25.766 -18.931   3.451  0.00  0.00    +0.344 C 
ATOM     15  O   LIG    1       26.425 -19.328   2.492  0.00  0.00    -0.247 OA
BRANCH  14  16
ATOM     16  O   LIG    1       25.174 -17.702   3.488  0.00  0.00    -0.457 OA
BRANCH  16  17
ATOM     17  C   LIG    1       26.028 -16.575   3.241  0.00  0.00    +0.283 C 
BRANCH  17  18
ATOM     18  C   LIG    1       25.247 -15.301   3.595  0.00  0.00    +0.174 C 
BRANCH  18  19
ATOM     19  N   LIG    1       26.076 -13.992   3.624  0.00  0.00    +0.243 N 
ATOM     20  C   LIG    1       25.855 -13.298   2.270  0.00  0.00    +0.192 C 
BRANCH  19  22
ATOM     21  C   LIG    1       24.181 -12.641   4.721  0.00  0.00    +0.060 C 
ATOM     22  C   LIG    1       25.640 -13.066   4.778  0.00  0.00    +0.129 C 
ENDBRANCH  19  22
BRANCH  19  23
ATOM     23  C   LIG    1       27.571 -14.382   3.768  0.00  0.00    +0.129 C 
ATOM     24  C   LIG    1       28.536 -13.211   3.717  0.00  0.00    +0.060 C 
ENDBRANCH  19  23
ENDBRANCH  18  19
ENDBRANCH  17  18
ENDBRANCH  16  17
ENDBRANCH  14  16
ENDBRANCH   1  14
BRANCH   1  25
ATOM     25  O   LIG    1       24.814 -18.846   5.651  0.00  0.00    -0.373 OA
ATOM     26  H   LIG    1       25.051 -17.922   5.449  0.00  0.00    +0.211 HD
ENDBRANCH   1  25
TORSDOF 10
ENDMDL
MODEL 4
REMARK VINA RESULT:      -2.1      1.958      7.044
REMARK  Name = *****
REMARK                            x       y       z     vdW  Elec       q    Type
REMARK                         _______ _______ _______ _____ _____    ______ ____
ROOT
ATOM      1  C   LIG    1       24.654 -19.686   3.448  0.00  0.00    +0.190 C 
ENDROOT
BRANCH   1   2
ATOM      2  C   LIG    1       24.754 -20.996   4.327  0.00  0.00    +0.036 C 
ATOM      3  C   LIG    1       25.618 -20.874   5.594  0.00  0.00    +0.007 C 
ATOM      4  C   LIG    1       24.991 -20.020   6.688  0.00  0.00    +0.000 C 
ATOM      5  C   LIG    1       23.579 -20.461   7.061  0.00  0.00    +0.000 C 
ATOM      6  C   LIG    1       22.677 -20.796   5.878  0.00  0.00    +0.000 C 
ATOM      7  C   LIG    1       23.382 -21.572   4.767  0.00  0.00    +0.007 C 
ENDBRANCH   1   2
BRANCH   1   8
ATOM      8  C   LIG    1       23.410 -18.812   3.714  0.00  0.00    -0.005 A 
ATOM      9  C   LIG    1       22.126 -19.175   3.250  0.00  0.00    +0.007 A 
ATOM     10  C   LIG    1       20.994 -18.415   3.571  0.00  0.00    +0.000 A 
ATOM     11  C   LIG    1       21.114 -17.261   4.339  0.00  0.00    +0.000 A 
ATOM     12  C   LIG    1       22.368 -16.862   4.782  0.00  0.00    +0.000 A 
ATOM     13  C   LIG    1       23.497 -17.626   4.470  0.00  0.00    +0.007 A 
ENDBRANCH   1   8
BRANCH   1  14
ATOM     14  C   LIG    1       25.962 -18.869   3.688  0.00  0.00    +0.344 C 
ATOM     15  O   LIG    1       26.808 -19.124   4.544  0.00  0.00    -0.247 OA
BRANCH  14  16
ATOM     16  O   LIG    1       26.007 -17.748   2.912  0.00  0.00    -0.457 OA
BRANCH  16  17
ATOM     17  C   LIG    1       26.678 -16.609   3.471  0.00  0.00    +0.283 C 
BRANCH  17  18
ATOM     18  C   LIG    1       25.738 -15.401   3.357  0.00  0.00    +0.174 C 
BRANCH  18  19
ATOM     19  N   LIG    1       26.398 -14.015   3.568  0.00  0.00    +0.243 N 
ATOM     20  C   LIG    1       26.003 -13.545   4.977  0.00  0.00    +0.192 C 
BRANCH  19  22
ATOM     21  C   LIG    1       28.664 -12.852   3.939  0.00  0.00    +0.060 C 
ATOM     22  C   LIG    1       27.934 -14.090   3.440  0.00  0.00    +0.129 C 
ENDBRANCH  19  22
BRANCH  19  23
ATOM     23  C   LIG    1       25.807 -13.043   2.514  0.00  0.00    +0.129 C 
ATOM     24  C   LIG    1       24.293 -12.929   2.540  0.00  0.00    +0.060 C 
ENDBRANCH  19  23
ENDBRANCH  18  19
ENDBRANCH  17  18
ENDBRANCH  16  17
ENDBRANCH  14  16
ENDBRANCH   1  14
BRANCH   1  25
ATOM     25  O   LIG    1       24.666 -20.073   2.068  0.00  0.00    -0.373 OA
ATOM     26  H   LIG    1       24.690 -21.047   2.040  0.00  0.00    +0.211 HD
ENDBRANCH   1  25
TORSDOF 10
ENDMDL
