MODEL 1
REMARK VINA RESULT:      -4.1      0.000      0.000
REMARK  Name = *****
REMARK                            x       y       z     vdW  Elec       q    Type
REMARK                         _______ _______ _______ _____ _____    ______ ____
ROOT
ATOM      1  C   LIG    1       26.967 -16.525   3.723  0.00  0.00    -0.015 A 
ATOM      2  C   LIG    1       25.770 -17.151   3.336  0.00  0.00    +0.028 A 
ATOM      3  C   LIG    1       25.537 -18.505   3.632  0.00  0.00    +0.063 A 
ATOM      4 CL   LIG    1       24.032 -19.196   3.119  0.00  0.00    -0.082 Cl
ATOM      5  C   LIG    1       26.492 -19.289   4.299  0.00  0.00    +0.062 A 
ATOM      6  C   LIG    1       27.658 -18.640   4.739  0.00  0.00    +0.063 A 
ATOM      7 CL   LIG    1       28.856 -19.504   5.644  0.00  0.00    -0.082 Cl
ATOM      8  C   LIG    1       27.898 -17.291   4.441  0.00  0.00    +0.028 A 
ENDROOT
BRANCH   5   9
ATOM      9  N   LIG    1       26.195 -20.610   4.713  0.00  0.00    -0.356 N 
ATOM     10  H   LIG    1       25.230 -20.881   4.530  0.00  0.00    +0.142 HD
ATOM     11  H   LIG    1       26.881 -21.291   4.390  0.00  0.00    +0.142 HD
ENDBRANCH   5   9
BRANCH   1  12
ATOM     12  C   LIG    1       27.203 -15.053   3.424  0.00  0.00    +0.158 C 
BRANCH  12  13
ATOM     13  O   LIG    1       26.698 -14.716   2.125  0.00  0.00    -0.386 OA
ATOM     14  H   LIG    1       26.851 -13.753   2.037  0.00  0.00    +0.210 HD
ENDBRANCH  12  13
BRANCH  12  15
ATOM     15  C   LIG    1       26.555 -14.093   4.461  0.00  0.00    +0.117 C 
BRANCH  15  16
ATOM     16  N   LIG    1       25.907 -12.946   3.785  0.00  0.00    -0.309 NA
ATOM     17  H   LIG    1       26.266 -12.078   4.190  0.00  0.00    +0.122 HD
BRANCH  16  19
ATOM     18  C   LIG    1       23.845 -14.267   4.307  0.00  0.00    +0.027 C 
ATOM     19  C   LIG    1       24.427 -12.918   3.855  0.00  0.00    +0.011 C 
ATOM     20  C   LIG    1       23.908 -11.796   4.774  0.00  0.00    +0.027 C 
ATOM     21  C   LIG    1       23.922 -12.632   2.427  0.00  0.00    +0.027 C 
ENDBRANCH  16  19
ENDBRANCH  15  16
ENDBRANCH  12  15
ENDBRANCH   1  12
TORSDOF 6
ENDMDL
MODEL 2
REMARK VINA RESULT:      -4.1      3.061      6.038
REMARK  Name = *****
REMARK                            x       y       z     vdW  Elec       q    Type
REMARK                         _______ _______ _______ _____ _____    ______ ____
ROOT
ATOM      1  C   LIG    1       25.683 -17.064   3.504  0.00  0.00    -0.015 A 
ATOM      2  C   LIG    1       26.861 -16.301   3.447  0.00  0.00    +0.028 A 
ATOM      3  C   LIG    1       26.832 -14.914   3.672  0.00  0.00    +0.063 A 
ATOM      4 CL   LIG    1       28.334 -14.051   3.584  0.00  0.00    -0.082 Cl
ATOM      5  C   LIG    1       25.633 -14.234   3.936  0.00  0.00    +0.062 A 
ATOM      6  C   LIG    1       24.469 -15.013   4.054  0.00  0.00    +0.063 A 
ATOM      7 CL   LIG    1       22.956 -14.275   4.460  0.00  0.00    -0.082 Cl
ATOM      8  C   LIG    1       24.491 -16.396   3.825  0.00  0.00    +0.028 A 
ENDROOT
BRANCH   5   9
ATOM      9  N   LIG    1       25.630 -12.865   4.294  0.00  0.00    -0.356 N 
ATOM     10  H   LIG    1       24.694 -12.491   4.445  0.00  0.00    +0.142 HD
ATOM     11  H   LIG    1       26.284 -12.649   5.045  0.00  0.00    +0.142 HD
ENDBRANCH   5   9
BRANCH   1  12
ATOM     12  C   LIG    1       25.723 -18.568   3.287  0.00  0.00    +0.158 C 
BRANCH  12  13
ATOM     13  O   LIG    1       26.566 -19.196   4.263  0.00  0.00    -0.386 OA
ATOM     14  H   LIG    1       26.324 -18.774   5.113  0.00  0.00    +0.210 HD
ENDBRANCH  12  13
BRANCH  12  15
ATOM     15  C   LIG    1       24.324 -19.246   3.346  0.00  0.00    +0.117 C 
BRANCH  15  16
ATOM     16  N   LIG    1       24.298 -20.313   4.371  0.00  0.00    -0.309 NA
ATOM     17  H   LIG    1       24.340 -21.221   3.904  0.00  0.00    +0.122 HD
BRANCH  16  19
ATOM     18  C   LIG    1       22.135 -21.439   4.943  0.00  0.00    +0.027 C 
ATOM     19  C   LIG    1       23.120 -20.305   5.270  0.00  0.00    +0.011 C 
ATOM     20  C   LIG    1       23.519 -20.378   6.755  0.00  0.00    +0.027 C 
ATOM     21  C   LIG    1       22.397 -18.962   5.040  0.00  0.00    +0.027 C 
ENDBRANCH  16  19
ENDBRANCH  15  16
ENDBRANCH  12  15
ENDBRANCH   1  12
TORSDOF 6
ENDMDL
MODEL 3
REMARK VINA RESULT:      -4.0      3.047      5.689
REMARK  Name = *****
REMARK                            x       y       z     vdW  Elec       q    Type
REMARK                         _______ _______ _______ _____ _____    ______ ____
ROOT
ATOM      1  C   LIG    1       25.795 -17.029   3.560  0.00  0.00    -0.015 A 
ATOM      2  C   LIG    1       24.587 -16.342   3.766  0.00  0.00    +0.028 A 
ATOM      3  C   LIG    1       24.573 -14.948   3.946  0.00  0.00    +0.063 A 
ATOM      4 CL   LIG    1       23.037 -14.182   4.192  0.00  0.00    -0.082 Cl
ATOM      5  C   LIG    1       25.756 -14.193   3.952  0.00  0.00    +0.062 A 
ATOM      6  C   LIG    1       26.953 -14.877   3.682  0.00  0.00    +0.063 A 
ATOM      7 CL   LIG    1       28.454 -14.019   3.585  0.00  0.00    -0.082 Cl
ATOM      8  C   LIG    1       26.973 -16.269   3.507  0.00  0.00    +0.028 A 
ENDROOT
BRANCH   5   9
ATOM      9  N   LIG    1       25.723 -12.779   3.998  0.00  0.00    -0.356 N 
ATOM     10  H   LIG    1       26.433 -12.341   3.412  0.00  0.00    +0.142 HD
ATOM     11  H   LIG    1       24.787 -12.398   3.862  0.00  0.00    +0.142 HD
ENDBRANCH   5   9
BRANCH   1  12
ATOM     12  C   LIG    1       25.803 -18.533   3.339  0.00  0.00    +0.158 C 
BRANCH  12  13
ATOM     13  O   LIG    1       26.624 -19.182   4.319  0.00  0.00    -0.386 OA
ATOM     14  H   LIG    1       26.817 -18.489   4.984  0.00  0.00    +0.210 HD
ENDBRANCH  12  13
BRANCH  12  15
ATOM     15  C   LIG    1       24.388 -19.179   3.386  0.00  0.00    +0.117 C 
BRANCH  15  16
ATOM     16  N   LIG    1       24.333 -20.254   4.402  0.00  0.00    -0.309 NA
ATOM     17  H   LIG    1       24.390 -21.159   3.929  0.00  0.00    +0.122 HD
BRANCH  16  19
ATOM     18  C   LIG    1       22.160 -21.391   4.907  0.00  0.00    +0.027 C 
ATOM     19  C   LIG    1       23.130 -20.253   5.266  0.00  0.00    +0.011 C 
ATOM     20  C   LIG    1       23.486 -20.330   6.763  0.00  0.00    +0.027 C 
ATOM     21  C   LIG    1       22.408 -18.913   5.019  0.00  0.00    +0.027 C 
ENDBRANCH  16  19
ENDBRANCH  15  16
ENDBRANCH  12  15
ENDBRANCH   1  12
TORSDOF 6
ENDMDL
MODEL 4
REMARK VINA RESULT:      -3.9      0.079      2.204
REMARK  Name = *****
REMARK                            x       y       z     vdW  Elec       q    Type
REMARK                         _______ _______ _______ _____ _____    ______ ____
ROOT
ATOM      1  C   LIG    1       26.900 -16.497   3.736  0.00  0.00    -0.015 A 
ATOM      2  C   LIG    1       27.848 -17.271   4.426  0.00  0.00    +0.028 A 
ATOM      3  C   LIG    1       27.593 -18.619   4.731  0.00  0.00    +0.063 A 
ATOM      4 CL   LIG    1       28.819 -19.500   5.583  0.00  0.00    -0.082 Cl
ATOM      5  C   LIG    1       26.381 -19.237   4.384  0.00  0.00    +0.062 A 
ATOM      6  C   LIG    1       25.464 -18.475   3.639  0.00  0.00    +0.063 A 
ATOM      7 CL   LIG    1       23.978 -19.176   3.093  0.00  0.00    -0.082 Cl
ATOM      8  C   LIG    1       25.712 -17.128   3.337  0.00  0.00    +0.028 A 
ENDROOT
BRANCH   5   9
ATOM      9  N   LIG    1       26.186 -20.626   4.573  0.00  0.00    -0.356 N 
ATOM     10  H   LIG    1       25.486 -21.022   3.946  0.00  0.00    +0.142 HD
ATOM     11  H   LIG    1       27.059 -21.150   4.596  0.00  0.00    +0.142 HD
ENDBRANCH   5   9
BRANCH   1  12
ATOM     12  C   LIG    1       27.192 -15.047   3.385  0.00  0.00    +0.158 C 
BRANCH  12  13
ATOM     13  O   LIG    1       26.673 -14.729   2.087  0.00  0.00    -0.386 OA
ATOM     14  H   LIG    1       25.994 -15.412   1.913  0.00  0.00    +0.210 HD
ENDBRANCH  12  13
BRANCH  12  15
ATOM     15  C   LIG    1       26.608 -14.027   4.405  0.00  0.00    +0.117 C 
BRANCH  15  16
ATOM     16  N   LIG    1       25.926 -12.915   3.706  0.00  0.00    -0.309 NA
ATOM     17  H   LIG    1       26.293 -12.028   4.060  0.00  0.00    +0.122 HD
BRANCH  16  19
ATOM     18  C   LIG    1       23.891 -14.243   4.310  0.00  0.00    +0.027 C 
ATOM     19  C   LIG    1       24.450 -12.894   3.831  0.00  0.00    +0.011 C 
ATOM     20  C   LIG    1       23.959 -11.770   4.762  0.00  0.00    +0.027 C 
ATOM     21  C   LIG    1       23.891 -12.617   2.420  0.00  0.00    +0.027 C 
ENDBRANCH  16  19
ENDBRANCH  15  16
ENDBRANCH  12  15
ENDBRANCH   1  12
TORSDOF 6
ENDMDL
MODEL 5
REMARK VINA RESULT:      -3.7      2.443      3.880
REMARK  Name = *****
REMARK                            x       y       z     vdW  Elec       q    Type
REMARK                         _______ _______ _______ _____ _____    ______ ____
ROOT
ATOM      1  C   LIG    1       25.309 -18.991   4.100  0.00  0.00    -0.015 A 
ATOM      2  C   LIG    1       25.967 -19.794   5.047  0.00  0.00    +0.028 A 
ATOM      3  C   LIG    1       25.239 -20.613   5.926  0.00  0.00    +0.063 A 
ATOM      4 CL   LIG    1       26.132 -21.571   7.062  0.00  0.00    -0.082 Cl
ATOM      5  C   LIG    1       23.836 -20.646   5.913  0.00  0.00    +0.062 A 
ATOM      6  C   LIG    1       23.187 -19.890   4.922  0.00  0.00    +0.063 A 
ATOM      7 CL   LIG    1       21.463 -19.932   4.772  0.00  0.00    -0.082 Cl
ATOM      8  C   LIG    1       23.909 -19.067   4.045  0.00  0.00    +0.028 A 
ENDROOT
BRANCH   5   9
ATOM      9  N   LIG    1       23.116 -21.571   6.707  0.00  0.00    -0.356 N 
ATOM     10  H   LIG    1       22.813 -21.185   7.599  0.00  0.00    +0.142 HD
ATOM     11  H   LIG    1       22.375 -22.045   6.191  0.00  0.00    +0.142 HD
ENDBRANCH   5   9
BRANCH   1  12
ATOM     12  C   LIG    1       26.102 -18.127   3.132  0.00  0.00    +0.158 C 
BRANCH  12  13
ATOM     13  O   LIG    1       26.100 -18.707   1.821  0.00  0.00    -0.386 OA
ATOM     14  H   LIG    1       26.899 -18.347   1.385  0.00  0.00    +0.210 HD
ENDBRANCH  12  13
BRANCH  12  15
ATOM     15  C   LIG    1       25.572 -16.669   3.018  0.00  0.00    +0.117 C 
BRANCH  15  16
ATOM     16  N   LIG    1       26.618 -15.696   3.406  0.00  0.00    -0.309 NA
ATOM     17  H   LIG    1       27.096 -16.041   4.241  0.00  0.00    +0.122 HD
BRANCH  16  19
ATOM     18  C   LIG    1       26.831 -13.697   4.900  0.00  0.00    +0.027 C 
ATOM     19  C   LIG    1       26.139 -14.320   3.676  0.00  0.00    +0.011 C 
ATOM     20  C   LIG    1       26.310 -13.394   2.457  0.00  0.00    +0.027 C 
ATOM     21  C   LIG    1       24.631 -14.428   3.980  0.00  0.00    +0.027 C 
ENDBRANCH  16  19
ENDBRANCH  15  16
ENDBRANCH  12  15
ENDBRANCH   1  12
TORSDOF 6
ENDMDL
MODEL 6
REMARK VINA RESULT:      -3.5      2.723      3.969
REMARK  Name = *****
REMARK                            x       y       z     vdW  Elec       q    Type
REMARK                         _______ _______ _______ _____ _____    ______ ____
ROOT
ATOM      1  C   LIG    1       22.895 -17.482   4.383  0.00  0.00    -0.015 A 
ATOM      2  C   LIG    1       24.175 -17.835   3.923  0.00  0.00    +0.028 A 
ATOM      3  C   LIG    1       24.532 -19.184   3.750  0.00  0.00    +0.063 A 
ATOM      4 CL   LIG    1       26.131 -19.528   3.177  0.00  0.00    -0.082 Cl
ATOM      5  C   LIG    1       23.641 -20.226   4.051  0.00  0.00    +0.062 A 
ATOM      6  C   LIG    1       22.343 -19.864   4.449  0.00  0.00    +0.063 A 
ATOM      7 CL   LIG    1       21.148 -21.079   4.761  0.00  0.00    -0.082 Cl
ATOM      8  C   LIG    1       21.984 -18.520   4.628  0.00  0.00    +0.028 A 
ENDROOT
BRANCH   5   9
ATOM      9  N   LIG    1       23.959 -21.572   3.747  0.00  0.00    -0.356 N 
ATOM     10  H   LIG    1       23.137 -22.146   3.563  0.00  0.00    +0.142 HD
ATOM     11  H   LIG    1       24.687 -21.658   3.039  0.00  0.00    +0.142 HD
ENDBRANCH   5   9
BRANCH   1  12
ATOM     12  C   LIG    1       22.505 -16.021   4.542  0.00  0.00    +0.158 C 
BRANCH  12  13
ATOM     13  O   LIG    1       21.855 -15.808   5.802  0.00  0.00    -0.386 OA
ATOM     14  H   LIG    1       22.546 -15.981   6.475  0.00  0.00    +0.210 HD
ENDBRANCH  12  13
BRANCH  12  15
ATOM     15  C   LIG    1       23.707 -15.039   4.444  0.00  0.00    +0.117 C 
BRANCH  15  16
ATOM     16  N   LIG    1       23.430 -13.962   3.467  0.00  0.00    -0.309 NA
ATOM     17  H   LIG    1       23.420 -14.363   2.527  0.00  0.00    +0.122 HD
BRANCH  16  19
ATOM     18  C   LIG    1       24.945 -12.527   2.083  0.00  0.00    +0.027 C 
ATOM     19  C   LIG    1       24.383 -12.827   3.482  0.00  0.00    +0.011 C 
ATOM     20  C   LIG    1       23.759 -11.550   4.075  0.00  0.00    +0.027 C 
ATOM     21  C   LIG    1       25.557 -13.247   4.390  0.00  0.00    +0.027 C 
ENDBRANCH  16  19
ENDBRANCH  15  16
ENDBRANCH  12  15
ENDBRANCH   1  12
TORSDOF 6
ENDMDL
MODEL 7
REMARK VINA RESULT:      -3.5      2.679      3.503
REMARK  Name = *****
REMARK                            x       y       z     vdW  Elec       q    Type
REMARK                         _______ _______ _______ _____ _____    ______ ____
ROOT
ATOM      1  C   LIG    1       22.935 -17.461   4.316  0.00  0.00    -0.015 A 
ATOM      2  C   LIG    1       22.011 -18.487   4.573  0.00  0.00    +0.028 A 
ATOM      3  C   LIG    1       22.374 -19.837   4.428  0.00  0.00    +0.063 A 
ATOM      4 CL   LIG    1       21.170 -21.037   4.768  0.00  0.00    -0.082 Cl
ATOM      5  C   LIG    1       23.657 -20.213   4.000  0.00  0.00    +0.062 A 
ATOM      6  C   LIG    1       24.595 -19.185   3.807  0.00  0.00    +0.063 A 
ATOM      7 CL   LIG    1       26.227 -19.555   3.361  0.00  0.00    -0.082 Cl
ATOM      8  C   LIG    1       24.235 -17.836   3.946  0.00  0.00    +0.028 A 
ENDROOT
BRANCH   5   9
ATOM      9  N   LIG    1       24.056 -21.572   3.988  0.00  0.00    -0.356 N 
ATOM     10  H   LIG    1       23.583 -22.135   4.692  0.00  0.00    +0.142 HD
ATOM     11  H   LIG    1       24.041 -21.982   3.055  0.00  0.00    +0.142 HD
ENDBRANCH   5   9
BRANCH   1  12
ATOM     12  C   LIG    1       22.546 -16.003   4.501  0.00  0.00    +0.158 C 
BRANCH  12  13
ATOM     13  O   LIG    1       21.882 -15.814   5.758  0.00  0.00    -0.386 OA
ATOM     14  H   LIG    1       22.468 -15.216   6.265  0.00  0.00    +0.210 HD
ENDBRANCH  12  13
BRANCH  12  15
ATOM     15  C   LIG    1       23.750 -15.021   4.435  0.00  0.00    +0.117 C 
BRANCH  15  16
ATOM     16  N   LIG    1       23.540 -13.998   3.387  0.00  0.00    -0.309 NA
ATOM     17  H   LIG    1       23.581 -14.450   2.471  0.00  0.00    +0.122 HD
BRANCH  16  19
ATOM     18  C   LIG    1       25.931 -13.332   3.720  0.00  0.00    +0.027 C 
ATOM     19  C   LIG    1       24.501 -12.870   3.395  0.00  0.00    +0.011 C 
ATOM     20  C   LIG    1       24.498 -12.091   2.067  0.00  0.00    +0.027 C 
ATOM     21  C   LIG    1       24.044 -11.907   4.510  0.00  0.00    +0.027 C 
ENDBRANCH  16  19
ENDBRANCH  15  16
ENDBRANCH  12  15
ENDBRANCH   1  12
TORSDOF 6
ENDMDL
MODEL 8
REMARK VINA RESULT:      -3.4      1.887      2.644
REMARK  Name = *****
REMARK                            x       y       z     vdW  Elec       q    Type
REMARK                         _______ _______ _______ _____ _____    ______ ____
ROOT
ATOM      1  C   LIG    1       26.281 -18.517   4.157  0.00  0.00    -0.015 A 
ATOM      2  C   LIG    1       25.298 -19.446   4.536  0.00  0.00    +0.028 A 
ATOM      3  C   LIG    1       25.590 -20.471   5.453  0.00  0.00    +0.063 A 
ATOM      4 CL   LIG    1       24.315 -21.572   5.865  0.00  0.00    -0.082 Cl
ATOM      5  C   LIG    1       26.872 -20.624   6.003  0.00  0.00    +0.062 A 
ATOM      6  C   LIG    1       27.832 -19.654   5.669  0.00  0.00    +0.063 A 
ATOM      7 CL   LIG    1       29.417 -19.710   6.364  0.00  0.00    -0.082 Cl
ATOM      8  C   LIG    1       27.547 -18.633   4.751  0.00  0.00    +0.028 A 
ENDROOT
BRANCH   5   9
ATOM      9  N   LIG    1       27.122 -21.572   7.025  0.00  0.00    -0.356 N 
ATOM     10  H   LIG    1       27.534 -22.436   6.678  0.00  0.00    +0.142 HD
ATOM     11  H   LIG    1       27.614 -21.174   7.824  0.00  0.00    +0.142 HD
ENDBRANCH   5   9
BRANCH   1  12
ATOM     12  C   LIG    1       25.953 -17.394   3.186  0.00  0.00    +0.158 C 
BRANCH  12  13
ATOM     13  O   LIG    1       24.582 -16.997   3.322  0.00  0.00    -0.386 OA
ATOM     14  H   LIG    1       24.317 -17.303   4.213  0.00  0.00    +0.210 HD
ENDBRANCH  12  13
BRANCH  12  15
ATOM     15  C   LIG    1       26.844 -16.132   3.366  0.00  0.00    +0.117 C 
BRANCH  15  16
ATOM     16  N   LIG    1       26.352 -15.015   2.529  0.00  0.00    -0.309 NA
ATOM     17  H   LIG    1       26.915 -14.969   1.676  0.00  0.00    +0.122 HD
BRANCH  16  19
ATOM     18  C   LIG    1       27.795 -13.220   3.512  0.00  0.00    +0.027 C 
ATOM     19  C   LIG    1       26.368 -13.681   3.173  0.00  0.00    +0.011 C 
ATOM     20  C   LIG    1       25.669 -12.610   2.313  0.00  0.00    +0.027 C 
ATOM     21  C   LIG    1       25.581 -13.817   4.492  0.00  0.00    +0.027 C 
ENDBRANCH  16  19
ENDBRANCH  15  16
ENDBRANCH  12  15
ENDBRANCH   1  12
TORSDOF 6
ENDMDL
MODEL 9
REMARK VINA RESULT:      -3.3      4.207      5.300
REMARK  Name = *****
REMARK                            x       y       z     vdW  Elec       q    Type
REMARK                         _______ _______ _______ _____ _____    ______ ____
ROOT
ATOM      1  C   LIG    1       25.686 -20.566   5.580  0.00  0.00    -0.015 A 
ATOM      2  C   LIG    1       25.735 -19.491   4.678  0.00  0.00    +0.028 A 
ATOM      3  C   LIG    1       26.907 -18.729   4.527  0.00  0.00    +0.063 A 
ATOM      4 CL   LIG    1       26.879 -17.421   3.390  0.00  0.00    -0.082 Cl
ATOM      5  C   LIG    1       28.059 -18.993   5.284  0.00  0.00    +0.062 A 
ATOM      6  C   LIG    1       28.023 -20.109   6.137  0.00  0.00    +0.063 A 
ATOM      7 CL   LIG    1       29.424 -20.565   7.049  0.00  0.00    -0.082 Cl
ATOM      8  C   LIG    1       26.855 -20.868   6.294  0.00  0.00    +0.028 A 
ENDROOT
BRANCH   5   9
ATOM      9  N   LIG    1       29.274 -18.312   5.031  0.00  0.00    -0.356 N 
ATOM     10  H   LIG    1       29.763 -18.035   5.881  0.00  0.00    +0.142 HD
ATOM     11  H   LIG    1       29.866 -18.792   4.355  0.00  0.00    +0.142 HD
ENDBRANCH   5   9
BRANCH   1  12
ATOM     12  C   LIG    1       24.424 -21.404   5.719  0.00  0.00    +0.158 C 
BRANCH  12  13
ATOM     13  O   LIG    1       23.924 -21.341   7.061  0.00  0.00    -0.386 OA
ATOM     14  H   LIG    1       23.532 -22.224   7.225  0.00  0.00    +0.210 HD
ENDBRANCH  12  13
BRANCH  12  15
ATOM     15  C   LIG    1       23.281 -20.976   4.755  0.00  0.00    +0.117 C 
BRANCH  15  16
ATOM     16  N   LIG    1       22.541 -19.814   5.297  0.00  0.00    -0.309 NA
ATOM     17  H   LIG    1       21.665 -20.143   5.708  0.00  0.00    +0.122 HD
BRANCH  16  19
ATOM     18  C   LIG    1       20.818 -18.907   3.722  0.00  0.00    +0.027 C 
ATOM     19  C   LIG    1       22.226 -18.747   4.318  0.00  0.00    +0.011 C 
ATOM     20  C   LIG    1       22.375 -17.338   4.924  0.00  0.00    +0.027 C 
ATOM     21  C   LIG    1       23.250 -18.880   3.173  0.00  0.00    +0.027 C 
ENDBRANCH  16  19
ENDBRANCH  15  16
ENDBRANCH  12  15
ENDBRANCH   1  12
TORSDOF 6
ENDMDL
