MODEL 1
REMARK VINA RESULT:     -10.3      0.000      0.000
REMARK  Name = *****
REMARK                            x       y       z     vdW  Elec       q    Type
REMARK                         _______ _______ _______ _____ _____    ______ ____
ROOT
ATOM      1  C   LIG    1       23.376 -22.111   7.191  0.00  0.00    +0.008 C 
ATOM      2  C   LIG    1       23.935 -20.894   7.296  0.00  0.00    +0.012 C 
ENDROOT
BRANCH   1   6
ATOM      3  C   LIG    1       25.427 -25.753   6.320  0.00  0.00    +0.065 A 
ATOM      4  C   LIG    1       24.059 -25.639   6.050  0.00  0.00    +0.016 A 
ATOM      5  C   LIG    1       23.387 -24.445   6.339  0.00  0.00    +0.009 A 
ATOM      6  C   LIG    1       24.077 -23.362   6.894  0.00  0.00    -0.025 A 
ATOM      7  C   LIG    1       25.448 -23.474   7.147  0.00  0.00    +0.009 A 
ATOM      8  C   LIG    1       26.120 -24.669   6.868  0.00  0.00    +0.016 A 
BRANCH   3  11
ATOM      9  N   LIG    1       27.147 -27.043   5.245  0.00  0.00    -0.099 NA
ATOM     10  H   LIG    1       27.561 -27.977   5.215  0.00  0.00    +0.363 HD
ATOM     11  C   LIG    1       26.149 -27.032   6.065  0.00  0.00    +0.308 C 
BRANCH  11  12
ATOM     12  N   LIG    1       25.756 -28.185   6.681  0.00  0.00    -0.247 N 
ATOM     13  H   LIG    1       25.079 -28.076   7.429  0.00  0.00    +0.288 HD
ATOM     14  H   LIG    1       25.506 -28.946   6.061  0.00  0.00    +0.288 HD
ENDBRANCH  11  12
ENDBRANCH   3  11
ENDBRANCH   1   6
BRANCH   2  15
ATOM     15  C   LIG    1       25.359 -20.567   7.139  0.00  0.00    +0.017 A 
ATOM     16  C   LIG    1       26.233 -20.519   8.235  0.00  0.00    +0.125 A 
ATOM     17  C   LIG    1       27.590 -20.232   8.059  0.00  0.00    +0.061 A 
ATOM     18  C   LIG    1       28.091 -20.004   6.772  0.00  0.00    +0.068 A 
ATOM     19  C   LIG    1       27.230 -20.062   5.670  0.00  0.00    +0.017 A 
ATOM     20  C   LIG    1       25.870 -20.341   5.856  0.00  0.00    +0.012 A 
BRANCH  18  21
ATOM     21  C   LIG    1       29.539 -19.688   6.590  0.00  0.00    +0.308 C 
ATOM     22  N   LIG    1       29.970 -18.729   5.842  0.00  0.00    -0.099 NA
ATOM     23  H   LIG    1       29.205 -18.251   5.357  0.00  0.00    +0.363 HD
BRANCH  21  24
ATOM     24  N   LIG    1       30.492 -20.424   7.235  0.00  0.00    -0.247 N 
ATOM     25  H   LIG    1       30.193 -21.393   7.316  0.00  0.00    +0.288 HD
ATOM     26  H   LIG    1       31.435 -20.344   6.873  0.00  0.00    +0.288 HD
ENDBRANCH  21  24
ENDBRANCH  18  21
BRANCH  16  27
ATOM     27  O   LIG    1       25.749 -20.782   9.489  0.00  0.00    -0.506 OA
ATOM     28  H   LIG    1       26.243 -20.255  10.137  0.00  0.00    +0.292 HD
ENDBRANCH  16  27
ENDBRANCH   2  15
TORSDOF 7
ENDMDL
MODEL 2
REMARK VINA RESULT:     -10.1      1.054      1.827
REMARK  Name = *****
REMARK                            x       y       z     vdW  Elec       q    Type
REMARK                         _______ _______ _______ _____ _____    ______ ____
ROOT
ATOM      1  C   LIG    1       23.389 -22.186   7.188  0.00  0.00    +0.008 C 
ATOM      2  C   LIG    1       23.958 -20.973   7.285  0.00  0.00    +0.012 C 
ENDROOT
BRANCH   1   6
ATOM      3  C   LIG    1       25.390 -25.849   6.293  0.00  0.00    +0.065 A 
ATOM      4  C   LIG    1       26.096 -24.792   6.876  0.00  0.00    +0.016 A 
ATOM      5  C   LIG    1       25.439 -23.589   7.165  0.00  0.00    +0.009 A 
ATOM      6  C   LIG    1       24.078 -23.441   6.879  0.00  0.00    -0.025 A 
ATOM      7  C   LIG    1       23.372 -24.507   6.312  0.00  0.00    +0.009 A 
ATOM      8  C   LIG    1       24.028 -25.705   6.013  0.00  0.00    +0.016 A 
BRANCH   3  11
ATOM      9  N   LIG    1       27.027 -27.096   5.048  0.00  0.00    -0.099 NA
ATOM     10  H   LIG    1       27.431 -28.029   4.949  0.00  0.00    +0.363 HD
ATOM     11  C   LIG    1       26.085 -27.119   5.932  0.00  0.00    +0.308 C 
BRANCH  11  12
ATOM     12  N   LIG    1       25.726 -28.297   6.521  0.00  0.00    -0.247 N 
ATOM     13  H   LIG    1       25.893 -28.359   7.520  0.00  0.00    +0.288 HD
ATOM     14  H   LIG    1       24.806 -28.643   6.275  0.00  0.00    +0.288 HD
ENDBRANCH  11  12
ENDBRANCH   3  11
ENDBRANCH   1   6
BRANCH   2  15
ATOM     15  C   LIG    1       25.381 -20.655   7.106  0.00  0.00    +0.017 A 
ATOM     16  C   LIG    1       25.933 -20.418   5.839  0.00  0.00    +0.125 A 
ATOM     17  C   LIG    1       27.285 -20.090   5.694  0.00  0.00    +0.061 A 
ATOM     18  C   LIG    1       28.099 -19.982   6.828  0.00  0.00    +0.068 A 
ATOM     19  C   LIG    1       27.555 -20.205   8.098  0.00  0.00    +0.017 A 
ATOM     20  C   LIG    1       26.202 -20.541   8.234  0.00  0.00    +0.012 A 
BRANCH  18  21
ATOM     21  C   LIG    1       29.544 -19.642   6.668  0.00  0.00    +0.308 C 
ATOM     22  N   LIG    1       29.970 -18.667   5.938  0.00  0.00    -0.099 NA
ATOM     23  H   LIG    1       29.205 -18.195   5.449  0.00  0.00    +0.363 HD
BRANCH  21  24
ATOM     24  N   LIG    1       30.499 -20.372   7.317  0.00  0.00    -0.247 N 
ATOM     25  H   LIG    1       30.109 -21.254   7.640  0.00  0.00    +0.288 HD
ATOM     26  H   LIG    1       31.374 -20.499   6.821  0.00  0.00    +0.288 HD
ENDBRANCH  21  24
ENDBRANCH  18  21
BRANCH  16  27
ATOM     27  O   LIG    1       25.126 -20.485   4.734  0.00  0.00    -0.506 OA
ATOM     28  H   LIG    1       24.223 -20.702   5.014  0.00  0.00    +0.292 HD
ENDBRANCH  16  27
ENDBRANCH   2  15
TORSDOF 7
ENDMDL
MODEL 3
REMARK VINA RESULT:      -9.9      1.315      6.196
REMARK  Name = *****
REMARK                            x       y       z     vdW  Elec       q    Type
REMARK                         _______ _______ _______ _____ _____    ______ ____
ROOT
ATOM      1  C   LIG    1       24.318 -20.657   7.378  0.00  0.00    +0.008 C 
ATOM      2  C   LIG    1       23.664 -21.822   7.237  0.00  0.00    +0.012 C 
ENDROOT
BRANCH   1   6
ATOM      3  C   LIG    1       28.536 -20.085   7.042  0.00  0.00    +0.065 A 
ATOM      4  C   LIG    1       27.954 -20.278   8.299  0.00  0.00    +0.016 A 
ATOM      5  C   LIG    1       26.570 -20.462   8.408  0.00  0.00    +0.009 A 
ATOM      6  C   LIG    1       25.764 -20.459   7.265  0.00  0.00    -0.025 A 
ATOM      7  C   LIG    1       26.352 -20.282   6.007  0.00  0.00    +0.009 A 
ATOM      8  C   LIG    1       27.733 -20.089   5.897  0.00  0.00    +0.016 A 
BRANCH   3  11
ATOM      9  N   LIG    1       30.417 -18.905   6.120  0.00  0.00    -0.099 NA
ATOM     10  H   LIG    1       31.434 -18.831   6.178  0.00  0.00    +0.363 HD
ATOM     11  C   LIG    1       30.001 -19.839   6.911  0.00  0.00    +0.308 C 
BRANCH  11  12
ATOM     12  N   LIG    1       30.896 -20.595   7.610  0.00  0.00    -0.247 N 
ATOM     13  H   LIG    1       31.613 -20.078   8.110  0.00  0.00    +0.288 HD
ATOM     14  H   LIG    1       30.494 -21.324   8.187  0.00  0.00    +0.288 HD
ENDBRANCH  11  12
ENDBRANCH   3  11
ENDBRANCH   1   6
BRANCH   2  15
ATOM     15  C   LIG    1       24.261 -23.132   6.941  0.00  0.00    +0.017 A 
ATOM     16  C   LIG    1       23.475 -24.243   6.600  0.00  0.00    +0.125 A 
ATOM     17  C   LIG    1       24.065 -25.473   6.295  0.00  0.00    +0.061 A 
ATOM     18  C   LIG    1       25.459 -25.599   6.314  0.00  0.00    +0.068 A 
ATOM     19  C   LIG    1       26.253 -24.493   6.641  0.00  0.00    +0.017 A 
ATOM     20  C   LIG    1       25.653 -23.267   6.954  0.00  0.00    +0.012 A 
BRANCH  18  21
ATOM     21  C   LIG    1       26.085 -26.917   5.998  0.00  0.00    +0.308 C 
ATOM     22  N   LIG    1       27.036 -27.066   5.137  0.00  0.00    -0.099 NA
ATOM     23  H   LIG    1       27.267 -26.185   4.669  0.00  0.00    +0.363 HD
BRANCH  21  24
ATOM     24  N   LIG    1       25.665 -28.050   6.634  0.00  0.00    -0.247 N 
ATOM     25  H   LIG    1       26.327 -28.806   6.480  0.00  0.00    +0.288 HD
ATOM     26  H   LIG    1       25.424 -27.946   7.613  0.00  0.00    +0.288 HD
ENDBRANCH  21  24
ENDBRANCH  18  21
BRANCH  16  27
ATOM     27  O   LIG    1       22.113 -24.108   6.543  0.00  0.00    -0.506 OA
ATOM     28  H   LIG    1       21.806 -23.653   7.344  0.00  0.00    +0.292 HD
ENDBRANCH  16  27
ENDBRANCH   2  15
TORSDOF 7
ENDMDL
MODEL 4
REMARK VINA RESULT:      -8.0      3.803      6.322
REMARK  Name = *****
REMARK                            x       y       z     vdW  Elec       q    Type
REMARK                         _______ _______ _______ _____ _____    ______ ____
ROOT
ATOM      1  C   LIG    1       26.089 -22.939   7.497  0.00  0.00    +0.008 C 
ATOM      2  C   LIG    1       24.795 -22.901   7.139  0.00  0.00    +0.012 C 
ENDROOT
BRANCH   1   6
ATOM      3  C   LIG    1       28.998 -19.901   6.769  0.00  0.00    +0.065 A 
ATOM      4  C   LIG    1       27.847 -19.971   5.977  0.00  0.00    +0.016 A 
ATOM      5  C   LIG    1       26.896 -20.970   6.215  0.00  0.00    +0.009 A 
ATOM      6  C   LIG    1       27.087 -21.898   7.244  0.00  0.00    -0.025 A 
ATOM      7  C   LIG    1       28.231 -21.814   8.044  0.00  0.00    +0.009 A 
ATOM      8  C   LIG    1       29.188 -20.823   7.803  0.00  0.00    +0.016 A 
BRANCH   3  11
ATOM      9  N   LIG    1       29.919 -18.096   5.475  0.00  0.00    -0.099 NA
ATOM     10  H   LIG    1       30.688 -17.422   5.456  0.00  0.00    +0.363 HD
ATOM     11  C   LIG    1       30.046 -18.874   6.498  0.00  0.00    +0.308 C 
BRANCH  11  12
ATOM     12  N   LIG    1       31.133 -18.761   7.316  0.00  0.00    -0.247 N 
ATOM     13  H   LIG    1       31.465 -19.626   7.729  0.00  0.00    +0.288 HD
ATOM     14  H   LIG    1       31.897 -18.207   6.948  0.00  0.00    +0.288 HD
ENDBRANCH  11  12
ENDBRANCH   3  11
ENDBRANCH   1   6
BRANCH   2  15
ATOM     15  C   LIG    1       24.115 -21.811   6.426  0.00  0.00    +0.017 A 
ATOM     16  C   LIG    1       24.007 -21.795   5.028  0.00  0.00    +0.125 A 
ATOM     17  C   LIG    1       23.332 -20.762   4.371  0.00  0.00    +0.061 A 
ATOM     18  C   LIG    1       22.741 -19.734   5.115  0.00  0.00    +0.068 A 
ATOM     19  C   LIG    1       22.833 -19.747   6.512  0.00  0.00    +0.017 A 
ATOM     20  C   LIG    1       23.518 -20.781   7.161  0.00  0.00    +0.012 A 
BRANCH  18  21
ATOM     21  C   LIG    1       22.030 -18.627   4.410  0.00  0.00    +0.308 C 
ATOM     22  N   LIG    1       21.046 -18.817   3.595  0.00  0.00    -0.099 NA
ATOM     23  H   LIG    1       20.852 -19.812   3.458  0.00  0.00    +0.363 HD
BRANCH  21  24
ATOM     24  N   LIG    1       22.402 -17.329   4.613  0.00  0.00    -0.247 N 
ATOM     25  H   LIG    1       23.075 -17.041   3.907  0.00  0.00    +0.288 HD
ATOM     26  H   LIG    1       21.647 -16.661   4.716  0.00  0.00    +0.288 HD
ENDBRANCH  21  24
ENDBRANCH  18  21
BRANCH  16  27
ATOM     27  O   LIG    1       24.551 -22.822   4.302  0.00  0.00    -0.506 OA
ATOM     28  H   LIG    1       24.545 -22.585   3.362  0.00  0.00    +0.292 HD
ENDBRANCH  16  27
ENDBRANCH   2  15
TORSDOF 7
ENDMDL
MODEL 5
REMARK VINA RESULT:      -7.8      3.633      4.957
REMARK  Name = *****
REMARK                            x       y       z     vdW  Elec       q    Type
REMARK                         _______ _______ _______ _____ _____    ______ ____
ROOT
ATOM      1  C   LIG    1       24.775 -23.042   6.658  0.00  0.00    +0.008 C 
ATOM      2  C   LIG    1       25.984 -23.075   7.243  0.00  0.00    +0.012 C 
ENDROOT
BRANCH   1   6
ATOM      3  C   LIG    1       22.936 -19.638   4.852  0.00  0.00    +0.065 A 
ATOM      4  C   LIG    1       23.794 -20.449   4.103  0.00  0.00    +0.016 A 
ATOM      5  C   LIG    1       24.400 -21.563   4.697  0.00  0.00    +0.009 A 
ATOM      6  C   LIG    1       24.147 -21.874   6.038  0.00  0.00    -0.025 A 
ATOM      7  C   LIG    1       23.275 -21.069   6.779  0.00  0.00    +0.009 A 
ATOM      8  C   LIG    1       22.677 -19.951   6.190  0.00  0.00    +0.016 A 
BRANCH   3  11
ATOM      9  N   LIG    1       21.146 -18.502   3.718  0.00  0.00    -0.099 NA
ATOM     10  H   LIG    1       20.848 -17.579   3.395  0.00  0.00    +0.363 HD
ATOM     11  C   LIG    1       22.321 -18.420   4.250  0.00  0.00    +0.308 C 
BRANCH  11  12
ATOM     12  N   LIG    1       22.993 -17.232   4.250  0.00  0.00    -0.247 N 
ATOM     13  H   LIG    1       23.839 -17.205   4.809  0.00  0.00    +0.288 HD
ATOM     14  H   LIG    1       23.135 -16.813   3.339  0.00  0.00    +0.288 HD
ENDBRANCH  11  12
ENDBRANCH   3  11
ENDBRANCH   1   6
BRANCH   2  15
ATOM     15  C   LIG    1       26.923 -21.953   7.379  0.00  0.00    +0.017 A 
ATOM     16  C   LIG    1       26.789 -20.994   8.394  0.00  0.00    +0.125 A 
ATOM     17  C   LIG    1       27.710 -19.950   8.522  0.00  0.00    +0.061 A 
ATOM     18  C   LIG    1       28.790 -19.863   7.636  0.00  0.00    +0.068 A 
ATOM     19  C   LIG    1       28.939 -20.822   6.626  0.00  0.00    +0.017 A 
ATOM     20  C   LIG    1       28.008 -21.860   6.500  0.00  0.00    +0.012 A 
BRANCH  18  21
ATOM     21  C   LIG    1       29.765 -18.741   7.768  0.00  0.00    +0.308 C 
ATOM     22  N   LIG    1       30.400 -18.227   6.769  0.00  0.00    -0.099 NA
ATOM     23  H   LIG    1       30.190 -18.714   5.893  0.00  0.00    +0.363 HD
BRANCH  21  24
ATOM     24  N   LIG    1       30.025 -18.194   8.993  0.00  0.00    -0.247 N 
ATOM     25  H   LIG    1       29.778 -18.850   9.730  0.00  0.00    +0.288 HD
ATOM     26  H   LIG    1       30.953 -17.809   9.119  0.00  0.00    +0.288 HD
ENDBRANCH  21  24
ENDBRANCH  18  21
BRANCH  16  27
ATOM     27  O   LIG    1       25.754 -21.103   9.285  0.00  0.00    -0.506 OA
ATOM     28  H   LIG    1       25.130 -20.375   9.136  0.00  0.00    +0.292 HD
ENDBRANCH  16  27
ENDBRANCH   2  15
TORSDOF 7
ENDMDL
MODEL 6
REMARK VINA RESULT:      -7.8      3.653      6.120
REMARK  Name = *****
REMARK                            x       y       z     vdW  Elec       q    Type
REMARK                         _______ _______ _______ _____ _____    ______ ____
ROOT
ATOM      1  C   LIG    1       26.114 -23.234   7.288  0.00  0.00    +0.008 C 
ATOM      2  C   LIG    1       24.917 -23.211   6.678  0.00  0.00    +0.012 C 
ENDROOT
BRANCH   1   6
ATOM      3  C   LIG    1       28.752 -19.916   7.800  0.00  0.00    +0.065 A 
ATOM      4  C   LIG    1       27.507 -19.925   8.438  0.00  0.00    +0.016 A 
ATOM      5  C   LIG    1       26.641 -21.012   8.266  0.00  0.00    +0.009 A 
ATOM      6  C   LIG    1       27.017 -22.094   7.463  0.00  0.00    -0.025 A 
ATOM      7  C   LIG    1       28.269 -22.089   6.840  0.00  0.00    +0.009 A 
ATOM      8  C   LIG    1       29.132 -21.000   7.002  0.00  0.00    +0.016 A 
BRANCH   3  11
ATOM      9  N   LIG    1       30.266 -18.290   6.882  0.00  0.00    -0.099 NA
ATOM     10  H   LIG    1       30.814 -17.463   7.128  0.00  0.00    +0.363 HD
ATOM     11  C   LIG    1       29.666 -18.745   7.932  0.00  0.00    +0.308 C 
BRANCH  11  12
ATOM     12  N   LIG    1       29.876 -18.163   9.148  0.00  0.00    -0.247 N 
ATOM     13  H   LIG    1       29.994 -17.155   9.138  0.00  0.00    +0.288 HD
ATOM     14  H   LIG    1       29.247 -18.457   9.885  0.00  0.00    +0.288 HD
ENDBRANCH  11  12
ENDBRANCH   3  11
ENDBRANCH   1   6
BRANCH   2  15
ATOM     15  C   LIG    1       24.267 -22.044   6.067  0.00  0.00    +0.017 A 
ATOM     16  C   LIG    1       23.374 -21.235   6.784  0.00  0.00    +0.125 A 
ATOM     17  C   LIG    1       22.787 -20.113   6.191  0.00  0.00    +0.061 A 
ATOM     18  C   LIG    1       23.103 -19.781   4.869  0.00  0.00    +0.068 A 
ATOM     19  C   LIG    1       24.002 -20.576   4.148  0.00  0.00    +0.017 A 
ATOM     20  C   LIG    1       24.579 -21.702   4.747  0.00  0.00    +0.012 A 
BRANCH  18  21
ATOM     21  C   LIG    1       22.466 -18.588   4.235  0.00  0.00    +0.308 C 
ATOM     22  N   LIG    1       21.250 -18.575   3.802  0.00  0.00    -0.099 NA
ATOM     23  H   LIG    1       20.801 -19.490   3.902  0.00  0.00    +0.363 HD
BRANCH  21  24
ATOM     24  N   LIG    1       23.169 -17.426   4.092  0.00  0.00    -0.247 N 
ATOM     25  H   LIG    1       22.868 -16.934   3.254  0.00  0.00    +0.288 HD
ATOM     26  H   LIG    1       23.194 -16.819   4.903  0.00  0.00    +0.288 HD
ENDBRANCH  21  24
ENDBRANCH  18  21
BRANCH  16  27
ATOM     27  O   LIG    1       23.096 -21.538   8.091  0.00  0.00    -0.506 OA
ATOM     28  H   LIG    1       22.857 -22.476   8.155  0.00  0.00    +0.292 HD
ENDBRANCH  16  27
ENDBRANCH   2  15
TORSDOF 7
ENDMDL
MODEL 7
REMARK VINA RESULT:      -7.7      4.024      7.765
REMARK  Name = *****
REMARK                            x       y       z     vdW  Elec       q    Type
REMARK                         _______ _______ _______ _____ _____    ______ ____
ROOT
ATOM      1  C   LIG    1       25.038 -26.906   5.023  0.00  0.00    +0.008 C 
ATOM      2  C   LIG    1       25.183 -28.140   5.534  0.00  0.00    +0.012 C 
ENDROOT
BRANCH   1   6
ATOM      3  C   LIG    1       24.801 -23.273   7.254  0.00  0.00    +0.065 A 
ATOM      4  C   LIG    1       23.630 -23.927   6.855  0.00  0.00    +0.016 A 
ATOM      5  C   LIG    1       23.709 -25.116   6.120  0.00  0.00    +0.009 A 
ATOM      6  C   LIG    1       24.954 -25.659   5.787  0.00  0.00    -0.025 A 
ATOM      7  C   LIG    1       26.123 -25.011   6.202  0.00  0.00    +0.009 A 
ATOM      8  C   LIG    1       26.046 -23.818   6.927  0.00  0.00    +0.016 A 
BRANCH   3  11
ATOM      9  N   LIG    1       25.598 -21.741   8.927  0.00  0.00    -0.099 NA
ATOM     10  H   LIG    1       25.450 -20.802   9.301  0.00  0.00    +0.363 HD
ATOM     11  C   LIG    1       24.736 -21.980   7.995  0.00  0.00    +0.308 C 
BRANCH  11  12
ATOM     12  N   LIG    1       23.771 -21.060   7.700  0.00  0.00    -0.247 N 
ATOM     13  H   LIG    1       23.271 -21.211   6.830  0.00  0.00    +0.288 HD
ATOM     14  H   LIG    1       23.139 -20.836   8.459  0.00  0.00    +0.288 HD
ENDBRANCH  11  12
ENDBRANCH   3  11
ENDBRANCH   1   6
BRANCH   2  15
ATOM     15  C   LIG    1       25.291 -28.492   6.957  0.00  0.00    +0.017 A 
ATOM     16  C   LIG    1       24.480 -29.477   7.538  0.00  0.00    +0.125 A 
ATOM     17  C   LIG    1       24.617 -29.817   8.888  0.00  0.00    +0.061 A 
ATOM     18  C   LIG    1       25.586 -29.177   9.670  0.00  0.00    +0.068 A 
ATOM     19  C   LIG    1       26.409 -28.200   9.096  0.00  0.00    +0.017 A 
ATOM     20  C   LIG    1       26.259 -27.861   7.746  0.00  0.00    +0.012 A 
BRANCH  18  21
ATOM     21  C   LIG    1       25.723 -29.534  11.113  0.00  0.00    +0.308 C 
ATOM     22  N   LIG    1       26.498 -30.473  11.544  0.00  0.00    -0.099 NA
ATOM     23  H   LIG    1       26.961 -30.967  10.776  0.00  0.00    +0.363 HD
BRANCH  21  24
ATOM     24  N   LIG    1       25.015 -28.854  12.062  0.00  0.00    -0.247 N 
ATOM     25  H   LIG    1       24.033 -28.810  11.803  0.00  0.00    +0.288 HD
ATOM     26  H   LIG    1       25.145 -29.161  13.018  0.00  0.00    +0.288 HD
ENDBRANCH  21  24
ENDBRANCH  18  21
BRANCH  16  27
ATOM     27  O   LIG    1       23.559 -30.131   6.762  0.00  0.00    -0.506 OA
ATOM     28  H   LIG    1       22.840 -30.454   7.328  0.00  0.00    +0.292 HD
ENDBRANCH  16  27
ENDBRANCH   2  15
TORSDOF 7
ENDMDL
MODEL 8
REMARK VINA RESULT:      -7.4      3.976      6.114
REMARK  Name = *****
REMARK                            x       y       z     vdW  Elec       q    Type
REMARK                         _______ _______ _______ _____ _____    ______ ____
ROOT
ATOM      1  C   LIG    1       24.918 -29.087   5.987  0.00  0.00    +0.008 C 
ATOM      2  C   LIG    1       24.873 -27.941   5.288  0.00  0.00    +0.012 C 
ENDROOT
BRANCH   1   6
ATOM      3  C   LIG    1       25.310 -29.437  10.224  0.00  0.00    +0.065 A 
ATOM      4  C   LIG    1       26.275 -28.742   9.488  0.00  0.00    +0.016 A 
ATOM      5  C   LIG    1       26.147 -28.631   8.098  0.00  0.00    +0.009 A 
ATOM      6  C   LIG    1       25.056 -29.208   7.440  0.00  0.00    -0.025 A 
ATOM      7  C   LIG    1       24.084 -29.888   8.183  0.00  0.00    +0.009 A 
ATOM      8  C   LIG    1       24.215 -30.008   9.570  0.00  0.00    +0.016 A 
BRANCH   3  11
ATOM      9  N   LIG    1       26.311 -30.462  12.155  0.00  0.00    -0.099 NA
ATOM     10  H   LIG    1       26.325 -30.426  13.176  0.00  0.00    +0.363 HD
ATOM     11  C   LIG    1       25.456 -29.607  11.699  0.00  0.00    +0.308 C 
BRANCH  11  12
ATOM     12  N   LIG    1       24.691 -28.876  12.561  0.00  0.00    -0.247 N 
ATOM     13  H   LIG    1       24.422 -29.348  13.418  0.00  0.00    +0.288 HD
ATOM     14  H   LIG    1       25.018 -27.934  12.741  0.00  0.00    +0.288 HD
ENDBRANCH  11  12
ENDBRANCH   3  11
ENDBRANCH   1   6
BRANCH   2  15
ATOM     15  C   LIG    1       24.950 -26.578   5.832  0.00  0.00    +0.017 A 
ATOM     16  C   LIG    1       26.175 -25.921   6.012  0.00  0.00    +0.125 A 
ATOM     17  C   LIG    1       26.223 -24.614   6.506  0.00  0.00    +0.061 A 
ATOM     18  C   LIG    1       25.034 -23.943   6.813  0.00  0.00    +0.068 A 
ATOM     19  C   LIG    1       23.804 -24.586   6.626  0.00  0.00    +0.017 A 
ATOM     20  C   LIG    1       23.766 -25.898   6.139  0.00  0.00    +0.012 A 
BRANCH  18  21
ATOM     21  C   LIG    1       25.089 -22.551   7.351  0.00  0.00    +0.308 C 
ATOM     22  N   LIG    1       26.183 -21.875   7.465  0.00  0.00    -0.099 NA
ATOM     23  H   LIG    1       27.001 -22.425   7.192  0.00  0.00    +0.363 HD
BRANCH  21  24
ATOM     24  N   LIG    1       23.945 -21.919   7.748  0.00  0.00    -0.247 N 
ATOM     25  H   LIG    1       23.830 -22.001   8.754  0.00  0.00    +0.288 HD
ATOM     26  H   LIG    1       23.831 -20.965   7.426  0.00  0.00    +0.288 HD
ENDBRANCH  21  24
ENDBRANCH  18  21
BRANCH  16  27
ATOM     27  O   LIG    1       27.336 -26.565   5.674  0.00  0.00    -0.506 OA
ATOM     28  H   LIG    1       28.059 -26.226   6.226  0.00  0.00    +0.292 HD
ENDBRANCH  16  27
ENDBRANCH   2  15
TORSDOF 7
ENDMDL
