MODEL 1
REMARK VINA RESULT:      -2.2      0.000      0.000
REMARK  Name = *****
REMARK                            x       y       z     vdW  Elec       q    Type
REMARK                         _______ _______ _______ _____ _____    ______ ____
ROOT
ATOM      1  N   LIG    1       26.015 -13.419   3.290  0.00  0.00    +0.249 N 
ATOM      2  C   LIG    1       25.569 -13.243   4.776  0.00  0.00    +0.102 C 
ATOM      3  C   LIG    1       24.755 -11.958   4.824  0.00  0.00    +0.201 C 
ATOM      4  C   LIG    1       24.174 -11.783   3.454  0.00  0.00    +0.201 C 
ATOM      5  O   LIG    1       23.348 -12.028   4.594  0.00  0.00    -0.357 OA
ATOM      6  C   LIG    1       24.712 -14.466   5.158  0.00  0.00    +0.102 C 
ATOM      7  C   LIG    1       23.533 -14.761   4.189  0.00  0.00    +0.187 C 
ATOM      8  C   LIG    1       23.630 -14.126   2.778  0.00  0.00    +0.102 C 
ATOM      9  C   LIG    1       24.645 -12.979   2.644  0.00  0.00    +0.102 C 
ATOM     10  C   LIG    1       26.492 -14.816   2.907  0.00  0.00    +0.193 C 
ENDROOT
BRANCH   1  11
ATOM     11  C   LIG    1       27.152 -12.424   2.870  0.00  0.00    +0.133 C 
BRANCH  11  12
ATOM     12  C   LIG    1       28.575 -12.959   3.129  0.00  0.00    +0.051 C 
BRANCH  12  14
ATOM     13  C   LIG    1       28.637 -12.296   5.591  0.00  0.00    +0.004 C 
ATOM     14  C   LIG    1       29.325 -12.206   4.240  0.00  0.00    +0.002 C 
ENDBRANCH  12  14
ENDBRANCH  11  12
ENDBRANCH   1  11
BRANCH   7  15
ATOM     15  O   LIG    1       23.463 -16.192   3.974  0.00  0.00    -0.461 OA
BRANCH  15  16
ATOM     16  C   LIG    1       22.450 -16.876   4.601  0.00  0.00    +0.317 C 
ATOM     17  O   LIG    1       21.714 -16.374   5.428  0.00  0.00    -0.250 OA
BRANCH  16  18
ATOM     18  C   LIG    1       22.267 -18.286   4.025  0.00  0.00    +0.153 C 
BRANCH  18  19
ATOM     19  C   LIG    1       23.167 -19.357   4.629  0.00  0.00    -0.032 A 
ATOM     20  C   LIG    1       22.789 -20.048   5.792  0.00  0.00    +0.004 A 
ATOM     21  C   LIG    1       23.652 -20.958   6.396  0.00  0.00    +0.000 A 
ATOM     22  C   LIG    1       24.887 -21.232   5.817  0.00  0.00    +0.000 A 
ATOM     23  C   LIG    1       25.246 -20.616   4.619  0.00  0.00    +0.000 A 
ATOM     24  C   LIG    1       24.392 -19.683   4.025  0.00  0.00    +0.004 A 
ENDBRANCH  18  19
BRANCH  18  25
ATOM     25  C   LIG    1       20.785 -18.680   4.066  0.00  0.00    +0.175 C 
BRANCH  25  26
ATOM     26  O   LIG    1       20.090 -18.261   2.896  0.00  0.00    -0.394 OA
ATOM     27  H   LIG    1       20.728 -17.798   2.323  0.00  0.00    +0.209 HD
ENDBRANCH  25  26
ENDBRANCH  18  25
ENDBRANCH  16  18
ENDBRANCH  15  16
ENDBRANCH   7  15
TORSDOF 9
ENDMDL
MODEL 2
REMARK VINA RESULT:      -2.1      2.222      6.859
REMARK  Name = *****
REMARK                            x       y       z     vdW  Elec       q    Type
REMARK                         _______ _______ _______ _____ _____    ______ ____
ROOT
ATOM      1  N   LIG    1       25.031 -20.307   5.126  0.00  0.00    +0.249 N 
ATOM      2  C   LIG    1       24.257 -20.600   3.803  0.00  0.00    +0.102 C 
ATOM      3  C   LIG    1       23.021 -21.392   4.203  0.00  0.00    +0.201 C 
ATOM      4  C   LIG    1       22.713 -20.998   5.615  0.00  0.00    +0.201 C 
ATOM      5  O   LIG    1       21.828 -20.682   4.538  0.00  0.00    -0.357 OA
ATOM      6  C   LIG    1       23.877 -19.246   3.172  0.00  0.00    +0.102 C 
ATOM      7  C   LIG    1       23.128 -18.273   4.124  0.00  0.00    +0.187 C 
ATOM      8  C   LIG    1       23.262 -18.560   5.642  0.00  0.00    +0.102 C 
ATOM      9  C   LIG    1       23.762 -19.969   6.000  0.00  0.00    +0.102 C 
ATOM     10  C   LIG    1       26.076 -19.199   5.046  0.00  0.00    +0.193 C 
ENDROOT
BRANCH   1  11
ATOM     11  C   LIG    1       25.760 -21.572   5.703  0.00  0.00    +0.133 C 
BRANCH  11  12
ATOM     12  C   LIG    1       26.451 -21.328   7.060  0.00  0.00    +0.051 C 
BRANCH  12  14
ATOM     13  C   LIG    1       28.764 -20.250   7.062  0.00  0.00    +0.004 C 
ATOM     14  C   LIG    1       27.973 -21.546   7.025  0.00  0.00    +0.002 C 
ENDBRANCH  12  14
ENDBRANCH  11  12
ENDBRANCH   1  11
BRANCH   7  15
ATOM     15  O   LIG    1       23.658 -16.939   3.927  0.00  0.00    -0.461 OA
BRANCH  15  16
ATOM     16  C   LIG    1       22.968 -15.894   4.491  0.00  0.00    +0.317 C 
ATOM     17  O   LIG    1       22.058 -16.043   5.282  0.00  0.00    -0.250 OA
BRANCH  16  18
ATOM     18  C   LIG    1       23.580 -14.537   4.124  0.00  0.00    +0.153 C 
BRANCH  18  19
ATOM     19  C   LIG    1       25.098 -14.455   4.239  0.00  0.00    -0.032 A 
ATOM     20  C   LIG    1       25.707 -13.654   5.219  0.00  0.00    +0.004 A 
ATOM     21  C   LIG    1       27.090 -13.506   5.263  0.00  0.00    +0.000 A 
ATOM     22  C   LIG    1       27.892 -14.198   4.361  0.00  0.00    +0.000 A 
ATOM     23  C   LIG    1       27.309 -15.060   3.433  0.00  0.00    +0.000 A 
ATOM     24  C   LIG    1       25.919 -15.190   3.370  0.00  0.00    +0.004 A 
ENDBRANCH  18  19
BRANCH  18  25
ATOM     25  C   LIG    1       23.076 -14.089   2.747  0.00  0.00    +0.175 C 
BRANCH  25  26
ATOM     26  O   LIG    1       23.726 -12.903   2.301  0.00  0.00    -0.394 OA
ATOM     27  H   LIG    1       23.450 -12.176   2.888  0.00  0.00    +0.209 HD
ENDBRANCH  25  26
ENDBRANCH  18  25
ENDBRANCH  16  18
ENDBRANCH  15  16
ENDBRANCH   7  15
TORSDOF 9
ENDMDL
MODEL 3
REMARK VINA RESULT:      -1.3      2.797      4.727
REMARK  Name = *****
REMARK                            x       y       z     vdW  Elec       q    Type
REMARK                         _______ _______ _______ _____ _____    ______ ____
ROOT
ATOM      1  N   LIG    1       25.874 -13.515   4.594  0.00  0.00    +0.249 N 
ATOM      2  C   LIG    1       26.540 -13.524   3.183  0.00  0.00    +0.102 C 
ATOM      3  C   LIG    1       27.793 -12.668   3.302  0.00  0.00    +0.201 C 
ATOM      4  C   LIG    1       28.214 -12.744   4.737  0.00  0.00    +0.201 C 
ATOM      5  O   LIG    1       29.017 -13.292   3.690  0.00  0.00    -0.357 OA
ATOM      6  C   LIG    1       26.888 -14.984   2.836  0.00  0.00    +0.102 C 
ATOM      7  C   LIG    1       27.720 -15.728   3.918  0.00  0.00    +0.187 C 
ATOM      8  C   LIG    1       27.700 -15.114   5.341  0.00  0.00    +0.102 C 
ATOM      9  C   LIG    1       27.210 -13.658   5.419  0.00  0.00    +0.102 C 
ATOM     10  C   LIG    1       24.840 -14.609   4.841  0.00  0.00    +0.193 C 
ENDROOT
BRANCH   1  11
ATOM     11  C   LIG    1       25.175 -12.151   4.934  0.00  0.00    +0.133 C 
BRANCH  11  12
ATOM     12  C   LIG    1       23.794 -11.976   4.270  0.00  0.00    +0.051 C 
BRANCH  12  14
ATOM     13  C   LIG    1       23.863 -12.655   1.812  0.00  0.00    +0.004 C 
ATOM     14  C   LIG    1       23.868 -11.508   2.807  0.00  0.00    +0.002 C 
ENDBRANCH  12  14
ENDBRANCH  11  12
ENDBRANCH   1  11
BRANCH   7  15
ATOM     15  O   LIG    1       27.194 -17.070   4.060  0.00  0.00    -0.461 OA
BRANCH  15  16
ATOM     16  C   LIG    1       28.038 -18.031   4.558  0.00  0.00    +0.317 C 
ATOM     17  O   LIG    1       29.244 -18.011   4.400  0.00  0.00    -0.250 OA
BRANCH  16  18
ATOM     18  C   LIG    1       27.302 -19.034   5.455  0.00  0.00    +0.153 C 
BRANCH  18  19
ATOM     19  C   LIG    1       26.082 -19.695   4.826  0.00  0.00    -0.032 A 
ATOM     20  C   LIG    1       25.596 -20.923   5.307  0.00  0.00    +0.004 A 
ATOM     21  C   LIG    1       24.541 -21.572   4.674  0.00  0.00    +0.000 A 
ATOM     22  C   LIG    1       23.917 -20.980   3.580  0.00  0.00    +0.000 A 
ATOM     23  C   LIG    1       24.334 -19.725   3.138  0.00  0.00    +0.000 A 
ATOM     24  C   LIG    1       25.410 -19.083   3.757  0.00  0.00    +0.004 A 
ENDBRANCH  18  19
BRANCH  18  25
ATOM     25  C   LIG    1       28.294 -20.059   6.019  0.00  0.00    +0.175 C 
BRANCH  25  26
ATOM     26  O   LIG    1       29.417 -19.433   6.631  0.00  0.00    -0.394 OA
ATOM     27  H   LIG    1       29.086 -18.686   7.161  0.00  0.00    +0.209 HD
ENDBRANCH  25  26
ENDBRANCH  18  25
ENDBRANCH  16  18
ENDBRANCH  15  16
ENDBRANCH   7  15
TORSDOF 9
ENDMDL
MODEL 4
REMARK VINA RESULT:      -1.0      2.262      3.842
REMARK  Name = *****
REMARK                            x       y       z     vdW  Elec       q    Type
REMARK                         _______ _______ _______ _____ _____    ______ ____
ROOT
ATOM      1  N   LIG    1       25.516 -13.571   4.539  0.00  0.00    +0.249 N 
ATOM      2  C   LIG    1       26.033 -13.458   3.071  0.00  0.00    +0.102 C 
ATOM      3  C   LIG    1       27.424 -12.846   3.158  0.00  0.00    +0.201 C 
ATOM      4  C   LIG    1       27.958 -13.220   4.506  0.00  0.00    +0.201 C 
ATOM      5  O   LIG    1       28.548 -13.713   3.302  0.00  0.00    -0.357 OA
ATOM      6  C   LIG    1       26.081 -14.880   2.478  0.00  0.00    +0.102 C 
ATOM      7  C   LIG    1       26.867 -15.913   3.334  0.00  0.00    +0.187 C 
ATOM      8  C   LIG    1       27.091 -15.543   4.822  0.00  0.00    +0.102 C 
ATOM      9  C   LIG    1       26.878 -14.059   5.167  0.00  0.00    +0.102 C 
ATOM     10  C   LIG    1       24.332 -14.510   4.750  0.00  0.00    +0.193 C 
ENDROOT
BRANCH   1  11
ATOM     11  C   LIG    1       25.106 -12.186   5.153  0.00  0.00    +0.133 C 
BRANCH  11  12
ATOM     12  C   LIG    1       24.016 -11.447   4.350  0.00  0.00    +0.051 C 
BRANCH  12  14
ATOM     13  C   LIG    1       24.277 -11.447   1.813  0.00  0.00    +0.004 C 
ATOM     14  C   LIG    1       23.659 -12.130   3.020  0.00  0.00    +0.002 C 
ENDBRANCH  12  14
ENDBRANCH  11  12
ENDBRANCH   1  11
BRANCH   7  15
ATOM     15  O   LIG    1       26.126 -17.159   3.344  0.00  0.00    -0.461 OA
BRANCH  15  16
ATOM     16  C   LIG    1       26.759 -18.266   3.852  0.00  0.00    +0.317 C 
ATOM     17  O   LIG    1       27.802 -18.215   4.475  0.00  0.00    -0.250 OA
BRANCH  16  18
ATOM     18  C   LIG    1       25.922 -19.539   3.674  0.00  0.00    +0.153 C 
BRANCH  18  19
ATOM     19  C   LIG    1       25.098 -19.951   4.887  0.00  0.00    -0.032 A 
ATOM     20  C   LIG    1       25.692 -20.619   5.971  0.00  0.00    +0.004 A 
ATOM     21  C   LIG    1       24.923 -21.079   7.036  0.00  0.00    +0.000 A 
ATOM     22  C   LIG    1       23.554 -20.832   7.062  0.00  0.00    +0.000 A 
ATOM     23  C   LIG    1       22.960 -20.101   6.034  0.00  0.00    +0.000 A 
ATOM     24  C   LIG    1       23.726 -19.661   4.951  0.00  0.00    +0.004 A 
ENDBRANCH  18  19
BRANCH  18  25
ATOM     25  C   LIG    1       25.071 -19.432   2.402  0.00  0.00    +0.175 C 
BRANCH  25  26
ATOM     26  O   LIG    1       24.109 -20.479   2.315  0.00  0.00    -0.394 OA
ATOM     27  H   LIG    1       23.361 -20.241   2.891  0.00  0.00    +0.209 HD
ENDBRANCH  25  26
ENDBRANCH  18  25
ENDBRANCH  16  18
ENDBRANCH  15  16
ENDBRANCH   7  15
TORSDOF 9
ENDMDL
MODEL 5
REMARK VINA RESULT:      -1.0      2.117      3.490
REMARK  Name = *****
REMARK                            x       y       z     vdW  Elec       q    Type
REMARK                         _______ _______ _______ _____ _____    ______ ____
ROOT
ATOM      1  N   LIG    1       25.821 -13.495   2.851  0.00  0.00    +0.249 N 
ATOM      2  C   LIG    1       27.318 -13.929   2.779  0.00  0.00    +0.102 C 
ATOM      3  C   LIG    1       27.944 -13.510   4.102  0.00  0.00    +0.201 C 
ATOM      4  C   LIG    1       26.831 -13.498   5.103  0.00  0.00    +0.201 C 
ATOM      5  O   LIG    1       27.914 -14.425   5.197  0.00  0.00    -0.357 OA
ATOM      6  C   LIG    1       27.356 -15.459   2.599  0.00  0.00    +0.102 C 
ATOM      7  C   LIG    1       26.530 -16.257   3.647  0.00  0.00    +0.187 C 
ATOM      8  C   LIG    1       25.444 -15.460   4.415  0.00  0.00    +0.102 C 
ATOM      9  C   LIG    1       25.585 -13.930   4.349  0.00  0.00    +0.102 C 
ATOM     10  C   LIG    1       24.895 -14.152   1.832  0.00  0.00    +0.193 C 
ENDROOT
BRANCH   1  11
ATOM     11  C   LIG    1       25.624 -11.945   2.704  0.00  0.00    +0.133 C 
BRANCH  11  12
ATOM     12  C   LIG    1       24.220 -11.539   2.211  0.00  0.00    +0.051 C 
BRANCH  12  14
ATOM     13  C   LIG    1       23.763 -11.660   4.718  0.00  0.00    +0.004 C 
ATOM     14  C   LIG    1       23.173 -11.454   3.333  0.00  0.00    +0.002 C 
ENDBRANCH  12  14
ENDBRANCH  11  12
ENDBRANCH   1  11
BRANCH   7  15
ATOM     15  O   LIG    1       25.828 -17.323   2.963  0.00  0.00    -0.461 OA
BRANCH  15  16
ATOM     16  C   LIG    1       24.827 -17.964   3.651  0.00  0.00    +0.317 C 
ATOM     17  O   LIG    1       23.809 -17.413   4.021  0.00  0.00    -0.250 OA
BRANCH  16  18
ATOM     18  C   LIG    1       25.080 -19.473   3.758  0.00  0.00    +0.153 C 
BRANCH  18  19
ATOM     19  C   LIG    1       26.026 -19.897   4.875  0.00  0.00    -0.032 A 
ATOM     20  C   LIG    1       25.602 -20.770   5.890  0.00  0.00    +0.004 A 
ATOM     21  C   LIG    1       26.435 -21.082   6.960  0.00  0.00    +0.000 A 
ATOM     22  C   LIG    1       27.727 -20.569   7.006  0.00  0.00    +0.000 A 
ATOM     23  C   LIG    1       28.193 -19.765   5.967  0.00  0.00    +0.000 A 
ATOM     24  C   LIG    1       27.349 -19.430   4.904  0.00  0.00    +0.004 A 
ENDBRANCH  18  19
BRANCH  18  25
ATOM     25  C   LIG    1       23.744 -20.226   3.810  0.00  0.00    +0.175 C 
BRANCH  25  26
ATOM     26  O   LIG    1       23.873 -21.572   3.362  0.00  0.00    -0.394 OA
ATOM     27  H   LIG    1       23.348 -22.134   3.959  0.00  0.00    +0.209 HD
ENDBRANCH  25  26
ENDBRANCH  18  25
ENDBRANCH  16  18
ENDBRANCH  15  16
ENDBRANCH   7  15
TORSDOF 9
ENDMDL
MODEL 6
REMARK VINA RESULT:      -0.2      2.790      7.834
REMARK  Name = *****
REMARK                            x       y       z     vdW  Elec       q    Type
REMARK                         _______ _______ _______ _____ _____    ______ ____
ROOT
ATOM      1  N   LIG    1       22.936 -19.424   4.384  0.00  0.00    +0.249 N 
ATOM      2  C   LIG    1       24.083 -19.764   5.386  0.00  0.00    +0.102 C 
ATOM      3  C   LIG    1       24.432 -21.226   5.150  0.00  0.00    +0.201 C 
ATOM      4  C   LIG    1       24.070 -21.515   3.725  0.00  0.00    +0.201 C 
ATOM      5  O   LIG    1       25.426 -21.547   4.176  0.00  0.00    -0.357 OA
ATOM      6  C   LIG    1       25.277 -18.843   5.065  0.00  0.00    +0.102 C 
ATOM      7  C   LIG    1       25.729 -18.860   3.579  0.00  0.00    +0.187 C 
ATOM      8  C   LIG    1       24.697 -19.398   2.554  0.00  0.00    +0.102 C 
ATOM      9  C   LIG    1       23.539 -20.211   3.156  0.00  0.00    +0.102 C 
ATOM     10  C   LIG    1       22.690 -17.938   4.143  0.00  0.00    +0.193 C 
ENDROOT
BRANCH   1  11
ATOM     11  C   LIG    1       21.557 -20.048   4.797  0.00  0.00    +0.133 C 
BRANCH  11  12
ATOM     12  C   LIG    1       20.544 -20.143   3.637  0.00  0.00    +0.051 C 
BRANCH  12  14
ATOM     13  C   LIG    1       19.350 -18.161   2.562  0.00  0.00    +0.004 C 
ATOM     14  C   LIG    1       19.396 -19.124   3.735  0.00  0.00    +0.002 C 
ENDBRANCH  12  14
ENDBRANCH  11  12
ENDBRANCH   1  11
BRANCH   7  15
ATOM     15  O   LIG    1       26.018 -17.500   3.171  0.00  0.00    -0.461 OA
BRANCH  15  16
ATOM     16  C   LIG    1       27.100 -16.884   3.748  0.00  0.00    +0.317 C 
ATOM     17  O   LIG    1       27.931 -17.473   4.411  0.00  0.00    -0.250 OA
BRANCH  16  18
ATOM     18  C   LIG    1       27.214 -15.412   3.329  0.00  0.00    +0.153 C 
BRANCH  18  19
ATOM     19  C   LIG    1       25.893 -14.660   3.230  0.00  0.00    -0.032 A 
ATOM     20  C   LIG    1       25.684 -13.692   2.234  0.00  0.00    +0.004 A 
ATOM     21  C   LIG    1       24.514 -12.940   2.201  0.00  0.00    +0.000 A 
ATOM     22  C   LIG    1       23.509 -13.178   3.133  0.00  0.00    +0.000 A 
ATOM     23  C   LIG    1       23.665 -14.189   4.080  0.00  0.00    +0.000 A 
ATOM     24  C   LIG    1       24.850 -14.929   4.130  0.00  0.00    +0.004 A 
ENDBRANCH  18  19
BRANCH  18  25
ATOM     25  C   LIG    1       28.229 -14.690   4.224  0.00  0.00    +0.175 C 
BRANCH  25  26
ATOM     26  O   LIG    1       28.832 -13.583   3.560  0.00  0.00    -0.394 OA
ATOM     27  H   LIG    1       28.737 -12.805   4.138  0.00  0.00    +0.209 HD
ENDBRANCH  25  26
ENDBRANCH  18  25
ENDBRANCH  16  18
ENDBRANCH  15  16
ENDBRANCH   7  15
TORSDOF 9
ENDMDL
MODEL 7
REMARK VINA RESULT:       0.1      2.611      7.429
REMARK  Name = *****
REMARK                            x       y       z     vdW  Elec       q    Type
REMARK                         _______ _______ _______ _____ _____    ______ ____
ROOT
ATOM      1  N   LIG    1       25.323 -20.300   4.968  0.00  0.00    +0.249 N 
ATOM      2  C   LIG    1       24.980 -20.629   3.482  0.00  0.00    +0.102 C 
ATOM      3  C   LIG    1       23.625 -21.323   3.505  0.00  0.00    +0.201 C 
ATOM      4  C   LIG    1       22.924 -20.824   4.730  0.00  0.00    +0.201 C 
ATOM      5  O   LIG    1       22.444 -20.526   3.418  0.00  0.00    -0.357 OA
ATOM      6  C   LIG    1       24.917 -19.298   2.708  0.00  0.00    +0.102 C 
ATOM      7  C   LIG    1       23.983 -18.226   3.336  0.00  0.00    +0.187 C 
ATOM      8  C   LIG    1       23.616 -18.425   4.829  0.00  0.00    +0.102 C 
ATOM      9  C   LIG    1       23.874 -19.836   5.384  0.00  0.00    +0.102 C 
ATOM     10  C   LIG    1       26.421 -19.261   5.176  0.00  0.00    +0.193 C 
ENDROOT
BRANCH   1  11
ATOM     11  C   LIG    1       25.740 -21.566   5.796  0.00  0.00    +0.133 C 
BRANCH  11  12
ATOM     12  C   LIG    1       26.577 -21.242   7.051  0.00  0.00    +0.051 C 
BRANCH  12  14
ATOM     13  C   LIG    1       28.936 -20.273   6.999  0.00  0.00    +0.004 C 
ATOM     14  C   LIG    1       28.079 -21.522   6.880  0.00  0.00    +0.002 C 
ENDBRANCH  12  14
ENDBRANCH  11  12
ENDBRANCH   1  11
BRANCH   7  15
ATOM     15  O   LIG    1       24.646 -16.939   3.260  0.00  0.00    -0.461 OA
BRANCH  15  16
ATOM     16  C   LIG    1       26.018 -16.931   3.324  0.00  0.00    +0.317 C 
ATOM     17  O   LIG    1       26.692 -17.940   3.394  0.00  0.00    -0.250 OA
BRANCH  16  18
ATOM     18  C   LIG    1       26.592 -15.520   3.143  0.00  0.00    +0.153 C 
BRANCH  18  19
ATOM     19  C   LIG    1       25.564 -14.396   3.130  0.00  0.00    -0.032 A 
ATOM     20  C   LIG    1       25.332 -13.640   1.969  0.00  0.00    +0.004 A 
ATOM     21  C   LIG    1       24.463 -12.554   1.983  0.00  0.00    +0.000 A 
ATOM     22  C   LIG    1       23.768 -12.236   3.146  0.00  0.00    +0.000 A 
ATOM     23  C   LIG    1       23.924 -13.024   4.286  0.00  0.00    +0.000 A 
ATOM     24  C   LIG    1       24.816 -14.099   4.281  0.00  0.00    +0.004 A 
ENDBRANCH  18  19
BRANCH  18  25
ATOM     25  C   LIG    1       27.710 -15.274   4.164  0.00  0.00    +0.175 C 
BRANCH  25  26
ATOM     26  O   LIG    1       28.536 -14.174   3.795  0.00  0.00    -0.394 OA
ATOM     27  H   LIG    1       29.354 -14.535   3.408  0.00  0.00    +0.209 HD
ENDBRANCH  25  26
ENDBRANCH  18  25
ENDBRANCH  16  18
ENDBRANCH  15  16
ENDBRANCH   7  15
TORSDOF 9
ENDMDL
MODEL 8
REMARK VINA RESULT:       0.3      2.225      3.799
REMARK  Name = *****
REMARK                            x       y       z     vdW  Elec       q    Type
REMARK                         _______ _______ _______ _____ _____    ______ ____
ROOT
ATOM      1  N   LIG    1       26.056 -13.241   4.686  0.00  0.00    +0.249 N 
ATOM      2  C   LIG    1       24.624 -13.761   4.347  0.00  0.00    +0.102 C 
ATOM      3  C   LIG    1       24.212 -13.057   3.062  0.00  0.00    +0.201 C 
ATOM      4  C   LIG    1       25.483 -12.732   2.340  0.00  0.00    +0.201 C 
ATOM      5  O   LIG    1       24.537 -13.664   1.812  0.00  0.00    -0.357 OA
ATOM      6  C   LIG    1       24.712 -15.287   4.149  0.00  0.00    +0.102 C 
ATOM      7  C   LIG    1       25.794 -15.748   3.133  0.00  0.00    +0.187 C 
ATOM      8  C   LIG    1       26.915 -14.725   2.813  0.00  0.00    +0.102 C 
ATOM      9  C   LIG    1       26.607 -13.272   3.209  0.00  0.00    +0.102 C 
ATOM     10  C   LIG    1       26.842 -14.082   5.688  0.00  0.00    +0.193 C 
ENDROOT
BRANCH   1  11
ATOM     11  C   LIG    1       26.061 -11.770   5.232  0.00  0.00    +0.133 C 
BRANCH  11  12
ATOM     12  C   LIG    1       24.875 -11.447   6.163  0.00  0.00    +0.051 C 
BRANCH  12  14
ATOM     13  C   LIG    1       22.342 -11.478   6.464  0.00  0.00    +0.004 C 
ATOM     14  C   LIG    1       23.502 -11.602   5.490  0.00  0.00    +0.002 C 
ENDBRANCH  12  14
ENDBRANCH  11  12
ENDBRANCH   1  11
BRANCH   7  15
ATOM     15  O   LIG    1       26.466 -16.913   3.674  0.00  0.00    -0.461 OA
BRANCH  15  16
ATOM     16  C   LIG    1       25.930 -18.143   3.383  0.00  0.00    +0.317 C 
ATOM     17  O   LIG    1       25.820 -18.575   2.252  0.00  0.00    -0.250 OA
BRANCH  16  18
ATOM     18  C   LIG    1       25.635 -18.955   4.650  0.00  0.00    +0.153 C 
BRANCH  18  19
ATOM     19  C   LIG    1       24.230 -19.540   4.735  0.00  0.00    -0.032 A 
ATOM     20  C   LIG    1       24.022 -20.865   5.152  0.00  0.00    +0.004 A 
ATOM     21  C   LIG    1       22.750 -21.427   5.139  0.00  0.00    +0.000 A 
ATOM     22  C   LIG    1       21.654 -20.658   4.761  0.00  0.00    +0.000 A 
ATOM     23  C   LIG    1       21.831 -19.318   4.421  0.00  0.00    +0.000 A 
ATOM     24  C   LIG    1       23.111 -18.758   4.407  0.00  0.00    +0.004 A 
ENDBRANCH  18  19
BRANCH  18  25
ATOM     25  C   LIG    1       26.721 -20.019   4.856  0.00  0.00    +0.175 C 
BRANCH  25  26
ATOM     26  O   LIG    1       27.968 -19.441   5.230  0.00  0.00    -0.394 OA
ATOM     27  H   LIG    1       28.446 -20.095   5.771  0.00  0.00    +0.209 HD
ENDBRANCH  25  26
ENDBRANCH  18  25
ENDBRANCH  16  18
ENDBRANCH  15  16
ENDBRANCH   7  15
TORSDOF 9
ENDMDL
MODEL 9
REMARK VINA RESULT:       0.7      2.241      4.182
REMARK  Name = *****
REMARK                            x       y       z     vdW  Elec       q    Type
REMARK                         _______ _______ _______ _____ _____    ______ ____
ROOT
ATOM      1  N   LIG    1       25.806 -13.669   4.654  0.00  0.00    +0.249 N 
ATOM      2  C   LIG    1       26.091 -13.834   3.128  0.00  0.00    +0.102 C 
ATOM      3  C   LIG    1       27.260 -12.912   2.814  0.00  0.00    +0.201 C 
ATOM      4  C   LIG    1       28.036 -12.776   4.087  0.00  0.00    +0.201 C 
ATOM      5  O   LIG    1       28.588 -13.420   2.938  0.00  0.00    -0.357 OA
ATOM      6  C   LIG    1       26.455 -15.310   2.874  0.00  0.00    +0.102 C 
ATOM      7  C   LIG    1       27.591 -15.863   3.779  0.00  0.00    +0.187 C 
ATOM      8  C   LIG    1       27.884 -15.066   5.077  0.00  0.00    +0.102 C 
ATOM      9  C   LIG    1       27.315 -13.638   5.110  0.00  0.00    +0.102 C 
ATOM     10  C   LIG    1       24.960 -14.768   5.288  0.00  0.00    +0.193 C 
ENDROOT
BRANCH   1  11
ATOM     11  C   LIG    1       25.110 -12.307   5.003  0.00  0.00    +0.133 C 
BRANCH  11  12
ATOM     12  C   LIG    1       23.723 -12.130   4.352  0.00  0.00    +0.051 C 
BRANCH  12  14
ATOM     13  C   LIG    1       23.807 -12.433   1.821  0.00  0.00    +0.004 C 
ATOM     14  C   LIG    1       23.770 -11.448   2.975  0.00  0.00    +0.002 C 
ENDBRANCH  12  14
ENDBRANCH  11  12
ENDBRANCH   1  11
BRANCH   7  15
ATOM     15  O   LIG    1       27.227 -17.198   4.209  0.00  0.00    -0.461 OA
BRANCH  15  16
ATOM     16  C   LIG    1       26.081 -17.740   3.684  0.00  0.00    +0.317 C 
ATOM     17  O   LIG    1       25.639 -17.444   2.591  0.00  0.00    -0.250 OA
BRANCH  16  18
ATOM     18  C   LIG    1       25.519 -18.861   4.567  0.00  0.00    +0.153 C 
BRANCH  18  19
ATOM     19  C   LIG    1       24.009 -19.052   4.494  0.00  0.00    -0.032 A 
ATOM     20  C   LIG    1       23.422 -20.295   4.785  0.00  0.00    +0.004 A 
ATOM     21  C   LIG    1       22.054 -20.494   4.627  0.00  0.00    +0.000 A 
ATOM     22  C   LIG    1       21.240 -19.440   4.226  0.00  0.00    +0.000 A 
ATOM     23  C   LIG    1       21.793 -18.179   4.010  0.00  0.00    +0.000 A 
ATOM     24  C   LIG    1       23.171 -17.983   4.143  0.00  0.00    +0.004 A 
ENDBRANCH  18  19
BRANCH  18  25
ATOM     25  C   LIG    1       26.284 -20.166   4.308  0.00  0.00    +0.175 C 
BRANCH  25  26
ATOM     26  O   LIG    1       27.581 -20.148   4.895  0.00  0.00    -0.394 OA
ATOM     27  H   LIG    1       27.483 -19.857   5.820  0.00  0.00    +0.209 HD
ENDBRANCH  25  26
ENDBRANCH  18  25
ENDBRANCH  16  18
ENDBRANCH  15  16
ENDBRANCH   7  15
TORSDOF 9
ENDMDL
