MODEL 1
REMARK VINA RESULT:      -6.8      0.000      0.000
REMARK  Name = *****
REMARK                            x       y       z     vdW  Elec       q    Type
REMARK                         _______ _______ _______ _____ _____    ______ ____
ROOT
ATOM      1  C   LIG    1       24.418 -25.252   4.966  0.00  0.00    -0.027 C 
ATOM      2  C   LIG    1       24.918 -26.251   5.888  0.00  0.00    -0.076 C 
ATOM      3  C   LIG    1       24.382 -27.513   5.676  0.00  0.00    +0.038 C 
ENDROOT
BRANCH   2   4
ATOM      4  C   LIG    1       25.841 -26.230   7.016  0.00  0.00    +0.034 C 
BRANCH   4   5
ATOM      5  C   LIG    1       26.336 -27.629   7.256  0.00  0.00    +0.031 C 
BRANCH   5   6
ATOM      6  C   LIG    1       25.890 -28.196   8.563  0.00  0.00    -0.027 C 
ATOM      7  C   LIG    1       25.514 -29.480   8.684  0.00  0.00    -0.076 C 
ATOM      8  C   LIG    1       25.508 -30.370   7.463  0.00  0.00    +0.038 C 
BRANCH   7   9
ATOM      9  C   LIG    1       25.036 -30.107   9.975  0.00  0.00    +0.034 C 
BRANCH   9  10
ATOM     10  C   LIG    1       24.670 -31.610   9.931  0.00  0.00    +0.031 C 
BRANCH  10  11
ATOM     11  C   LIG    1       23.197 -31.773   9.703  0.00  0.00    -0.027 C 
ATOM     12  C   LIG    1       22.242 -32.299  10.497  0.00  0.00    -0.076 C 
ATOM     13  C   LIG    1       22.539 -32.965  11.813  0.00  0.00    +0.038 C 
BRANCH  12  14
ATOM     14  C   LIG    1       20.757 -32.222  10.162  0.00  0.00    +0.034 C 
BRANCH  14  15
ATOM     15  C   LIG    1       19.968 -30.938  10.520  0.00  0.00    +0.031 C 
BRANCH  15  16
ATOM     16  C   LIG    1       19.669 -30.686  11.983  0.00  0.00    -0.027 C 
ATOM     17  C   LIG    1       18.561 -31.022  12.676  0.00  0.00    -0.076 C 
ATOM     18  C   LIG    1       17.333 -31.627  12.055  0.00  0.00    +0.038 C 
BRANCH  17  19
ATOM     19  C   LIG    1       18.540 -30.949  14.198  0.00  0.00    +0.034 C 
BRANCH  19  20
ATOM     20  C   LIG    1       19.010 -29.615  14.824  0.00  0.00    +0.031 C 
BRANCH  20  21
ATOM     21  C   LIG    1       18.028 -28.500  14.545  0.00  0.00    -0.027 C 
ATOM     22  C   LIG    1       18.238 -27.179  14.355  0.00  0.00    -0.076 C 
ATOM     23  C   LIG    1       17.025 -26.309  14.204  0.00  0.00    +0.038 C 
BRANCH  22  24
ATOM     24  C   LIG    1       19.589 -26.466  14.319  0.00  0.00    +0.034 C 
BRANCH  24  25
ATOM     25  C   LIG    1       20.547 -26.745  13.109  0.00  0.00    +0.031 C 
BRANCH  25  26
ATOM     26  C   LIG    1       22.047 -26.591  13.317  0.00  0.00    -0.027 C 
ATOM     27  C   LIG    1       23.037 -27.494  13.218  0.00  0.00    -0.076 C 
ATOM     28  C   LIG    1       22.716 -28.901  12.835  0.00  0.00    +0.038 C 
BRANCH  27  29
ATOM     29  C   LIG    1       24.498 -27.055  13.410  0.00  0.00    +0.034 C 
BRANCH  29  30
ATOM     30  C   LIG    1       25.501 -27.900  12.596  0.00  0.00    +0.031 C 
BRANCH  30  31
ATOM     31  C   LIG    1       26.608 -28.559  13.399  0.00  0.00    -0.028 C 
ATOM     32  C   LIG    1       27.752 -29.097  12.915  0.00  0.00    -0.080 C 
ATOM     33  C   LIG    1       28.796 -29.693  13.830  0.00  0.00    +0.038 C 
ATOM     34  C   LIG    1       28.137 -29.178  11.462  0.00  0.00    +0.038 C 
ENDBRANCH  30  31
ENDBRANCH  29  30
ENDBRANCH  27  29
ENDBRANCH  25  26
ENDBRANCH  24  25
ENDBRANCH  22  24
ENDBRANCH  20  21
ENDBRANCH  19  20
ENDBRANCH  17  19
ENDBRANCH  15  16
ENDBRANCH  14  15
ENDBRANCH  12  14
ENDBRANCH  10  11
ENDBRANCH   9  10
ENDBRANCH   7   9
ENDBRANCH   5   6
ENDBRANCH   4   5
ENDBRANCH   2   4
BRANCH   1  35
ATOM     35  C   LIG    1       24.793 -23.890   4.984  0.00  0.00    +0.031 C 
BRANCH  35  36
ATOM     36  C   LIG    1       24.664 -23.112   3.645  0.00  0.00    +0.034 C 
BRANCH  36  38
ATOM     37  C   LIG    1       23.873 -20.823   2.971  0.00  0.00    -0.027 C 
ATOM     38  C   LIG    1       24.685 -21.592   3.737  0.00  0.00    -0.076 C 
ATOM     39  C   LIG    1       25.571 -21.016   4.764  0.00  0.00    +0.038 C 
BRANCH  37  40
ATOM     40  C   LIG    1       23.793 -19.315   3.061  0.00  0.00    +0.031 C 
BRANCH  40  41
ATOM     41  C   LIG    1       22.932 -18.807   4.229  0.00  0.00    +0.034 C 
BRANCH  41  43
ATOM     42  C   LIG    1       23.203 -19.813   6.529  0.00  0.00    -0.027 C 
ATOM     43  C   LIG    1       22.492 -19.725   5.378  0.00  0.00    -0.076 C 
ATOM     44  C   LIG    1       21.352 -20.633   5.009  0.00  0.00    +0.038 C 
BRANCH  42  45
ATOM     45  C   LIG    1       23.167 -20.806   7.719  0.00  0.00    +0.031 C 
BRANCH  45  46
ATOM     46  C   LIG    1       24.142 -22.029   7.966  0.00  0.00    +0.034 C 
BRANCH  46  48
ATOM     47  C   LIG    1       26.647 -22.394   7.357  0.00  0.00    -0.023 C 
ATOM     48  C   LIG    1       25.636 -21.675   7.929  0.00  0.00    -0.076 C 
ATOM     49  C   LIG    1       25.909 -20.573   8.873  0.00  0.00    +0.038 C 
BRANCH  47  50
ATOM     50  C   LIG    1       28.224 -22.442   7.539  0.00  0.00    +0.066 C 
BRANCH  50  54
ATOM     51  C   LIG    1       30.916 -18.870   7.695  0.00  0.00    +0.207 A 
ATOM     52  C   LIG    1       29.972 -19.010   6.697  0.00  0.00    +0.207 A 
ATOM     53  C   LIG    1       29.203 -20.212   6.615  0.00  0.00    +0.166 A 
ATOM     54  C   LIG    1       29.242 -21.249   7.596  0.00  0.00    +0.008 A 
ATOM     55  C   LIG    1       30.336 -21.125   8.466  0.00  0.00    +0.002 A 
ATOM     56  C   LIG    1       30.828 -22.203   9.363  0.00  0.00    +0.048 C 
ATOM     57  C   LIG    1       31.071 -19.934   8.565  0.00  0.00    +0.166 A 
BRANCH  57  58
ATOM     58  O   LIG    1       32.018 -19.895   9.547  0.00  0.00    -0.503 OA
ATOM     59  H   LIG    1       31.768 -19.186  10.166  0.00  0.00    +0.292 HD
ENDBRANCH  57  58
BRANCH  52  60
ATOM     60  O   LIG    1       30.052 -17.986   5.808  0.00  0.00    -0.488 OA
ATOM     61  C   LIG    1       28.928 -17.618   5.060  0.00  0.00    +0.277 C 
ENDBRANCH  52  60
BRANCH  53  62
ATOM     62  O   LIG    1       28.594 -20.507   5.412  0.00  0.00    -0.503 OA
ATOM     63  H   LIG    1       28.276 -19.651   5.069  0.00  0.00    +0.292 HD
ENDBRANCH  53  62
BRANCH  51  65
ATOM     64  C   LIG    1       31.874 -16.964   8.907  0.00  0.00    +0.277 C 
ATOM     65  O   LIG    1       31.848 -17.852   7.771  0.00  0.00    -0.488 OA
ENDBRANCH  51  65
ENDBRANCH  50  54
ENDBRANCH  47  50
ENDBRANCH  46  48
ENDBRANCH  45  46
ENDBRANCH  42  45
ENDBRANCH  41  43
ENDBRANCH  40  41
ENDBRANCH  37  40
ENDBRANCH  36  38
ENDBRANCH  35  36
ENDBRANCH   1  35
TORSDOF 33
ENDMDL
MODEL 2
REMARK VINA RESULT:      -6.5      1.281      3.032
REMARK  Name = *****
REMARK                            x       y       z     vdW  Elec       q    Type
REMARK                         _______ _______ _______ _____ _____    ______ ____
ROOT
ATOM      1  C   LIG    1       24.926 -24.638   4.287  0.00  0.00    -0.027 C 
ATOM      2  C   LIG    1       25.216 -25.756   5.163  0.00  0.00    -0.076 C 
ATOM      3  C   LIG    1       25.348 -26.961   4.490  0.00  0.00    +0.038 C 
ENDROOT
BRANCH   2   4
ATOM      4  C   LIG    1       25.374 -25.911   6.604  0.00  0.00    +0.034 C 
BRANCH   4   5
ATOM      5  C   LIG    1       25.943 -27.273   6.879  0.00  0.00    +0.031 C 
BRANCH   5   6
ATOM      6  C   LIG    1       25.028 -28.144   7.677  0.00  0.00    -0.027 C 
ATOM      7  C   LIG    1       24.654 -29.359   7.244  0.00  0.00    -0.076 C 
ATOM      8  C   LIG    1       25.139 -29.850   5.899  0.00  0.00    +0.038 C 
BRANCH   7   9
ATOM      9  C   LIG    1       23.718 -30.277   7.997  0.00  0.00    +0.034 C 
BRANCH   9  10
ATOM     10  C   LIG    1       23.561 -30.027   9.516  0.00  0.00    +0.031 C 
BRANCH  10  11
ATOM     11  C   LIG    1       22.346 -30.738  10.032  0.00  0.00    -0.027 C 
ATOM     12  C   LIG    1       22.222 -31.671  10.998  0.00  0.00    -0.076 C 
ATOM     13  C   LIG    1       23.399 -32.285  11.705  0.00  0.00    +0.038 C 
BRANCH  12  14
ATOM     14  C   LIG    1       20.870 -32.156  11.507  0.00  0.00    +0.034 C 
BRANCH  14  15
ATOM     15  C   LIG    1       19.731 -31.129  11.721  0.00  0.00    +0.031 C 
BRANCH  15  16
ATOM     16  C   LIG    1       20.091 -29.811  12.373  0.00  0.00    -0.027 C 
ATOM     17  C   LIG    1       20.088 -29.504  13.687  0.00  0.00    -0.076 C 
ATOM     18  C   LIG    1       19.591 -30.428  14.764  0.00  0.00    +0.038 C 
BRANCH  17  19
ATOM     19  C   LIG    1       20.747 -28.226  14.192  0.00  0.00    +0.034 C 
BRANCH  19  20
ATOM     20  C   LIG    1       21.122 -27.181  13.116  0.00  0.00    +0.031 C 
BRANCH  20  21
ATOM     21  C   LIG    1       22.526 -26.660  13.321  0.00  0.00    -0.027 C 
ATOM     22  C   LIG    1       23.712 -27.306  13.274  0.00  0.00    -0.076 C 
ATOM     23  C   LIG    1       24.935 -26.514  13.634  0.00  0.00    +0.038 C 
BRANCH  22  24
ATOM     24  C   LIG    1       23.937 -28.778  12.931  0.00  0.00    +0.034 C 
BRANCH  24  25
ATOM     25  C   LIG    1       25.388 -29.358  13.051  0.00  0.00    +0.031 C 
BRANCH  25  26
ATOM     26  C   LIG    1       26.005 -30.033  11.834  0.00  0.00    -0.027 C 
ATOM     27  C   LIG    1       26.629 -29.506  10.768  0.00  0.00    -0.076 C 
ATOM     28  C   LIG    1       26.806 -28.026  10.675  0.00  0.00    +0.038 C 
BRANCH  27  29
ATOM     29  C   LIG    1       27.234 -30.429   9.698  0.00  0.00    +0.034 C 
BRANCH  29  30
ATOM     30  C   LIG    1       26.987 -31.927   9.975  0.00  0.00    +0.031 C 
BRANCH  30  31
ATOM     31  C   LIG    1       25.993 -32.610   9.050  0.00  0.00    -0.028 C 
ATOM     32  C   LIG    1       26.191 -32.949   7.755  0.00  0.00    -0.080 C 
ATOM     33  C   LIG    1       25.128 -33.661   6.952  0.00  0.00    +0.038 C 
ATOM     34  C   LIG    1       27.439 -32.678   6.958  0.00  0.00    +0.038 C 
ENDBRANCH  30  31
ENDBRANCH  29  30
ENDBRANCH  27  29
ENDBRANCH  25  26
ENDBRANCH  24  25
ENDBRANCH  22  24
ENDBRANCH  20  21
ENDBRANCH  19  20
ENDBRANCH  17  19
ENDBRANCH  15  16
ENDBRANCH  14  15
ENDBRANCH  12  14
ENDBRANCH  10  11
ENDBRANCH   9  10
ENDBRANCH   7   9
ENDBRANCH   5   6
ENDBRANCH   4   5
ENDBRANCH   2   4
BRANCH   1  35
ATOM     35  C   LIG    1       24.728 -23.310   4.726  0.00  0.00    +0.031 C 
BRANCH  35  36
ATOM     36  C   LIG    1       25.666 -22.228   4.122  0.00  0.00    +0.034 C 
BRANCH  36  38
ATOM     37  C   LIG    1       24.161 -20.409   3.258  0.00  0.00    -0.027 C 
ATOM     38  C   LIG    1       25.139 -20.799   4.112  0.00  0.00    -0.076 C 
ATOM     39  C   LIG    1       25.688 -19.898   5.140  0.00  0.00    +0.038 C 
BRANCH  37  40
ATOM     40  C   LIG    1       23.543 -19.029   3.243  0.00  0.00    +0.031 C 
BRANCH  40  41
ATOM     41  C   LIG    1       22.489 -18.807   4.338  0.00  0.00    +0.034 C 
BRANCH  41  43
ATOM     42  C   LIG    1       22.969 -19.830   6.597  0.00  0.00    -0.027 C 
ATOM     43  C   LIG    1       22.242 -19.834   5.452  0.00  0.00    -0.076 C 
ATOM     44  C   LIG    1       21.288 -20.926   5.052  0.00  0.00    +0.038 C 
BRANCH  42  45
ATOM     45  C   LIG    1       23.133 -20.857   7.747  0.00  0.00    +0.031 C 
BRANCH  45  46
ATOM     46  C   LIG    1       24.121 -22.093   7.783  0.00  0.00    +0.034 C 
BRANCH  46  48
ATOM     47  C   LIG    1       26.682 -22.404   7.421  0.00  0.00    -0.023 C 
ATOM     48  C   LIG    1       25.606 -21.723   7.918  0.00  0.00    -0.076 C 
ATOM     49  C   LIG    1       25.764 -20.664   8.934  0.00  0.00    +0.038 C 
BRANCH  47  50
ATOM     50  C   LIG    1       28.232 -22.446   7.763  0.00  0.00    +0.066 C 
BRANCH  50  54
ATOM     51  C   LIG    1       30.985 -18.917   7.730  0.00  0.00    +0.207 A 
ATOM     52  C   LIG    1       30.011 -19.073   6.763  0.00  0.00    +0.207 A 
ATOM     53  C   LIG    1       29.220 -20.263   6.741  0.00  0.00    +0.166 A 
ATOM     54  C   LIG    1       29.270 -21.269   7.754  0.00  0.00    +0.008 A 
ATOM     55  C   LIG    1       30.390 -21.136   8.590  0.00  0.00    +0.002 A 
ATOM     56  C   LIG    1       30.890 -22.194   9.506  0.00  0.00    +0.048 C 
ATOM     57  C   LIG    1       31.147 -19.956   8.630  0.00  0.00    +0.166 A 
BRANCH  57  58
ATOM     58  O   LIG    1       32.121 -19.901   9.583  0.00  0.00    -0.503 OA
ATOM     59  H   LIG    1       32.912 -19.510   9.171  0.00  0.00    +0.292 HD
ENDBRANCH  57  58
BRANCH  52  60
ATOM     60  O   LIG    1       30.082 -18.078   5.841  0.00  0.00    -0.488 OA
ATOM     61  C   LIG    1       28.957 -17.748   5.077  0.00  0.00    +0.277 C 
ENDBRANCH  52  60
BRANCH  53  62
ATOM     62  O   LIG    1       28.573 -20.586   5.566  0.00  0.00    -0.503 OA
ATOM     63  H   LIG    1       27.628 -20.412   5.738  0.00  0.00    +0.292 HD
ENDBRANCH  53  62
BRANCH  51  65
ATOM     64  C   LIG    1       31.993 -16.977   8.844  0.00  0.00    +0.277 C 
ATOM     65  O   LIG    1       31.934 -17.913   7.748  0.00  0.00    -0.488 OA
ENDBRANCH  51  65
ENDBRANCH  50  54
ENDBRANCH  47  50
ENDBRANCH  46  48
ENDBRANCH  45  46
ENDBRANCH  42  45
ENDBRANCH  41  43
ENDBRANCH  40  41
ENDBRANCH  37  40
ENDBRANCH  36  38
ENDBRANCH  35  36
ENDBRANCH   1  35
TORSDOF 33
ENDMDL
MODEL 3
REMARK VINA RESULT:      -6.1      2.344      4.936
REMARK  Name = *****
REMARK                            x       y       z     vdW  Elec       q    Type
REMARK                         _______ _______ _______ _____ _____    ______ ____
ROOT
ATOM      1  C   LIG    1       25.597 -25.678   5.062  0.00  0.00    -0.027 C 
ATOM      2  C   LIG    1       25.796 -27.114   5.070  0.00  0.00    -0.076 C 
ATOM      3  C   LIG    1       27.129 -27.485   4.976  0.00  0.00    +0.038 C 
ENDROOT
BRANCH   2   4
ATOM      4  C   LIG    1       24.908 -28.268   5.127  0.00  0.00    +0.034 C 
BRANCH   4   5
ATOM      5  C   LIG    1       24.459 -28.457   6.549  0.00  0.00    +0.031 C 
BRANCH   5   6
ATOM      6  C   LIG    1       24.996 -29.702   7.175  0.00  0.00    -0.027 C 
ATOM      7  C   LIG    1       25.857 -29.659   8.205  0.00  0.00    -0.076 C 
ATOM      8  C   LIG    1       26.326 -28.320   8.726  0.00  0.00    +0.038 C 
BRANCH   7   9
ATOM      9  C   LIG    1       26.448 -30.882   8.869  0.00  0.00    +0.034 C 
BRANCH   9  10
ATOM     10  C   LIG    1       25.459 -31.857   9.552  0.00  0.00    +0.031 C 
BRANCH  10  11
ATOM     11  C   LIG    1       24.218 -31.124   9.965  0.00  0.00    -0.027 C 
ATOM     12  C   LIG    1       23.829 -30.676  11.176  0.00  0.00    -0.076 C 
ATOM     13  C   LIG    1       24.591 -30.957  12.442  0.00  0.00    +0.038 C 
BRANCH  12  14
ATOM     14  C   LIG    1       22.603 -29.792  11.373  0.00  0.00    +0.034 C 
BRANCH  14  15
ATOM     15  C   LIG    1       21.198 -30.443  11.387  0.00  0.00    +0.031 C 
BRANCH  15  16
ATOM     16  C   LIG    1       20.382 -30.320  12.656  0.00  0.00    -0.027 C 
ATOM     17  C   LIG    1       19.158 -30.827  12.912  0.00  0.00    -0.076 C 
ATOM     18  C   LIG    1       18.311 -31.532  11.889  0.00  0.00    +0.038 C 
BRANCH  17  19
ATOM     19  C   LIG    1       18.603 -30.853  14.331  0.00  0.00    +0.034 C 
BRANCH  19  20
ATOM     20  C   LIG    1       18.862 -29.591  15.187  0.00  0.00    +0.031 C 
BRANCH  20  21
ATOM     21  C   LIG    1       17.938 -28.461  14.794  0.00  0.00    -0.027 C 
ATOM     22  C   LIG    1       18.217 -27.178  14.473  0.00  0.00    -0.076 C 
ATOM     23  C   LIG    1       17.050 -26.266  14.231  0.00  0.00    +0.038 C 
BRANCH  22  24
ATOM     24  C   LIG    1       19.603 -26.543  14.369  0.00  0.00    +0.034 C 
BRANCH  24  25
ATOM     25  C   LIG    1       20.522 -26.953  13.167  0.00  0.00    +0.031 C 
BRANCH  25  26
ATOM     26  C   LIG    1       21.982 -26.524  13.188  0.00  0.00    -0.027 C 
ATOM     27  C   LIG    1       23.040 -27.067  13.811  0.00  0.00    -0.076 C 
ATOM     28  C   LIG    1       22.859 -28.301  14.632  0.00  0.00    +0.038 C 
BRANCH  27  29
ATOM     29  C   LIG    1       24.443 -26.471  13.604  0.00  0.00    +0.034 C 
BRANCH  29  30
ATOM     30  C   LIG    1       25.413 -27.431  12.883  0.00  0.00    +0.031 C 
BRANCH  30  31
ATOM     31  C   LIG    1       26.510 -28.027  13.748  0.00  0.00    -0.028 C 
ATOM     32  C   LIG    1       27.566 -28.762  13.327  0.00  0.00    -0.080 C 
ATOM     33  C   LIG    1       28.612 -29.268  14.290  0.00  0.00    +0.038 C 
ATOM     34  C   LIG    1       27.842 -29.164  11.903  0.00  0.00    +0.038 C 
ENDBRANCH  30  31
ENDBRANCH  29  30
ENDBRANCH  27  29
ENDBRANCH  25  26
ENDBRANCH  24  25
ENDBRANCH  22  24
ENDBRANCH  20  21
ENDBRANCH  19  20
ENDBRANCH  17  19
ENDBRANCH  15  16
ENDBRANCH  14  15
ENDBRANCH  12  14
ENDBRANCH  10  11
ENDBRANCH   9  10
ENDBRANCH   7   9
ENDBRANCH   5   6
ENDBRANCH   4   5
ENDBRANCH   2   4
BRANCH   1  35
ATOM     35  C   LIG    1       24.336 -25.046   5.129  0.00  0.00    +0.031 C 
BRANCH  35  36
ATOM     36  C   LIG    1       23.730 -24.845   6.545  0.00  0.00    +0.034 C 
BRANCH  36  38
ATOM     37  C   LIG    1       24.840 -22.751   7.386  0.00  0.00    -0.027 C 
ATOM     38  C   LIG    1       23.701 -23.418   7.076  0.00  0.00    -0.076 C 
ATOM     39  C   LIG    1       22.374 -22.779   7.147  0.00  0.00    +0.038 C 
BRANCH  37  40
ATOM     40  C   LIG    1       24.887 -21.313   7.849  0.00  0.00    +0.031 C 
BRANCH  40  41
ATOM     41  C   LIG    1       26.061 -21.001   8.791  0.00  0.00    +0.034 C 
BRANCH  41  43
ATOM     42  C   LIG    1       28.358 -19.981   8.540  0.00  0.00    -0.027 C 
ATOM     43  C   LIG    1       27.519 -21.022   8.311  0.00  0.00    -0.076 C 
ATOM     44  C   LIG    1       27.832 -22.187   7.414  0.00  0.00    +0.038 C 
BRANCH  42  45
ATOM     45  C   LIG    1       29.751 -19.604   7.974  0.00  0.00    +0.031 C 
BRANCH  45  46
ATOM     46  C   LIG    1       30.076 -19.089   6.513  0.00  0.00    +0.034 C 
BRANCH  46  48
ATOM     47  C   LIG    1       27.830 -19.764   5.380  0.00  0.00    -0.023 C 
ATOM     48  C   LIG    1       28.844 -18.880   5.619  0.00  0.00    -0.076 C 
ATOM     49  C   LIG    1       29.036 -17.679   4.782  0.00  0.00    +0.038 C 
BRANCH  47  50
ATOM     50  C   LIG    1       26.736 -19.927   4.241  0.00  0.00    +0.066 C 
BRANCH  50  54
ATOM     51  C   LIG    1       22.455 -18.643   4.478  0.00  0.00    +0.207 A 
ATOM     52  C   LIG    1       22.820 -19.958   4.693  0.00  0.00    +0.207 A 
ATOM     53  C   LIG    1       24.180 -20.354   4.504  0.00  0.00    +0.166 A 
ATOM     54  C   LIG    1       25.244 -19.441   4.238  0.00  0.00    +0.008 A 
ATOM     55  C   LIG    1       24.781 -18.171   3.857  0.00  0.00    +0.002 A 
ATOM     56  C   LIG    1       25.616 -17.126   3.210  0.00  0.00    +0.048 C 
ATOM     57  C   LIG    1       23.452 -17.775   4.070  0.00  0.00    +0.166 A 
BRANCH  57  58
ATOM     58  O   LIG    1       23.163 -16.472   3.788  0.00  0.00    -0.503 OA
ATOM     59  H   LIG    1       22.749 -16.085   4.580  0.00  0.00    +0.292 HD
ENDBRANCH  57  58
BRANCH  52  60
ATOM     60  O   LIG    1       21.726 -20.735   4.903  0.00  0.00    -0.488 OA
ATOM     61  C   LIG    1       21.180 -21.477   3.849  0.00  0.00    +0.277 C 
ENDBRANCH  52  60
BRANCH  53  62
ATOM     62  O   LIG    1       24.440 -21.696   4.311  0.00  0.00    -0.503 OA
ATOM     63  H   LIG    1       24.562 -22.065   5.206  0.00  0.00    +0.292 HD
ENDBRANCH  53  62
BRANCH  51  65
ATOM     64  C   LIG    1       20.378 -18.263   3.228  0.00  0.00    +0.277 C 
ATOM     65  O   LIG    1       21.156 -18.175   4.440  0.00  0.00    -0.488 OA
ENDBRANCH  51  65
ENDBRANCH  50  54
ENDBRANCH  47  50
ENDBRANCH  46  48
ENDBRANCH  45  46
ENDBRANCH  42  45
ENDBRANCH  41  43
ENDBRANCH  40  41
ENDBRANCH  37  40
ENDBRANCH  36  38
ENDBRANCH  35  36
ENDBRANCH   1  35
TORSDOF 33
ENDMDL
MODEL 4
REMARK VINA RESULT:      -6.1      3.305     11.586
REMARK  Name = *****
REMARK                            x       y       z     vdW  Elec       q    Type
REMARK                         _______ _______ _______ _____ _____    ______ ____
ROOT
ATOM      1  C   LIG    1       24.025 -31.586   7.013  0.00  0.00    -0.027 C 
ATOM      2  C   LIG    1       24.569 -30.395   6.391  0.00  0.00    -0.076 C 
ATOM      3  C   LIG    1       23.648 -29.714   5.609  0.00  0.00    +0.038 C 
ENDROOT
BRANCH   2   4
ATOM      4  C   LIG    1       25.880 -29.759   6.375  0.00  0.00    +0.034 C 
BRANCH   4   5
ATOM      5  C   LIG    1       25.901 -28.679   7.420  0.00  0.00    +0.031 C 
BRANCH   5   6
ATOM      6  C   LIG    1       25.199 -27.432   6.995  0.00  0.00    -0.027 C 
ATOM      7  C   LIG    1       25.692 -26.638   6.030  0.00  0.00    -0.076 C 
ATOM      8  C   LIG    1       27.009 -26.992   5.378  0.00  0.00    +0.038 C 
BRANCH   7   9
ATOM      9  C   LIG    1       25.037 -25.356   5.568  0.00  0.00    +0.034 C 
BRANCH   9  10
ATOM     10  C   LIG    1       23.641 -25.031   6.154  0.00  0.00    +0.031 C 
BRANCH  10  11
ATOM     11  C   LIG    1       23.630 -23.641   6.717  0.00  0.00    -0.027 C 
ATOM     12  C   LIG    1       24.610 -22.932   7.314  0.00  0.00    -0.076 C 
ATOM     13  C   LIG    1       25.962 -23.507   7.640  0.00  0.00    +0.038 C 
BRANCH  12  14
ATOM     14  C   LIG    1       24.461 -21.458   7.670  0.00  0.00    +0.034 C 
BRANCH  14  15
ATOM     15  C   LIG    1       23.129 -20.734   7.348  0.00  0.00    +0.031 C 
BRANCH  15  16
ATOM     16  C   LIG    1       23.130 -19.748   6.200  0.00  0.00    -0.027 C 
ATOM     17  C   LIG    1       22.447 -19.822   5.038  0.00  0.00    -0.076 C 
ATOM     18  C   LIG    1       21.625 -21.010   4.622  0.00  0.00    +0.038 C 
BRANCH  17  19
ATOM     19  C   LIG    1       22.340 -18.613   4.117  0.00  0.00    +0.034 C 
BRANCH  19  20
ATOM     20  C   LIG    1       22.184 -17.239   4.809  0.00  0.00    +0.031 C 
BRANCH  20  21
ATOM     21  C   LIG    1       23.231 -16.260   4.328  0.00  0.00    -0.027 C 
ATOM     22  C   LIG    1       24.442 -16.480   3.772  0.00  0.00    -0.076 C 
ATOM     23  C   LIG    1       25.298 -15.278   3.500  0.00  0.00    +0.038 C 
BRANCH  22  24
ATOM     24  C   LIG    1       25.053 -17.836   3.424  0.00  0.00    +0.034 C 
BRANCH  24  25
ATOM     25  C   LIG    1       26.599 -18.026   3.608  0.00  0.00    +0.031 C 
BRANCH  25  26
ATOM     26  C   LIG    1       27.102 -18.734   4.858  0.00  0.00    -0.027 C 
ATOM     27  C   LIG    1       26.814 -19.953   5.344  0.00  0.00    -0.076 C 
ATOM     28  C   LIG    1       25.867 -20.838   4.602  0.00  0.00    +0.038 C 
BRANCH  27  29
ATOM     29  C   LIG    1       27.528 -20.464   6.607  0.00  0.00    +0.034 C 
BRANCH  29  30
ATOM     30  C   LIG    1       29.055 -20.601   6.431  0.00  0.00    +0.031 C 
BRANCH  30  31
ATOM     31  C   LIG    1       29.889 -19.498   7.058  0.00  0.00    -0.028 C 
ATOM     32  C   LIG    1       30.862 -19.644   7.988  0.00  0.00    -0.080 C 
ATOM     33  C   LIG    1       31.646 -18.463   8.506  0.00  0.00    +0.038 C 
ATOM     34  C   LIG    1       31.286 -20.945   8.615  0.00  0.00    +0.038 C 
ENDBRANCH  30  31
ENDBRANCH  29  30
ENDBRANCH  27  29
ENDBRANCH  25  26
ENDBRANCH  24  25
ENDBRANCH  22  24
ENDBRANCH  20  21
ENDBRANCH  19  20
ENDBRANCH  17  19
ENDBRANCH  15  16
ENDBRANCH  14  15
ENDBRANCH  12  14
ENDBRANCH  10  11
ENDBRANCH   9  10
ENDBRANCH   7   9
ENDBRANCH   5   6
ENDBRANCH   4   5
ENDBRANCH   2   4
BRANCH   1  35
ATOM     35  C   LIG    1       24.762 -32.462   7.841  0.00  0.00    +0.031 C 
BRANCH  35  36
ATOM     36  C   LIG    1       25.357 -31.857   9.142  0.00  0.00    +0.034 C 
BRANCH  36  38
ATOM     37  C   LIG    1       23.928 -32.591  11.076  0.00  0.00    -0.027 C 
ATOM     38  C   LIG    1       24.378 -31.592  10.279  0.00  0.00    -0.076 C 
ATOM     39  C   LIG    1       24.024 -30.180  10.513  0.00  0.00    +0.038 C 
BRANCH  37  40
ATOM     40  C   LIG    1       23.014 -32.387  12.264  0.00  0.00    +0.031 C 
BRANCH  40  41
ATOM     41  C   LIG    1       21.519 -32.422  11.911  0.00  0.00    +0.034 C 
BRANCH  41  43
ATOM     42  C   LIG    1       20.289 -30.586  13.133  0.00  0.00    -0.027 C 
ATOM     43  C   LIG    1       20.641 -31.163  11.958  0.00  0.00    -0.076 C 
ATOM     44  C   LIG    1       20.069 -30.788  10.619  0.00  0.00    +0.038 C 
BRANCH  42  45
ATOM     45  C   LIG    1       19.238 -29.509  13.508  0.00  0.00    +0.031 C 
BRANCH  45  46
ATOM     46  C   LIG    1       19.367 -28.407  14.637  0.00  0.00    +0.034 C 
BRANCH  46  48
ATOM     47  C   LIG    1       21.429 -27.370  13.431  0.00  0.00    -0.023 C 
ATOM     48  C   LIG    1       20.435 -27.336  14.367  0.00  0.00    -0.076 C 
ATOM     49  C   LIG    1       20.447 -26.357  15.473  0.00  0.00    +0.038 C 
BRANCH  47  50
ATOM     50  C   LIG    1       22.819 -26.623  13.250  0.00  0.00    +0.066 C 
BRANCH  50  54
ATOM     51  C   LIG    1       26.888 -28.264  14.135  0.00  0.00    +0.207 A 
ATOM     52  C   LIG    1       25.759 -29.050  14.255  0.00  0.00    +0.207 A 
ATOM     53  C   LIG    1       24.467 -28.466  14.069  0.00  0.00    +0.166 A 
ATOM     54  C   LIG    1       24.258 -27.127  13.621  0.00  0.00    +0.008 A 
ATOM     55  C   LIG    1       25.423 -26.346  13.694  0.00  0.00    +0.002 A 
ATOM     56  C   LIG    1       25.452 -24.862  13.616  0.00  0.00    +0.048 C 
ATOM     57  C   LIG    1       26.692 -26.924  13.848  0.00  0.00    +0.166 A 
BRANCH  57  58
ATOM     58  O   LIG    1       27.753 -26.071  13.763  0.00  0.00    -0.503 OA
ATOM     59  H   LIG    1       27.747 -25.684  12.869  0.00  0.00    +0.292 HD
ENDBRANCH  57  58
BRANCH  52  60
ATOM     60  O   LIG    1       26.078 -30.286  14.719  0.00  0.00    -0.488 OA
ATOM     61  C   LIG    1       26.066 -31.384  13.852  0.00  0.00    +0.277 C 
ENDBRANCH  52  60
BRANCH  53  62
ATOM     62  O   LIG    1       23.378 -29.131  14.593  0.00  0.00    -0.503 OA
ATOM     63  H   LIG    1       23.741 -29.945  14.990  0.00  0.00    +0.292 HD
ENDBRANCH  53  62
BRANCH  51  65
ATOM     64  C   LIG    1       29.006 -29.337  13.515  0.00  0.00    +0.277 C 
ATOM     65  O   LIG    1       28.169 -28.655  14.473  0.00  0.00    -0.488 OA
ENDBRANCH  51  65
ENDBRANCH  50  54
ENDBRANCH  47  50
ENDBRANCH  46  48
ENDBRANCH  45  46
ENDBRANCH  42  45
ENDBRANCH  41  43
ENDBRANCH  40  41
ENDBRANCH  37  40
ENDBRANCH  36  38
ENDBRANCH  35  36
ENDBRANCH   1  35
TORSDOF 33
ENDMDL
MODEL 5
REMARK VINA RESULT:      -6.0      1.395      3.053
REMARK  Name = *****
REMARK                            x       y       z     vdW  Elec       q    Type
REMARK                         _______ _______ _______ _____ _____    ______ ____
ROOT
ATOM      1  C   LIG    1       24.808 -24.757   4.413  0.00  0.00    -0.027 C 
ATOM      2  C   LIG    1       25.135 -25.871   5.281  0.00  0.00    -0.076 C 
ATOM      3  C   LIG    1       25.161 -27.091   4.623  0.00  0.00    +0.038 C 
ENDROOT
BRANCH   2   4
ATOM      4  C   LIG    1       25.418 -26.008   6.704  0.00  0.00    +0.034 C 
BRANCH   4   5
ATOM      5  C   LIG    1       26.016 -27.366   6.944  0.00  0.00    +0.031 C 
BRANCH   5   6
ATOM      6  C   LIG    1       25.192 -28.221   7.849  0.00  0.00    -0.027 C 
ATOM      7  C   LIG    1       24.893 -29.494   7.539  0.00  0.00    -0.076 C 
ATOM      8  C   LIG    1       25.371 -30.070   6.226  0.00  0.00    +0.038 C 
BRANCH   7   9
ATOM      9  C   LIG    1       24.049 -30.403   8.405  0.00  0.00    +0.034 C 
BRANCH   9  10
ATOM     10  C   LIG    1       23.929 -30.032   9.903  0.00  0.00    +0.031 C 
BRANCH  10  11
ATOM     11  C   LIG    1       22.498 -30.122  10.342  0.00  0.00    -0.027 C 
ATOM     12  C   LIG    1       21.859 -31.075  11.048  0.00  0.00    -0.076 C 
ATOM     13  C   LIG    1       22.504 -32.371  11.456  0.00  0.00    +0.038 C 
BRANCH  12  14
ATOM     14  C   LIG    1       20.429 -30.909  11.552  0.00  0.00    +0.034 C 
BRANCH  14  15
ATOM     15  C   LIG    1       20.174 -30.098  12.846  0.00  0.00    +0.031 C 
BRANCH  15  16
ATOM     16  C   LIG    1       20.639 -28.658  12.872  0.00  0.00    -0.027 C 
ATOM     17  C   LIG    1       21.205 -27.984  13.895  0.00  0.00    -0.076 C 
ATOM     18  C   LIG    1       21.370 -28.543  15.280  0.00  0.00    +0.038 C 
BRANCH  17  19
ATOM     19  C   LIG    1       21.870 -26.631  13.666  0.00  0.00    +0.034 C 
BRANCH  19  20
ATOM     20  C   LIG    1       23.382 -26.660  13.343  0.00  0.00    +0.031 C 
BRANCH  20  21
ATOM     21  C   LIG    1       24.068 -25.397  13.813  0.00  0.00    -0.027 C 
ATOM     22  C   LIG    1       25.066 -25.229  14.708  0.00  0.00    -0.076 C 
ATOM     23  C   LIG    1       25.456 -23.817  15.038  0.00  0.00    +0.038 C 
BRANCH  22  24
ATOM     24  C   LIG    1       25.818 -26.329  15.456  0.00  0.00    +0.034 C 
BRANCH  24  25
ATOM     25  C   LIG    1       27.281 -26.670  15.006  0.00  0.00    +0.031 C 
BRANCH  25  26
ATOM     26  C   LIG    1       27.518 -27.939  14.200  0.00  0.00    -0.027 C 
ATOM     27  C   LIG    1       27.340 -28.185  12.891  0.00  0.00    -0.076 C 
ATOM     28  C   LIG    1       26.843 -27.097  11.997  0.00  0.00    +0.038 C 
BRANCH  27  29
ATOM     29  C   LIG    1       27.732 -29.552  12.307  0.00  0.00    +0.034 C 
BRANCH  29  30
ATOM     30  C   LIG    1       26.519 -30.393  11.856  0.00  0.00    +0.031 C 
BRANCH  30  31
ATOM     31  C   LIG    1       26.011 -31.407  12.867  0.00  0.00    -0.028 C 
ATOM     32  C   LIG    1       25.062 -31.205  13.811  0.00  0.00    -0.080 C 
ATOM     33  C   LIG    1       24.619 -32.313  14.736  0.00  0.00    +0.038 C 
ATOM     34  C   LIG    1       24.342 -29.908  14.068  0.00  0.00    +0.038 C 
ENDBRANCH  30  31
ENDBRANCH  29  30
ENDBRANCH  27  29
ENDBRANCH  25  26
ENDBRANCH  24  25
ENDBRANCH  22  24
ENDBRANCH  20  21
ENDBRANCH  19  20
ENDBRANCH  17  19
ENDBRANCH  15  16
ENDBRANCH  14  15
ENDBRANCH  12  14
ENDBRANCH  10  11
ENDBRANCH   9  10
ENDBRANCH   7   9
ENDBRANCH   5   6
ENDBRANCH   4   5
ENDBRANCH   2   4
BRANCH   1  35
ATOM     35  C   LIG    1       24.699 -23.415   4.843  0.00  0.00    +0.031 C 
BRANCH  35  36
ATOM     36  C   LIG    1       25.567 -22.370   4.090  0.00  0.00    +0.034 C 
BRANCH  36  38
ATOM     37  C   LIG    1       24.058 -20.544   3.246  0.00  0.00    -0.027 C 
ATOM     38  C   LIG    1       25.051 -20.937   4.081  0.00  0.00    -0.076 C 
ATOM     39  C   LIG    1       25.630 -20.032   5.090  0.00  0.00    +0.038 C 
BRANCH  37  40
ATOM     40  C   LIG    1       23.450 -19.159   3.235  0.00  0.00    +0.031 C 
BRANCH  40  41
ATOM     41  C   LIG    1       22.465 -18.902   4.386  0.00  0.00    +0.034 C 
BRANCH  41  43
ATOM     42  C   LIG    1       22.965 -19.912   6.647  0.00  0.00    -0.027 C 
ATOM     43  C   LIG    1       22.234 -19.928   5.505  0.00  0.00    -0.076 C 
ATOM     44  C   LIG    1       21.290 -21.031   5.113  0.00  0.00    +0.038 C 
BRANCH  42  45
ATOM     45  C   LIG    1       23.145 -20.932   7.801  0.00  0.00    +0.031 C 
BRANCH  45  46
ATOM     46  C   LIG    1       24.162 -22.144   7.848  0.00  0.00    +0.034 C 
BRANCH  46  48
ATOM     47  C   LIG    1       26.716 -22.431   7.427  0.00  0.00    -0.023 C 
ATOM     48  C   LIG    1       25.642 -21.736   7.906  0.00  0.00    -0.076 C 
ATOM     49  C   LIG    1       25.808 -20.600   8.835  0.00  0.00    +0.038 C 
BRANCH  47  50
ATOM     50  C   LIG    1       28.276 -22.417   7.720  0.00  0.00    +0.066 C 
BRANCH  50  54
ATOM     51  C   LIG    1       30.851 -18.759   7.880  0.00  0.00    +0.207 A 
ATOM     52  C   LIG    1       29.802 -18.856   6.986  0.00  0.00    +0.207 A 
ATOM     53  C   LIG    1       29.068 -20.079   6.888  0.00  0.00    +0.166 A 
ATOM     54  C   LIG    1       29.254 -21.190   7.765  0.00  0.00    +0.008 A 
ATOM     55  C   LIG    1       30.438 -21.092   8.514  0.00  0.00    +0.002 A 
ATOM     56  C   LIG    1       31.066 -22.219   9.251  0.00  0.00    +0.048 C 
ATOM     57  C   LIG    1       31.140 -19.884   8.632  0.00  0.00    +0.166 A 
BRANCH  57  58
ATOM     58  O   LIG    1       32.193 -19.885   9.499  0.00  0.00    -0.503 OA
ATOM     59  H   LIG    1       31.932 -19.362  10.278  0.00  0.00    +0.292 HD
ENDBRANCH  57  58
BRANCH  52  60
ATOM     60  O   LIG    1       29.744 -17.759   6.187  0.00  0.00    -0.488 OA
ATOM     61  C   LIG    1       29.289 -17.876   4.869  0.00  0.00    +0.277 C 
ENDBRANCH  52  60
BRANCH  53  62
ATOM     62  O   LIG    1       28.333 -20.299   5.741  0.00  0.00    -0.503 OA
ATOM     63  H   LIG    1       28.561 -21.207   5.462  0.00  0.00    +0.292 HD
ENDBRANCH  53  62
BRANCH  51  65
ATOM     64  C   LIG    1       31.640 -16.704   8.964  0.00  0.00    +0.277 C 
ATOM     65  O   LIG    1       31.751 -17.712   7.938  0.00  0.00    -0.488 OA
ENDBRANCH  51  65
ENDBRANCH  50  54
ENDBRANCH  47  50
ENDBRANCH  46  48
ENDBRANCH  45  46
ENDBRANCH  42  45
ENDBRANCH  41  43
ENDBRANCH  40  41
ENDBRANCH  37  40
ENDBRANCH  36  38
ENDBRANCH  35  36
ENDBRANCH   1  35
TORSDOF 33
ENDMDL
MODEL 6
REMARK VINA RESULT:      -5.7      2.539      6.256
REMARK  Name = *****
REMARK                            x       y       z     vdW  Elec       q    Type
REMARK                         _______ _______ _______ _____ _____    ______ ____
ROOT
ATOM      1  C   LIG    1       24.293 -24.434   6.698  0.00  0.00    -0.027 C 
ATOM      2  C   LIG    1       25.000 -25.542   6.088  0.00  0.00    -0.076 C 
ATOM      3  C   LIG    1       26.345 -25.588   6.424  0.00  0.00    +0.038 C 
ENDROOT
BRANCH   2   4
ATOM      4  C   LIG    1       24.627 -26.613   5.172  0.00  0.00    +0.034 C 
BRANCH   4   5
ATOM      5  C   LIG    1       25.238 -27.896   5.659  0.00  0.00    +0.031 C 
BRANCH   5   6
ATOM      6  C   LIG    1       24.283 -28.749   6.427  0.00  0.00    -0.027 C 
ATOM      7  C   LIG    1       24.553 -29.163   7.676  0.00  0.00    -0.076 C 
ATOM      8  C   LIG    1       25.870 -28.787   8.314  0.00  0.00    +0.038 C 
BRANCH   7   9
ATOM      9  C   LIG    1       23.635 -30.042   8.496  0.00  0.00    +0.034 C 
BRANCH   9  10
ATOM     10  C   LIG    1       23.801 -31.573   8.333  0.00  0.00    +0.031 C 
BRANCH  10  11
ATOM     11  C   LIG    1       24.072 -32.205   9.666  0.00  0.00    -0.027 C 
ATOM     12  C   LIG    1       25.217 -32.687  10.188  0.00  0.00    -0.076 C 
ATOM     13  C   LIG    1       26.503 -32.778   9.412  0.00  0.00    +0.038 C 
BRANCH  12  14
ATOM     14  C   LIG    1       25.336 -33.140  11.639  0.00  0.00    +0.034 C 
BRANCH  14  15
ATOM     15  C   LIG    1       25.286 -32.080  12.767  0.00  0.00    +0.031 C 
BRANCH  15  16
ATOM     16  C   LIG    1       25.309 -30.622  12.358  0.00  0.00    -0.027 C 
ATOM     17  C   LIG    1       25.413 -29.536  13.152  0.00  0.00    -0.076 C 
ATOM     18  C   LIG    1       25.406 -29.591  14.654  0.00  0.00    +0.038 C 
BRANCH  17  19
ATOM     19  C   LIG    1       25.705 -28.162  12.561  0.00  0.00    +0.034 C 
BRANCH  19  20
ATOM     20  C   LIG    1       26.822 -27.346  13.251  0.00  0.00    +0.031 C 
BRANCH  20  21
ATOM     21  C   LIG    1       26.438 -25.890  13.384  0.00  0.00    -0.027 C 
ATOM     22  C   LIG    1       25.629 -25.279  14.278  0.00  0.00    -0.076 C 
ATOM     23  C   LIG    1       25.364 -23.816  14.071  0.00  0.00    +0.038 C 
BRANCH  22  24
ATOM     24  C   LIG    1       24.917 -25.934  15.461  0.00  0.00    +0.034 C 
BRANCH  24  25
ATOM     25  C   LIG    1       23.352 -26.021  15.434  0.00  0.00    +0.031 C 
BRANCH  25  26
ATOM     26  C   LIG    1       22.684 -26.758  14.281  0.00  0.00    -0.027 C 
ATOM     27  C   LIG    1       21.448 -27.273  14.176  0.00  0.00    -0.076 C 
ATOM     28  C   LIG    1       20.495 -27.141  15.318  0.00  0.00    +0.038 C 
BRANCH  27  29
ATOM     29  C   LIG    1       20.992 -27.911  12.854  0.00  0.00    +0.034 C 
BRANCH  29  30
ATOM     30  C   LIG    1       22.098 -28.735  12.160  0.00  0.00    +0.031 C 
BRANCH  30  31
ATOM     31  C   LIG    1       21.721 -30.158  11.788  0.00  0.00    -0.028 C 
ATOM     32  C   LIG    1       21.651 -31.223  12.620  0.00  0.00    -0.080 C 
ATOM     33  C   LIG    1       21.226 -32.586  12.127  0.00  0.00    +0.038 C 
ATOM     34  C   LIG    1       21.972 -31.210  14.091  0.00  0.00    +0.038 C 
ENDBRANCH  30  31
ENDBRANCH  29  30
ENDBRANCH  27  29
ENDBRANCH  25  26
ENDBRANCH  24  25
ENDBRANCH  22  24
ENDBRANCH  20  21
ENDBRANCH  19  20
ENDBRANCH  17  19
ENDBRANCH  15  16
ENDBRANCH  14  15
ENDBRANCH  12  14
ENDBRANCH  10  11
ENDBRANCH   9  10
ENDBRANCH   7   9
ENDBRANCH   5   6
ENDBRANCH   4   5
ENDBRANCH   2   4
BRANCH   1  35
ATOM     35  C   LIG    1       22.922 -24.156   6.501  0.00  0.00    +0.031 C 
BRANCH  35  36
ATOM     36  C   LIG    1       22.435 -22.734   6.892  0.00  0.00    +0.034 C 
BRANCH  36  38
ATOM     37  C   LIG    1       24.613 -22.194   8.025  0.00  0.00    -0.027 C 
ATOM     38  C   LIG    1       23.499 -21.762   7.386  0.00  0.00    -0.076 C 
ATOM     39  C   LIG    1       23.288 -20.343   7.048  0.00  0.00    +0.038 C 
BRANCH  37  40
ATOM     40  C   LIG    1       25.740 -21.292   8.478  0.00  0.00    +0.031 C 
BRANCH  40  41
ATOM     41  C   LIG    1       27.137 -21.910   8.308  0.00  0.00    +0.034 C 
BRANCH  41  43
ATOM     42  C   LIG    1       28.329 -19.705   7.998  0.00  0.00    -0.027 C 
ATOM     43  C   LIG    1       28.367 -21.060   7.958  0.00  0.00    -0.076 C 
ATOM     44  C   LIG    1       29.501 -21.865   7.386  0.00  0.00    +0.038 C 
BRANCH  42  45
ATOM     45  C   LIG    1       29.285 -18.606   7.466  0.00  0.00    +0.031 C 
BRANCH  45  46
ATOM     46  C   LIG    1       29.734 -18.383   5.964  0.00  0.00    +0.034 C 
BRANCH  46  48
ATOM     47  C   LIG    1       28.228 -17.119   4.257  0.00  0.00    -0.023 C 
ATOM     48  C   LIG    1       28.577 -18.234   4.965  0.00  0.00    -0.076 C 
ATOM     49  C   LIG    1       27.668 -19.392   5.081  0.00  0.00    +0.038 C 
BRANCH  47  50
ATOM     50  C   LIG    1       26.905 -16.628   3.527  0.00  0.00    +0.066 C 
BRANCH  50  54
ATOM     51  C   LIG    1       22.818 -18.338   4.162  0.00  0.00    +0.207 A 
ATOM     52  C   LIG    1       23.846 -19.111   3.657  0.00  0.00    +0.207 A 
ATOM     53  C   LIG    1       25.108 -18.507   3.366  0.00  0.00    +0.166 A 
ATOM     54  C   LIG    1       25.438 -17.158   3.697  0.00  0.00    +0.008 A 
ATOM     55  C   LIG    1       24.309 -16.394   4.033  0.00  0.00    +0.002 A 
ATOM     56  C   LIG    1       24.282 -14.910   4.100  0.00  0.00    +0.048 C 
ATOM     57  C   LIG    1       23.079 -16.992   4.346  0.00  0.00    +0.166 A 
BRANCH  57  58
ATOM     58  O   LIG    1       22.101 -16.152   4.792  0.00  0.00    -0.503 OA
ATOM     59  H   LIG    1       21.291 -16.351   4.289  0.00  0.00    +0.292 HD
ENDBRANCH  57  58
BRANCH  52  60
ATOM     60  O   LIG    1       23.406 -20.359   3.350  0.00  0.00    -0.488 OA
ATOM     61  C   LIG    1       24.115 -21.481   3.795  0.00  0.00    +0.277 C 
ENDBRANCH  52  60
BRANCH  53  62
ATOM     62  O   LIG    1       25.953 -19.166   2.498  0.00  0.00    -0.503 OA
ATOM     63  H   LIG    1       26.672 -19.517   3.057  0.00  0.00    +0.292 HD
ENDBRANCH  53  62
BRANCH  51  65
ATOM     64  C   LIG    1       20.531 -18.463   3.284  0.00  0.00    +0.277 C 
ATOM     65  O   LIG    1       21.508 -18.753   4.305  0.00  0.00    -0.488 OA
ENDBRANCH  51  65
ENDBRANCH  50  54
ENDBRANCH  47  50
ENDBRANCH  46  48
ENDBRANCH  45  46
ENDBRANCH  42  45
ENDBRANCH  41  43
ENDBRANCH  40  41
ENDBRANCH  37  40
ENDBRANCH  36  38
ENDBRANCH  35  36
ENDBRANCH   1  35
TORSDOF 33
ENDMDL
MODEL 7
REMARK VINA RESULT:      -5.5      2.323      6.775
REMARK  Name = *****
REMARK                            x       y       z     vdW  Elec       q    Type
REMARK                         _______ _______ _______ _____ _____    ______ ____
ROOT
ATOM      1  C   LIG    1       25.064 -26.975   4.954  0.00  0.00    -0.027 C 
ATOM      2  C   LIG    1       25.508 -27.892   5.984  0.00  0.00    -0.076 C 
ATOM      3  C   LIG    1       25.508 -29.218   5.577  0.00  0.00    +0.038 C 
ENDROOT
BRANCH   2   4
ATOM      4  C   LIG    1       25.931 -27.744   7.371  0.00  0.00    +0.034 C 
BRANCH   4   5
ATOM      5  C   LIG    1       25.446 -28.934   8.150  0.00  0.00    +0.031 C 
BRANCH   5   6
ATOM      6  C   LIG    1       25.984 -28.987   9.542  0.00  0.00    -0.027 C 
ATOM      7  C   LIG    1       26.651 -30.058  10.001  0.00  0.00    -0.076 C 
ATOM      8  C   LIG    1       26.836 -31.259   9.101  0.00  0.00    +0.038 C 
BRANCH   7   9
ATOM      9  C   LIG    1       27.203 -30.178  11.404  0.00  0.00    +0.034 C 
BRANCH   9  10
ATOM     10  C   LIG    1       28.141 -29.046  11.888  0.00  0.00    +0.031 C 
BRANCH  10  11
ATOM     11  C   LIG    1       27.731 -28.588  13.256  0.00  0.00    -0.027 C 
ATOM     12  C   LIG    1       27.057 -27.487  13.644  0.00  0.00    -0.076 C 
ATOM     13  C   LIG    1       26.666 -26.384  12.699  0.00  0.00    +0.038 C 
BRANCH  12  14
ATOM     14  C   LIG    1       26.577 -27.276  15.076  0.00  0.00    +0.034 C 
BRANCH  14  15
ATOM     15  C   LIG    1       25.084 -27.509  15.413  0.00  0.00    +0.031 C 
BRANCH  15  16
ATOM     16  C   LIG    1       24.497 -28.866  15.089  0.00  0.00    -0.027 C 
ATOM     17  C   LIG    1       23.823 -29.240  13.981  0.00  0.00    -0.076 C 
ATOM     18  C   LIG    1       23.422 -28.294  12.884  0.00  0.00    +0.038 C 
BRANCH  17  19
ATOM     19  C   LIG    1       23.551 -30.711  13.692  0.00  0.00    +0.034 C 
BRANCH  19  20
ATOM     20  C   LIG    1       24.754 -31.542  13.190  0.00  0.00    +0.031 C 
BRANCH  20  21
ATOM     21  C   LIG    1       24.339 -32.510  12.105  0.00  0.00    -0.027 C 
ATOM     22  C   LIG    1       23.626 -32.303  10.976  0.00  0.00    -0.076 C 
ATOM     23  C   LIG    1       23.289 -33.509  10.150  0.00  0.00    +0.038 C 
BRANCH  22  24
ATOM     24  C   LIG    1       23.089 -30.965  10.469  0.00  0.00    +0.034 C 
BRANCH  24  25
ATOM     25  C   LIG    1       21.536 -30.789  10.334  0.00  0.00    +0.031 C 
BRANCH  25  26
ATOM     26  C   LIG    1       20.731 -30.447  11.579  0.00  0.00    -0.027 C 
ATOM     27  C   LIG    1       19.932 -31.215  12.338  0.00  0.00    -0.076 C 
ATOM     28  C   LIG    1       19.748 -32.656  11.991  0.00  0.00    +0.038 C 
BRANCH  27  29
ATOM     29  C   LIG    1       19.285 -30.633  13.605  0.00  0.00    +0.034 C 
BRANCH  29  30
ATOM     30  C   LIG    1       20.120 -29.510  14.256  0.00  0.00    +0.031 C 
BRANCH  30  31
ATOM     31  C   LIG    1       19.696 -28.093  13.913  0.00  0.00    -0.028 C 
ATOM     32  C   LIG    1       18.619 -27.430  14.395  0.00  0.00    -0.080 C 
ATOM     33  C   LIG    1       18.327 -26.002  13.999  0.00  0.00    +0.038 C 
ATOM     34  C   LIG    1       17.599 -27.989  15.351  0.00  0.00    +0.038 C 
ENDBRANCH  30  31
ENDBRANCH  29  30
ENDBRANCH  27  29
ENDBRANCH  25  26
ENDBRANCH  24  25
ENDBRANCH  22  24
ENDBRANCH  20  21
ENDBRANCH  19  20
ENDBRANCH  17  19
ENDBRANCH  15  16
ENDBRANCH  14  15
ENDBRANCH  12  14
ENDBRANCH  10  11
ENDBRANCH   9  10
ENDBRANCH   7   9
ENDBRANCH   5   6
ENDBRANCH   4   5
ENDBRANCH   2   4
BRANCH   1  35
ATOM     35  C   LIG    1       24.957 -25.576   5.122  0.00  0.00    +0.031 C 
BRANCH  35  36
ATOM     36  C   LIG    1       23.899 -25.076   6.145  0.00  0.00    +0.034 C 
BRANCH  36  38
ATOM     37  C   LIG    1       25.329 -23.143   6.883  0.00  0.00    -0.027 C 
ATOM     38  C   LIG    1       24.094 -23.667   6.690  0.00  0.00    -0.076 C 
ATOM     39  C   LIG    1       22.866 -22.881   6.907  0.00  0.00    +0.038 C 
BRANCH  37  40
ATOM     40  C   LIG    1       25.593 -21.730   7.352  0.00  0.00    +0.031 C 
BRANCH  40  41
ATOM     41  C   LIG    1       26.722 -21.620   8.388  0.00  0.00    +0.034 C 
BRANCH  41  43
ATOM     42  C   LIG    1       28.185 -19.590   8.043  0.00  0.00    -0.027 C 
ATOM     43  C   LIG    1       28.061 -20.941   8.066  0.00  0.00    -0.076 C 
ATOM     44  C   LIG    1       29.115 -21.902   7.592  0.00  0.00    +0.038 C 
BRANCH  42  45
ATOM     45  C   LIG    1       29.291 -18.640   7.513  0.00  0.00    +0.031 C 
BRANCH  45  46
ATOM     46  C   LIG    1       29.774 -18.488   6.014  0.00  0.00    +0.034 C 
BRANCH  46  48
ATOM     47  C   LIG    1       28.357 -17.174   4.268  0.00  0.00    -0.023 C 
ATOM     48  C   LIG    1       28.643 -18.297   4.992  0.00  0.00    -0.076 C 
ATOM     49  C   LIG    1       27.682 -19.413   5.101  0.00  0.00    +0.038 C 
BRANCH  47  50
ATOM     50  C   LIG    1       27.072 -16.632   3.510  0.00  0.00    +0.066 C 
BRANCH  50  54
ATOM     51  C   LIG    1       22.872 -17.994   4.244  0.00  0.00    +0.207 A 
ATOM     52  C   LIG    1       23.828 -18.860   3.752  0.00  0.00    +0.207 A 
ATOM     53  C   LIG    1       25.130 -18.367   3.428  0.00  0.00    +0.166 A 
ATOM     54  C   LIG    1       25.570 -17.038   3.713  0.00  0.00    +0.008 A 
ATOM     55  C   LIG    1       24.509 -16.178   4.037  0.00  0.00    +0.002 A 
ATOM     56  C   LIG    1       24.599 -14.695   4.059  0.00  0.00    +0.048 C 
ATOM     57  C   LIG    1       23.240 -16.667   4.383  0.00  0.00    +0.166 A 
BRANCH  57  58
ATOM     58  O   LIG    1       22.337 -15.739   4.814  0.00  0.00    -0.503 OA
ATOM     59  H   LIG    1       22.642 -15.414   5.679  0.00  0.00    +0.292 HD
ENDBRANCH  57  58
BRANCH  52  60
ATOM     60  O   LIG    1       23.288 -20.079   3.489  0.00  0.00    -0.488 OA
ATOM     61  C   LIG    1       23.929 -21.240   3.934  0.00  0.00    +0.277 C 
ENDBRANCH  52  60
BRANCH  53  62
ATOM     62  O   LIG    1       25.909 -19.116   2.571  0.00  0.00    -0.503 OA
ATOM     63  H   LIG    1       25.818 -20.037   2.881  0.00  0.00    +0.292 HD
ENDBRANCH  53  62
BRANCH  51  65
ATOM     64  C   LIG    1       20.702 -18.610   3.279  0.00  0.00    +0.277 C 
ATOM     65  O   LIG    1       21.535 -18.299   4.415  0.00  0.00    -0.488 OA
ENDBRANCH  51  65
ENDBRANCH  50  54
ENDBRANCH  47  50
ENDBRANCH  46  48
ENDBRANCH  45  46
ENDBRANCH  42  45
ENDBRANCH  41  43
ENDBRANCH  40  41
ENDBRANCH  37  40
ENDBRANCH  36  38
ENDBRANCH  35  36
ENDBRANCH   1  35
TORSDOF 33
ENDMDL
MODEL 8
REMARK VINA RESULT:      -5.5      4.721     13.632
REMARK  Name = *****
REMARK                            x       y       z     vdW  Elec       q    Type
REMARK                         _______ _______ _______ _____ _____    ______ ____
ROOT
ATOM      1  C   LIG    1       25.899 -26.545   4.340  0.00  0.00    -0.027 C 
ATOM      2  C   LIG    1       25.209 -25.534   5.116  0.00  0.00    -0.076 C 
ATOM      3  C   LIG    1       24.770 -24.461   4.355  0.00  0.00    +0.038 C 
ENDROOT
BRANCH   2   4
ATOM      4  C   LIG    1       24.893 -25.370   6.530  0.00  0.00    +0.034 C 
BRANCH   4   5
ATOM      5  C   LIG    1       25.893 -24.429   7.138  0.00  0.00    +0.031 C 
BRANCH   5   6
ATOM      6  C   LIG    1       25.273 -23.186   7.689  0.00  0.00    -0.027 C 
ATOM      7  C   LIG    1       25.970 -22.045   7.813  0.00  0.00    -0.076 C 
ATOM      8  C   LIG    1       27.429 -22.019   7.418  0.00  0.00    +0.038 C 
BRANCH   7   9
ATOM      9  C   LIG    1       25.404 -20.762   8.379  0.00  0.00    +0.034 C 
BRANCH   9  10
ATOM     10  C   LIG    1       23.898 -20.495   8.143  0.00  0.00    +0.031 C 
BRANCH  10  11
ATOM     11  C   LIG    1       23.460 -21.126   6.855  0.00  0.00    -0.027 C 
ATOM     12  C   LIG    1       22.910 -20.575   5.754  0.00  0.00    -0.076 C 
ATOM     13  C   LIG    1       22.510 -19.127   5.669  0.00  0.00    +0.038 C 
BRANCH  12  14
ATOM     14  C   LIG    1       22.689 -21.356   4.464  0.00  0.00    +0.034 C 
BRANCH  14  15
ATOM     15  C   LIG    1       23.627 -21.102   3.258  0.00  0.00    +0.031 C 
BRANCH  15  16
ATOM     16  C   LIG    1       24.203 -19.711   3.101  0.00  0.00    -0.027 C 
ATOM     17  C   LIG    1       25.327 -19.208   3.654  0.00  0.00    -0.076 C 
ATOM     18  C   LIG    1       26.171 -19.943   4.657  0.00  0.00    +0.038 C 
BRANCH  17  19
ATOM     19  C   LIG    1       25.912 -17.887   3.169  0.00  0.00    +0.034 C 
BRANCH  19  20
ATOM     20  C   LIG    1       25.116 -16.613   3.535  0.00  0.00    +0.031 C 
BRANCH  20  21
ATOM     21  C   LIG    1       26.021 -15.405   3.621  0.00  0.00    -0.027 C 
ATOM     22  C   LIG    1       27.355 -15.326   3.816  0.00  0.00    -0.076 C 
ATOM     23  C   LIG    1       27.945 -13.954   3.960  0.00  0.00    +0.038 C 
BRANCH  22  24
ATOM     24  C   LIG    1       28.329 -16.497   3.947  0.00  0.00    +0.034 C 
BRANCH  24  25
ATOM     25  C   LIG    1       28.229 -17.411   5.216  0.00  0.00    +0.031 C 
BRANCH  25  26
ATOM     26  C   LIG    1       29.479 -18.143   5.687  0.00  0.00    -0.027 C 
ATOM     27  C   LIG    1       29.674 -18.934   6.754  0.00  0.00    -0.076 C 
ATOM     28  C   LIG    1       28.540 -19.212   7.684  0.00  0.00    +0.038 C 
BRANCH  27  29
ATOM     29  C   LIG    1       31.035 -19.620   6.962  0.00  0.00    +0.034 C 
BRANCH  29  30
ATOM     30  C   LIG    1       31.598 -19.437   8.387  0.00  0.00    +0.031 C 
BRANCH  30  31
ATOM     31  C   LIG    1       32.097 -18.042   8.722  0.00  0.00    -0.028 C 
ATOM     32  C   LIG    1       31.604 -17.209   9.668  0.00  0.00    -0.080 C 
ATOM     33  C   LIG    1       32.218 -15.854   9.926  0.00  0.00    +0.038 C 
ATOM     34  C   LIG    1       30.427 -17.495  10.560  0.00  0.00    +0.038 C 
ENDBRANCH  30  31
ENDBRANCH  29  30
ENDBRANCH  27  29
ENDBRANCH  25  26
ENDBRANCH  24  25
ENDBRANCH  22  24
ENDBRANCH  20  21
ENDBRANCH  19  20
ENDBRANCH  17  19
ENDBRANCH  15  16
ENDBRANCH  14  15
ENDBRANCH  12  14
ENDBRANCH  10  11
ENDBRANCH   9  10
ENDBRANCH   7   9
ENDBRANCH   5   6
ENDBRANCH   4   5
ENDBRANCH   2   4
BRANCH   1  35
ATOM     35  C   LIG    1       26.458 -27.724   4.882  0.00  0.00    +0.031 C 
BRANCH  35  36
ATOM     36  C   LIG    1       25.677 -28.396   6.045  0.00  0.00    +0.034 C 
BRANCH  36  38
ATOM     37  C   LIG    1       25.902 -30.840   5.496  0.00  0.00    -0.027 C 
ATOM     38  C   LIG    1       25.103 -29.780   5.768  0.00  0.00    -0.076 C 
ATOM     39  C   LIG    1       23.641 -29.914   5.903  0.00  0.00    +0.038 C 
BRANCH  37  40
ATOM     40  C   LIG    1       25.404 -32.252   5.283  0.00  0.00    +0.031 C 
BRANCH  40  41
ATOM     41  C   LIG    1       25.246 -33.058   6.582  0.00  0.00    +0.034 C 
BRANCH  41  43
ATOM     42  C   LIG    1       23.758 -33.004   8.622  0.00  0.00    -0.027 C 
ATOM     43  C   LIG    1       23.891 -33.209   7.288  0.00  0.00    -0.076 C 
ATOM     44  C   LIG    1       22.823 -33.791   6.405  0.00  0.00    +0.038 C 
BRANCH  42  45
ATOM     45  C   LIG    1       22.626 -33.324   9.632  0.00  0.00    +0.031 C 
BRANCH  45  46
ATOM     46  C   LIG    1       21.103 -32.906   9.516  0.00  0.00    +0.034 C 
BRANCH  46  48
ATOM     47  C   LIG    1       20.067 -32.946  11.905  0.00  0.00    -0.023 C 
ATOM     48  C   LIG    1       20.509 -32.289  10.791  0.00  0.00    -0.076 C 
ATOM     49  C   LIG    1       20.184 -30.869  10.551  0.00  0.00    +0.038 C 
BRANCH  47  50
ATOM     50  C   LIG    1       19.089 -32.580  13.101  0.00  0.00    +0.066 C 
BRANCH  50  54
ATOM     51  C   LIG    1       18.115 -28.433  14.475  0.00  0.00    +0.207 A 
ATOM     52  C   LIG    1       19.375 -28.968  14.656  0.00  0.00    +0.207 A 
ATOM     53  C   LIG    1       19.622 -30.332  14.303  0.00  0.00    +0.166 A 
ATOM     54  C   LIG    1       18.675 -31.162  13.631  0.00  0.00    +0.008 A 
ATOM     55  C   LIG    1       17.380 -30.622  13.645  0.00  0.00    +0.002 A 
ATOM     56  C   LIG    1       16.143 -31.382  13.328  0.00  0.00    +0.048 C 
ATOM     57  C   LIG    1       17.144 -29.276  13.964  0.00  0.00    +0.166 A 
BRANCH  57  58
ATOM     58  O   LIG    1       15.861 -28.838  13.803  0.00  0.00    -0.503 OA
ATOM     59  H   LIG    1       15.903 -27.919  13.485  0.00  0.00    +0.292 HD
ENDBRANCH  57  58
BRANCH  52  60
ATOM     60  O   LIG    1       20.175 -28.103  15.332  0.00  0.00    -0.488 OA
ATOM     61  C   LIG    1       21.103 -27.319  14.637  0.00  0.00    +0.277 C 
ENDBRANCH  52  60
BRANCH  53  62
ATOM     62  O   LIG    1       20.719 -30.954  14.863  0.00  0.00    -0.503 OA
ATOM     63  H   LIG    1       21.327 -31.122  14.118  0.00  0.00    +0.292 HD
ENDBRANCH  53  62
BRANCH  51  65
ATOM     64  C   LIG    1       17.323 -26.154  14.029  0.00  0.00    +0.277 C 
ATOM     65  O   LIG    1       17.699 -27.203  14.946  0.00  0.00    -0.488 OA
ENDBRANCH  51  65
ENDBRANCH  50  54
ENDBRANCH  47  50
ENDBRANCH  46  48
ENDBRANCH  45  46
ENDBRANCH  42  45
ENDBRANCH  41  43
ENDBRANCH  40  41
ENDBRANCH  37  40
ENDBRANCH  36  38
ENDBRANCH  35  36
ENDBRANCH   1  35
TORSDOF 33
ENDMDL
MODEL 9
REMARK VINA RESULT:      -5.3      3.155     12.569
REMARK  Name = *****
REMARK                            x       y       z     vdW  Elec       q    Type
REMARK                         _______ _______ _______ _____ _____    ______ ____
ROOT
ATOM      1  C   LIG    1       24.876 -29.852   7.382  0.00  0.00    -0.027 C 
ATOM      2  C   LIG    1       24.950 -29.367   6.018  0.00  0.00    -0.076 C 
ATOM      3  C   LIG    1       23.706 -29.146   5.446  0.00  0.00    +0.038 C 
ENDROOT
BRANCH   2   4
ATOM      4  C   LIG    1       26.039 -29.082   5.093  0.00  0.00    +0.034 C 
BRANCH   4   5
ATOM      5  C   LIG    1       26.408 -27.631   5.218  0.00  0.00    +0.031 C 
BRANCH   5   6
ATOM      6  C   LIG    1       25.546 -26.885   6.184  0.00  0.00    -0.027 C 
ATOM      7  C   LIG    1       24.888 -25.770   5.827  0.00  0.00    -0.076 C 
ATOM      8  C   LIG    1       25.047 -25.231   4.424  0.00  0.00    +0.038 C 
BRANCH   7   9
ATOM      9  C   LIG    1       24.017 -24.962   6.763  0.00  0.00    +0.034 C 
BRANCH   9  10
ATOM     10  C   LIG    1       24.194 -23.425   6.734  0.00  0.00    +0.031 C 
BRANCH  10  11
ATOM     11  C   LIG    1       25.639 -23.070   6.915  0.00  0.00    -0.027 C 
ATOM     12  C   LIG    1       26.213 -22.059   7.598  0.00  0.00    -0.076 C 
ATOM     13  C   LIG    1       25.425 -20.961   8.259  0.00  0.00    +0.038 C 
BRANCH  12  14
ATOM     14  C   LIG    1       27.718 -21.958   7.813  0.00  0.00    +0.034 C 
BRANCH  14  15
ATOM     15  C   LIG    1       28.326 -20.612   8.277  0.00  0.00    +0.031 C 
BRANCH  15  16
ATOM     16  C   LIG    1       28.875 -19.688   7.211  0.00  0.00    -0.027 C 
ATOM     17  C   LIG    1       28.338 -19.394   6.008  0.00  0.00    -0.076 C 
ATOM     18  C   LIG    1       27.107 -20.055   5.453  0.00  0.00    +0.038 C 
BRANCH  17  19
ATOM     19  C   LIG    1       28.871 -18.232   5.178  0.00  0.00    +0.034 C 
BRANCH  19  20
ATOM     20  C   LIG    1       27.830 -17.461   4.334  0.00  0.00    +0.031 C 
BRANCH  20  21
ATOM     21  C   LIG    1       28.089 -15.972   4.368  0.00  0.00    -0.027 C 
ATOM     22  C   LIG    1       27.385 -14.951   3.831  0.00  0.00    -0.076 C 
ATOM     23  C   LIG    1       27.974 -13.576   3.954  0.00  0.00    +0.038 C 
BRANCH  22  24
ATOM     24  C   LIG    1       26.064 -15.055   3.071  0.00  0.00    +0.034 C 
BRANCH  24  25
ATOM     25  C   LIG    1       24.727 -14.947   3.882  0.00  0.00    +0.031 C 
BRANCH  25  26
ATOM     26  C   LIG    1       23.800 -16.155   3.922  0.00  0.00    -0.027 C 
ATOM     27  C   LIG    1       22.723 -16.401   4.686  0.00  0.00    -0.076 C 
ATOM     28  C   LIG    1       22.274 -15.380   5.680  0.00  0.00    +0.038 C 
BRANCH  27  29
ATOM     29  C   LIG    1       21.908 -17.687   4.472  0.00  0.00    +0.034 C 
BRANCH  29  30
ATOM     30  C   LIG    1       22.442 -18.889   5.279  0.00  0.00    +0.031 C 
BRANCH  30  31
ATOM     31  C   LIG    1       22.644 -20.171   4.490  0.00  0.00    -0.028 C 
ATOM     32  C   LIG    1       23.774 -20.567   3.859  0.00  0.00    -0.080 C 
ATOM     33  C   LIG    1       23.855 -21.890   3.136  0.00  0.00    +0.038 C 
ATOM     34  C   LIG    1       25.058 -19.784   3.787  0.00  0.00    +0.038 C 
ENDBRANCH  30  31
ENDBRANCH  29  30
ENDBRANCH  27  29
ENDBRANCH  25  26
ENDBRANCH  24  25
ENDBRANCH  22  24
ENDBRANCH  20  21
ENDBRANCH  19  20
ENDBRANCH  17  19
ENDBRANCH  15  16
ENDBRANCH  14  15
ENDBRANCH  12  14
ENDBRANCH  10  11
ENDBRANCH   9  10
ENDBRANCH   7   9
ENDBRANCH   5   6
ENDBRANCH   4   5
ENDBRANCH   2   4
BRANCH   1  35
ATOM     35  C   LIG    1       25.999 -30.171   8.178  0.00  0.00    +0.031 C 
BRANCH  35  36
ATOM     36  C   LIG    1       25.727 -30.486   9.675  0.00  0.00    +0.034 C 
BRANCH  36  38
ATOM     37  C   LIG    1       25.265 -32.344  11.304  0.00  0.00    -0.027 C 
ATOM     38  C   LIG    1       25.429 -31.939  10.021  0.00  0.00    -0.076 C 
ATOM     39  C   LIG    1       25.244 -32.853   8.880  0.00  0.00    +0.038 C 
BRANCH  37  40
ATOM     40  C   LIG    1       24.898 -33.754  11.713  0.00  0.00    +0.031 C 
BRANCH  40  41
ATOM     41  C   LIG    1       23.811 -33.824  12.796  0.00  0.00    +0.034 C 
BRANCH  41  43
ATOM     42  C   LIG    1       21.901 -33.090  11.316  0.00  0.00    -0.027 C 
ATOM     43  C   LIG    1       22.394 -33.281  12.565  0.00  0.00    -0.076 C 
ATOM     44  C   LIG    1       21.726 -32.808  13.826  0.00  0.00    +0.038 C 
BRANCH  42  45
ATOM     45  C   LIG    1       20.658 -32.337  10.775  0.00  0.00    +0.031 C 
BRANCH  45  46
ATOM     46  C   LIG    1       20.519 -30.778  10.540  0.00  0.00    +0.034 C 
BRANCH  46  48
ATOM     47  C   LIG    1       21.681 -29.037  12.090  0.00  0.00    -0.023 C 
ATOM     48  C   LIG    1       20.680 -29.922  11.806  0.00  0.00    -0.076 C 
ATOM     49  C   LIG    1       19.751 -30.400  12.849  0.00  0.00    +0.038 C 
BRANCH  47  50
ATOM     50  C   LIG    1       22.253 -28.389  13.422  0.00  0.00    +0.066 C 
BRANCH  50  54
ATOM     51  C   LIG    1       26.131 -26.179  13.759  0.00  0.00    +0.207 A 
ATOM     52  C   LIG    1       26.076 -27.447  13.214  0.00  0.00    +0.207 A 
ATOM     53  C   LIG    1       24.841 -28.166  13.220  0.00  0.00    +0.166 A 
ATOM     54  C   LIG    1       23.595 -27.603  13.632  0.00  0.00    +0.008 A 
ATOM     55  C   LIG    1       23.755 -26.397  14.332  0.00  0.00    +0.002 A 
ATOM     56  C   LIG    1       22.701 -25.753  15.159  0.00  0.00    +0.048 C 
ATOM     57  C   LIG    1       24.960 -25.678  14.301  0.00  0.00    +0.166 A 
BRANCH  57  58
ATOM     58  O   LIG    1       24.943 -24.455  14.904  0.00  0.00    -0.503 OA
ATOM     59  H   LIG    1       25.660 -24.443  15.563  0.00  0.00    +0.292 HD
ENDBRANCH  57  58
BRANCH  52  60
ATOM     60  O   LIG    1       27.319 -27.888  12.891  0.00  0.00    -0.488 OA
ATOM     61  C   LIG    1       27.860 -29.001  13.546  0.00  0.00    +0.277 C 
ENDBRANCH  52  60
BRANCH  53  62
ATOM     62  O   LIG    1       24.892 -29.537  13.071  0.00  0.00    -0.503 OA
ATOM     63  H   LIG    1       25.841 -29.750  12.987  0.00  0.00    +0.292 HD
ENDBRANCH  53  62
BRANCH  51  65
ATOM     64  C   LIG    1       28.148 -25.786  15.099  0.00  0.00    +0.277 C 
ATOM     65  O   LIG    1       27.289 -25.460  13.987  0.00  0.00    -0.488 OA
ENDBRANCH  51  65
ENDBRANCH  50  54
ENDBRANCH  47  50
ENDBRANCH  46  48
ENDBRANCH  45  46
ENDBRANCH  42  45
ENDBRANCH  41  43
ENDBRANCH  40  41
ENDBRANCH  37  40
ENDBRANCH  36  38
ENDBRANCH  35  36
ENDBRANCH   1  35
TORSDOF 33
ENDMDL
