MODEL 1
REMARK VINA RESULT:      -4.8      0.000      0.000
REMARK  Name = *****
REMARK                            x       y       z     vdW  Elec       q    Type
REMARK                         _______ _______ _______ _____ _____    ______ ____
ROOT
ATOM      1  C   LIG    1       26.814 -15.984   3.414  0.00  0.00    +0.096 C 
ENDROOT
BRANCH   1   2
ATOM      2  N   LIG    1       26.606 -14.802   2.574  0.00  0.00    -0.310 NA
ATOM      3  H   LIG    1       27.301 -14.851   1.828  0.00  0.00    +0.122 HD
BRANCH   2   4
ATOM      4  CA  LIG    1       26.721 -13.518   3.296  0.00  0.00    +0.079 C 
BRANCH   4   6
ATOM      5  C   LIG    1       24.166 -13.487   3.704  0.00  0.00    +0.005 C 
ATOM      6  C   LIG    1       25.562 -13.410   4.313  0.00  0.00    +0.017 C 
ENDBRANCH   4   6
BRANCH   4   7
ATOM      7  C   LIG    1       28.050 -13.377   4.091  0.00  0.00    +0.174 C 
BRANCH   7   8
ATOM      8  O   LIG    1       29.159 -13.058   3.253  0.00  0.00    -0.394 OA
ATOM      9  H   LIG    1       29.023 -13.540   2.419  0.00  0.00    +0.209 HD
ENDBRANCH   7   8
ENDBRANCH   4   7
ENDBRANCH   2   4
ENDBRANCH   1   2
BRANCH   1  10
ATOM     10  C   LIG    1       25.636 -16.972   3.261  0.00  0.00    +0.096 C 
BRANCH  10  11
ATOM     11  N   LIG    1       26.022 -18.394   3.369  0.00  0.00    -0.310 NA
ATOM     12  H   LIG    1       26.960 -18.434   3.769  0.00  0.00    +0.122 HD
BRANCH  11  13
ATOM     13  CA  LIG    1       25.096 -19.136   4.268  0.00  0.00    +0.079 C 
BRANCH  13  14
ATOM     14  C   LIG    1       23.709 -19.416   3.639  0.00  0.00    +0.017 C 
ATOM     15  C   LIG    1       22.507 -18.932   4.437  0.00  0.00    +0.005 C 
ENDBRANCH  13  14
BRANCH  13  16
ATOM     16  C   LIG    1       25.781 -20.438   4.746  0.00  0.00    +0.174 C 
BRANCH  16  17
ATOM     17  O   LIG    1       27.198 -20.293   4.831  0.00  0.00    -0.394 OA
ATOM     18  H   LIG    1       27.489 -20.099   3.919  0.00  0.00    +0.209 HD
ENDBRANCH  16  17
ENDBRANCH  13  16
ENDBRANCH  11  13
ENDBRANCH  10  11
ENDBRANCH   1  10
TORSDOF 11
ENDMDL
MODEL 2
REMARK VINA RESULT:      -4.8      1.263      1.443
REMARK  Name = *****
REMARK                            x       y       z     vdW  Elec       q    Type
REMARK                         _______ _______ _______ _____ _____    ______ ____
ROOT
ATOM      1  C   LIG    1       25.428 -17.139   3.323  0.00  0.00    +0.096 C 
ENDROOT
BRANCH   1   2
ATOM      2  N   LIG    1       26.633 -16.304   3.311  0.00  0.00    -0.310 NA
ATOM      3  H   LIG    1       27.151 -16.532   4.160  0.00  0.00    +0.122 HD
BRANCH   2   4
ATOM      4  CA  LIG    1       26.363 -14.852   3.251  0.00  0.00    +0.079 C 
BRANCH   4   6
ATOM      5  C   LIG    1       24.212 -13.415   3.299  0.00  0.00    +0.005 C 
ATOM      6  C   LIG    1       24.996 -14.570   3.914  0.00  0.00    +0.017 C 
ENDBRANCH   4   6
BRANCH   4   7
ATOM      7  C   LIG    1       27.425 -13.999   4.000  0.00  0.00    +0.174 C 
BRANCH   7   8
ATOM      8  O   LIG    1       28.321 -13.335   3.110  0.00  0.00    -0.394 OA
ATOM      9  H   LIG    1       29.206 -13.400   3.508  0.00  0.00    +0.209 HD
ENDBRANCH   7   8
ENDBRANCH   4   7
ENDBRANCH   2   4
ENDBRANCH   1   2
BRANCH   1  10
ATOM     10  C   LIG    1       25.803 -18.627   3.498  0.00  0.00    +0.096 C 
BRANCH  10  11
ATOM     11  N   LIG    1       24.649 -19.550   3.448  0.00  0.00    -0.310 NA
ATOM     12  H   LIG    1       24.932 -20.377   2.921  0.00  0.00    +0.122 HD
BRANCH  11  13
ATOM     13  CA  LIG    1       24.244 -19.977   4.815  0.00  0.00    +0.079 C 
BRANCH  13  14
ATOM     14  C   LIG    1       22.744 -19.745   5.120  0.00  0.00    +0.017 C 
ATOM     15  C   LIG    1       22.117 -18.515   4.479  0.00  0.00    +0.005 C 
ENDBRANCH  13  14
BRANCH  13  16
ATOM     16  C   LIG    1       24.650 -21.455   5.029  0.00  0.00    +0.174 C 
BRANCH  16  17
ATOM     17  O   LIG    1       25.938 -21.571   5.633  0.00  0.00    -0.394 OA
ATOM     18  H   LIG    1       26.185 -20.659   5.880  0.00  0.00    +0.209 HD
ENDBRANCH  16  17
ENDBRANCH  13  16
ENDBRANCH  11  13
ENDBRANCH  10  11
ENDBRANCH   1  10
TORSDOF 11
ENDMDL
MODEL 3
REMARK VINA RESULT:      -4.8      1.259      6.079
REMARK  Name = *****
REMARK                            x       y       z     vdW  Elec       q    Type
REMARK                         _______ _______ _______ _____ _____    ______ ____
ROOT
ATOM      1  C   LIG    1       25.775 -18.546   3.453  0.00  0.00    +0.096 C 
ENDROOT
BRANCH   1   2
ATOM      2  N   LIG    1       24.512 -19.288   3.512  0.00  0.00    -0.310 NA
ATOM      3  H   LIG    1       23.781 -18.637   3.225  0.00  0.00    +0.122 HD
BRANCH   2   4
ATOM      4  CA  LIG    1       24.202 -19.850   4.843  0.00  0.00    +0.079 C 
BRANCH   4   6
ATOM      5  C   LIG    1       22.022 -18.523   4.416  0.00  0.00    +0.005 C 
ATOM      6  C   LIG    1       22.684 -19.713   5.102  0.00  0.00    +0.017 C 
ENDBRANCH   4   6
BRANCH   4   7
ATOM      7  C   LIG    1       24.559 -21.358   4.971  0.00  0.00    +0.174 C 
BRANCH   7   8
ATOM      8  O   LIG    1       25.810 -21.572   5.622  0.00  0.00    -0.394 OA
ATOM      9  H   LIG    1       25.727 -21.188   6.513  0.00  0.00    +0.209 HD
ENDBRANCH   7   8
ENDBRANCH   4   7
ENDBRANCH   2   4
ENDBRANCH   1   2
BRANCH   1  10
ATOM     10  C   LIG    1       25.506 -17.030   3.320  0.00  0.00    +0.096 C 
BRANCH  10  11
ATOM     11  N   LIG    1       26.730 -16.203   3.266  0.00  0.00    -0.310 NA
ATOM     12  H   LIG    1       27.204 -16.402   2.384  0.00  0.00    +0.122 HD
BRANCH  11  13
ATOM     13  CA  LIG    1       26.399 -14.752   3.305  0.00  0.00    +0.079 C 
BRANCH  13  14
ATOM     14  C   LIG    1       25.055 -14.438   4.005  0.00  0.00    +0.017 C 
ATOM     15  C   LIG    1       24.164 -13.418   3.310  0.00  0.00    +0.005 C 
ENDBRANCH  13  14
BRANCH  13  16
ATOM     16  C   LIG    1       27.575 -13.977   3.947  0.00  0.00    +0.174 C 
BRANCH  16  17
ATOM     17  O   LIG    1       28.168 -13.056   3.033  0.00  0.00    -0.394 OA
ATOM     18  H   LIG    1       27.429 -12.499   2.719  0.00  0.00    +0.209 HD
ENDBRANCH  16  17
ENDBRANCH  13  16
ENDBRANCH  11  13
ENDBRANCH  10  11
ENDBRANCH   1  10
TORSDOF 11
ENDMDL
MODEL 4
REMARK VINA RESULT:      -4.7      1.360      1.959
REMARK  Name = *****
REMARK                            x       y       z     vdW  Elec       q    Type
REMARK                         _______ _______ _______ _____ _____    ______ ____
ROOT
ATOM      1  C   LIG    1       26.697 -16.381   3.486  0.00  0.00    +0.096 C 
ENDROOT
BRANCH   1   2
ATOM      2  N   LIG    1       26.358 -15.190   2.701  0.00  0.00    -0.310 NA
ATOM      3  H   LIG    1       26.971 -15.198   1.885  0.00  0.00    +0.122 HD
BRANCH   2   4
ATOM      4  CA  LIG    1       26.503 -13.918   3.438  0.00  0.00    +0.079 C 
BRANCH   4   6
ATOM      5  C   LIG    1       23.995 -13.979   4.071  0.00  0.00    +0.005 C 
ATOM      6  C   LIG    1       25.437 -13.862   4.555  0.00  0.00    +0.017 C 
ENDBRANCH   4   6
BRANCH   4   7
ATOM      7  C   LIG    1       27.893 -13.756   4.116  0.00  0.00    +0.174 C 
BRANCH   7   8
ATOM      8  O   LIG    1       28.818 -13.035   3.305  0.00  0.00    -0.394 OA
ATOM      9  H   LIG    1       28.309 -12.335   2.859  0.00  0.00    +0.209 HD
ENDBRANCH   7   8
ENDBRANCH   4   7
ENDBRANCH   2   4
ENDBRANCH   1   2
BRANCH   1  10
ATOM     10  C   LIG    1       25.636 -17.485   3.282  0.00  0.00    +0.096 C 
BRANCH  10  11
ATOM     11  N   LIG    1       26.077 -18.832   3.700  0.00  0.00    -0.310 NA
ATOM     12  H   LIG    1       26.471 -18.755   4.638  0.00  0.00    +0.122 HD
BRANCH  11  13
ATOM     13  CA  LIG    1       24.932 -19.782   3.747  0.00  0.00    +0.079 C 
BRANCH  13  14
ATOM     14  C   LIG    1       25.019 -20.804   4.906  0.00  0.00    +0.017 C 
ATOM     15  C   LIG    1       26.050 -20.501   5.984  0.00  0.00    +0.005 C 
ENDBRANCH  13  14
BRANCH  13  16
ATOM     16  C   LIG    1       23.607 -18.983   3.786  0.00  0.00    +0.174 C 
BRANCH  16  17
ATOM     17  O   LIG    1       22.773 -19.388   4.871  0.00  0.00    -0.394 OA
ATOM     18  H   LIG    1       21.864 -19.176   4.585  0.00  0.00    +0.209 HD
ENDBRANCH  16  17
ENDBRANCH  13  16
ENDBRANCH  11  13
ENDBRANCH  10  11
ENDBRANCH   1  10
TORSDOF 11
ENDMDL
MODEL 5
REMARK VINA RESULT:      -4.7      1.273      6.080
REMARK  Name = *****
REMARK                            x       y       z     vdW  Elec       q    Type
REMARK                         _______ _______ _______ _____ _____    ______ ____
ROOT
ATOM      1  C   LIG    1       25.624 -17.241   3.299  0.00  0.00    +0.096 C 
ENDROOT
BRANCH   1   2
ATOM      2  N   LIG    1       26.142 -18.572   3.629  0.00  0.00    -0.310 NA
ATOM      3  H   LIG    1       26.816 -18.809   2.901  0.00  0.00    +0.122 HD
BRANCH   2   4
ATOM      4  CA  LIG    1       25.103 -19.619   3.722  0.00  0.00    +0.079 C 
BRANCH   4   6
ATOM      5  C   LIG    1       26.685 -20.237   5.675  0.00  0.00    +0.005 C 
ATOM      6  C   LIG    1       25.316 -20.420   5.027  0.00  0.00    +0.017 C 
ENDBRANCH   4   6
BRANCH   4   7
ATOM      7  C   LIG    1       23.657 -19.049   3.761  0.00  0.00    +0.174 C 
BRANCH   7   8
ATOM      8  O   LIG    1       22.922 -19.498   4.898  0.00  0.00    -0.394 OA
ATOM      9  H   LIG    1       22.139 -18.923   4.965  0.00  0.00    +0.209 HD
ENDBRANCH   7   8
ENDBRANCH   4   7
ENDBRANCH   2   4
ENDBRANCH   1   2
BRANCH   1  10
ATOM     10  C   LIG    1       26.745 -16.183   3.402  0.00  0.00    +0.096 C 
BRANCH  10  11
ATOM     11  N   LIG    1       26.495 -14.960   2.612  0.00  0.00    -0.310 NA
ATOM     12  H   LIG    1       25.558 -15.029   2.215  0.00  0.00    +0.122 HD
BRANCH  11  13
ATOM     13  CA  LIG    1       26.554 -13.745   3.470  0.00  0.00    +0.079 C 
BRANCH  13  14
ATOM     14  C   LIG    1       25.382 -13.636   4.475  0.00  0.00    +0.017 C 
ATOM     15  C   LIG    1       23.998 -13.943   3.919  0.00  0.00    +0.005 C 
ENDBRANCH  13  14
BRANCH  13  16
ATOM     16  C   LIG    1       27.927 -13.688   4.183  0.00  0.00    +0.174 C 
BRANCH  16  17
ATOM     17  O   LIG    1       28.915 -13.039   3.384  0.00  0.00    -0.394 OA
ATOM     18  H   LIG    1       28.886 -13.498   2.522  0.00  0.00    +0.209 HD
ENDBRANCH  16  17
ENDBRANCH  13  16
ENDBRANCH  11  13
ENDBRANCH  10  11
ENDBRANCH   1  10
TORSDOF 11
ENDMDL
MODEL 6
REMARK VINA RESULT:      -4.5      2.090      2.833
REMARK  Name = *****
REMARK                            x       y       z     vdW  Elec       q    Type
REMARK                         _______ _______ _______ _____ _____    ______ ____
ROOT
ATOM      1  C   LIG    1       26.701 -16.533   3.553  0.00  0.00    +0.096 C 
ENDROOT
BRANCH   1   2
ATOM      2  N   LIG    1       26.447 -15.303   2.799  0.00  0.00    -0.310 NA
ATOM      3  H   LIG    1       27.350 -14.994   2.438  0.00  0.00    +0.122 HD
BRANCH   2   4
ATOM      4  CA  LIG    1       25.818 -14.226   3.591  0.00  0.00    +0.079 C 
BRANCH   4   6
ATOM      5  C   LIG    1       28.207 -13.263   3.829  0.00  0.00    +0.005 C 
ATOM      6  C   LIG    1       26.885 -13.594   4.513  0.00  0.00    +0.017 C 
ENDBRANCH   4   6
BRANCH   4   7
ATOM      7  C   LIG    1       25.228 -13.085   2.715  0.00  0.00    +0.174 C 
BRANCH   7   8
ATOM      8  O   LIG    1       23.804 -13.136   2.635  0.00  0.00    -0.394 OA
ATOM      9  H   LIG    1       23.466 -12.669   3.420  0.00  0.00    +0.209 HD
ENDBRANCH   7   8
ENDBRANCH   4   7
ENDBRANCH   2   4
ENDBRANCH   1   2
BRANCH   1  10
ATOM     10  C   LIG    1       25.610 -17.586   3.256  0.00  0.00    +0.096 C 
BRANCH  10  11
ATOM     11  N   LIG    1       25.980 -18.964   3.640  0.00  0.00    -0.310 NA
ATOM     12  H   LIG    1       26.424 -18.925   4.559  0.00  0.00    +0.122 HD
BRANCH  11  13
ATOM     13  CA  LIG    1       24.778 -19.837   3.736  0.00  0.00    +0.079 C 
BRANCH  13  14
ATOM     14  C   LIG    1       24.858 -20.885   4.872  0.00  0.00    +0.017 C 
ATOM     15  C   LIG    1       25.886 -20.609   5.960  0.00  0.00    +0.005 C 
ENDBRANCH  13  14
BRANCH  13  16
ATOM     16  C   LIG    1       23.514 -18.953   3.860  0.00  0.00    +0.174 C 
BRANCH  16  17
ATOM     17  O   LIG    1       22.611 -19.451   4.846  0.00  0.00    -0.394 OA
ATOM     18  H   LIG    1       22.780 -18.909   5.642  0.00  0.00    +0.209 HD
ENDBRANCH  16  17
ENDBRANCH  13  16
ENDBRANCH  11  13
ENDBRANCH  10  11
ENDBRANCH   1  10
TORSDOF 11
ENDMDL
MODEL 7
REMARK VINA RESULT:      -4.4      2.007      6.471
REMARK  Name = *****
REMARK                            x       y       z     vdW  Elec       q    Type
REMARK                         _______ _______ _______ _____ _____    ______ ____
ROOT
ATOM      1  C   LIG    1       25.577 -17.784   3.269  0.00  0.00    +0.096 C 
ENDROOT
BRANCH   1   2
ATOM      2  N   LIG    1       25.995 -19.109   3.733  0.00  0.00    -0.310 NA
ATOM      3  H   LIG    1       26.574 -19.505   2.992  0.00  0.00    +0.122 HD
BRANCH   2   4
ATOM      4  CA  LIG    1       24.877 -20.021   4.050  0.00  0.00    +0.079 C 
BRANCH   4   6
ATOM      5  C   LIG    1       26.497 -20.416   6.028  0.00  0.00    +0.005 C 
ATOM      6  C   LIG    1       25.092 -20.605   5.464  0.00  0.00    +0.017 C 
ENDBRANCH   4   6
BRANCH   4   7
ATOM      7  C   LIG    1       23.491 -19.317   4.047  0.00  0.00    +0.174 C 
BRANCH   7   8
ATOM      8  O   LIG    1       22.746 -19.568   5.237  0.00  0.00    -0.394 OA
ATOM      9  H   LIG    1       21.814 -19.382   5.025  0.00  0.00    +0.209 HD
ENDBRANCH   7   8
ENDBRANCH   4   7
ENDBRANCH   2   4
ENDBRANCH   1   2
BRANCH   1  10
ATOM     10  C   LIG    1       26.699 -16.748   3.504  0.00  0.00    +0.096 C 
BRANCH  10  11
ATOM     11  N   LIG    1       26.421 -15.415   2.929  0.00  0.00    -0.310 NA
ATOM     12  H   LIG    1       25.715 -15.529   2.201  0.00  0.00    +0.122 HD
BRANCH  11  13
ATOM     13  CA  LIG    1       25.885 -14.486   3.962  0.00  0.00    +0.079 C 
BRANCH  13  14
ATOM     14  C   LIG    1       26.977 -13.656   4.679  0.00  0.00    +0.017 C 
ATOM     15  C   LIG    1       28.197 -13.297   3.842  0.00  0.00    +0.005 C 
ENDBRANCH  13  14
BRANCH  13  16
ATOM     16  C   LIG    1       24.804 -13.581   3.323  0.00  0.00    +0.174 C 
BRANCH  16  17
ATOM     17  O   LIG    1       24.225 -12.690   4.276  0.00  0.00    -0.394 OA
ATOM     18  H   LIG    1       23.889 -13.266   4.990  0.00  0.00    +0.209 HD
ENDBRANCH  16  17
ENDBRANCH  13  16
ENDBRANCH  11  13
ENDBRANCH  10  11
ENDBRANCH   1  10
TORSDOF 11
ENDMDL
MODEL 8
REMARK VINA RESULT:      -4.4      1.809      2.270
REMARK  Name = *****
REMARK                            x       y       z     vdW  Elec       q    Type
REMARK                         _______ _______ _______ _____ _____    ______ ____
ROOT
ATOM      1  C   LIG    1       25.354 -17.056   3.419  0.00  0.00    +0.096 C 
ENDROOT
BRANCH   1   2
ATOM      2  N   LIG    1       26.551 -16.240   3.198  0.00  0.00    -0.310 NA
ATOM      3  H   LIG    1       27.287 -16.643   3.778  0.00  0.00    +0.122 HD
BRANCH   2   4
ATOM      4  CA  LIG    1       26.375 -14.808   3.517  0.00  0.00    +0.079 C 
BRANCH   4   6
ATOM      5  C   LIG    1       28.457 -13.284   3.707  0.00  0.00    +0.005 C 
ATOM      6  C   LIG    1       27.573 -14.334   4.371  0.00  0.00    +0.017 C 
ENDBRANCH   4   6
BRANCH   4   7
ATOM      7  C   LIG    1       26.318 -13.900   2.257  0.00  0.00    +0.174 C 
BRANCH   7   8
ATOM      8  O   LIG    1       25.167 -13.057   2.240  0.00  0.00    -0.394 OA
ATOM      9  H   LIG    1       24.990 -12.848   1.306  0.00  0.00    +0.209 HD
ENDBRANCH   7   8
ENDBRANCH   4   7
ENDBRANCH   2   4
ENDBRANCH   1   2
BRANCH   1  10
ATOM     10  C   LIG    1       25.727 -18.554   3.494  0.00  0.00    +0.096 C 
BRANCH  10  11
ATOM     11  N   LIG    1       24.582 -19.471   3.310  0.00  0.00    -0.310 NA
ATOM     12  H   LIG    1       24.914 -20.286   2.794  0.00  0.00    +0.122 HD
BRANCH  11  13
ATOM     13  CA  LIG    1       24.044 -19.929   4.620  0.00  0.00    +0.079 C 
BRANCH  13  14
ATOM     14  C   LIG    1       22.522 -19.698   4.782  0.00  0.00    +0.017 C 
ATOM     15  C   LIG    1       22.031 -18.283   4.512  0.00  0.00    +0.005 C 
ENDBRANCH  13  14
BRANCH  13  16
ATOM     16  C   LIG    1       24.426 -21.412   4.838  0.00  0.00    +0.174 C 
BRANCH  16  17
ATOM     17  O   LIG    1       25.801 -21.562   5.189  0.00  0.00    -0.394 OA
ATOM     18  H   LIG    1       26.200 -20.685   5.030  0.00  0.00    +0.209 HD
ENDBRANCH  16  17
ENDBRANCH  13  16
ENDBRANCH  11  13
ENDBRANCH  10  11
ENDBRANCH   1  10
TORSDOF 11
ENDMDL
MODEL 9
REMARK VINA RESULT:      -4.0      1.666      6.325
REMARK  Name = *****
REMARK                            x       y       z     vdW  Elec       q    Type
REMARK                         _______ _______ _______ _____ _____    ______ ____
ROOT
ATOM      1  C   LIG    1       25.898 -18.109   3.304  0.00  0.00    +0.096 C 
ENDROOT
BRANCH   1   2
ATOM      2  N   LIG    1       24.477 -18.254   3.634  0.00  0.00    -0.310 NA
ATOM      3  H   LIG    1       24.190 -17.375   4.067  0.00  0.00    +0.122 HD
BRANCH   2   4
ATOM      4  CA  LIG    1       24.177 -19.388   4.533  0.00  0.00    +0.079 C 
BRANCH   4   6
ATOM      5  C   LIG    1       21.890 -18.187   4.383  0.00  0.00    +0.005 C 
ATOM      6  C   LIG    1       22.650 -19.453   4.764  0.00  0.00    +0.017 C 
ENDBRANCH   4   6
BRANCH   4   7
ATOM      7  C   LIG    1       24.616 -20.763   3.954  0.00  0.00    +0.174 C 
BRANCH   7   8
ATOM      8  O   LIG    1       25.292 -21.571   4.915  0.00  0.00    -0.394 OA
ATOM      9  H   LIG    1       25.908 -20.984   5.387  0.00  0.00    +0.209 HD
ENDBRANCH   7   8
ENDBRANCH   4   7
ENDBRANCH   2   4
ENDBRANCH   1   2
BRANCH   1  10
ATOM     10  C   LIG    1       26.308 -16.619   3.320  0.00  0.00    +0.096 C 
BRANCH  10  11
ATOM     11  N   LIG    1       25.184 -15.685   3.534  0.00  0.00    -0.310 NA
ATOM     12  H   LIG    1       24.760 -15.907   4.436  0.00  0.00    +0.122 HD
BRANCH  11  13
ATOM     13  CA  LIG    1       25.657 -14.274   3.572  0.00  0.00    +0.079 C 
BRANCH  13  14
ATOM     14  C   LIG    1       27.000 -14.049   2.835  0.00  0.00    +0.017 C 
ATOM     15  C   LIG    1       28.140 -13.503   3.683  0.00  0.00    +0.005 C 
ENDBRANCH  13  14
BRANCH  13  16
ATOM     16  C   LIG    1       24.543 -13.347   3.029  0.00  0.00    +0.174 C 
BRANCH  16  17
ATOM     17  O   LIG    1       25.073 -12.287   2.234  0.00  0.00    -0.394 OA
ATOM     18  H   LIG    1       25.504 -11.684   2.871  0.00  0.00    +0.209 HD
ENDBRANCH  16  17
ENDBRANCH  13  16
ENDBRANCH  11  13
ENDBRANCH  10  11
ENDBRANCH   1  10
TORSDOF 11
ENDMDL
