MODEL 1
REMARK VINA RESULT:      -8.0      0.000      0.000
REMARK  Name = *****
REMARK                            x       y       z     vdW  Elec       q    Type
REMARK                         _______ _______ _______ _____ _____    ______ ____
ROOT
ATOM      1  C   LIG    1       31.251 -19.500   8.329  0.00  0.00    +0.183 C 
ATOM      2  C   LIG    1       29.768 -19.278   7.928  0.00  0.00    +0.008 C 
ATOM      3  C   LIG    1       29.244 -17.969   8.549  0.00  0.00    +0.015 C 
ATOM      4  C   LIG    1       29.119 -20.550   8.518  0.00  0.00    +0.002 C 
ATOM      5  C   LIG    1       27.702 -20.896   8.028  0.00  0.00    +0.001 C 
ATOM      6  C   LIG    1       27.508 -20.717   6.501  0.00  0.00    +0.023 C 
ATOM      7  C   LIG    1       28.125 -19.406   5.972  0.00  0.00    +0.009 C 
ATOM      8  C   LIG    1       26.046 -20.834   6.083  0.00  0.00    -0.041 A 
ATOM      9  C   LIG    1       24.992 -20.786   7.019  0.00  0.00    -0.041 A 
ATOM     10  C   LIG    1       23.663 -20.910   6.582  0.00  0.00    +0.049 A 
ATOM     11  C   LIG    1       23.384 -21.059   5.229  0.00  0.00    +0.117 A 
ATOM     12  C   LIG    1       24.409 -21.099   4.296  0.00  0.00    +0.045 A 
ATOM     13  C   LIG    1       25.250 -20.674   8.499  0.00  0.00    +0.036 C 
ATOM     14  C   LIG    1       25.733 -20.993   4.721  0.00  0.00    +0.008 A 
ATOM     15  C   LIG    1       26.633 -20.118   8.810  0.00  0.00    +0.009 C 
ATOM     16  C   LIG    1       30.134 -21.664   8.187  0.00  0.00    +0.008 C 
ATOM     17  C   LIG    1       29.585 -19.232   6.396  0.00  0.00    +0.011 C 
ATOM     18  C   LIG    1       31.503 -20.988   8.077  0.00  0.00    +0.045 C 
ENDROOT
BRANCH  11  19
ATOM     19  O   LIG    1       22.103 -21.178   4.777  0.00  0.00    -0.507 OA
ATOM     20  H   LIG    1       21.573 -21.608   5.467  0.00  0.00    +0.292 HD
ENDBRANCH  11  19
BRANCH   1  21
ATOM     21  O   LIG    1       31.364 -19.237   9.744  0.00  0.00    -0.461 OA
BRANCH  21  22
ATOM     22  C   LIG    1       31.824 -18.014  10.116  0.00  0.00    +0.307 C 
ATOM     23  O   LIG    1       32.615 -17.333   9.485  0.00  0.00    -0.251 OA
BRANCH  22  24
ATOM     24  C   LIG    1       31.166 -17.592  11.408  0.00  0.00    +0.120 C 
BRANCH  24  25
ATOM     25  C   LIG    1       31.590 -16.203  11.887  0.00  0.00    +0.011 C 
BRANCH  25  27
ATOM     26  C   LIG    1       32.399 -15.901  14.264  0.00  0.00    +0.004 C 
ATOM     27  C   LIG    1       32.794 -16.233  12.831  0.00  0.00    -0.003 C 
ENDBRANCH  25  27
ENDBRANCH  24  25
ENDBRANCH  22  24
ENDBRANCH  21  22
ENDBRANCH   1  21
TORSDOF 6
ENDMDL
MODEL 2
REMARK VINA RESULT:      -7.0      1.525      2.560
REMARK  Name = *****
REMARK                            x       y       z     vdW  Elec       q    Type
REMARK                         _______ _______ _______ _____ _____    ______ ____
ROOT
ATOM      1  C   LIG    1       31.646 -18.665   9.207  0.00  0.00    +0.183 C 
ATOM      2  C   LIG    1       30.800 -19.512   8.218  0.00  0.00    +0.008 C 
ATOM      3  C   LIG    1       31.497 -19.572   6.846  0.00  0.00    +0.015 C 
ATOM      4  C   LIG    1       29.480 -18.707   8.210  0.00  0.00    +0.002 C 
ATOM      5  C   LIG    1       28.244 -19.409   7.624  0.00  0.00    +0.001 C 
ATOM      6  C   LIG    1       28.099 -20.888   8.063  0.00  0.00    +0.023 C 
ATOM      7  C   LIG    1       29.432 -21.661   8.000  0.00  0.00    +0.009 C 
ATOM      8  C   LIG    1       27.011 -21.622   7.285  0.00  0.00    -0.041 A 
ATOM      9  C   LIG    1       26.448 -21.095   6.104  0.00  0.00    -0.041 A 
ATOM     10  C   LIG    1       25.440 -21.806   5.433  0.00  0.00    +0.049 A 
ATOM     11  C   LIG    1       25.012 -23.035   5.918  0.00  0.00    +0.117 A 
ATOM     12  C   LIG    1       25.561 -23.570   7.073  0.00  0.00    +0.045 A 
ATOM     13  C   LIG    1       26.848 -19.745   5.570  0.00  0.00    +0.036 C 
ATOM     14  C   LIG    1       26.552 -22.865   7.757  0.00  0.00    +0.008 A 
ATOM     15  C   LIG    1       28.202 -19.287   6.094  0.00  0.00    +0.009 C 
ATOM     16  C   LIG    1       29.280 -18.321   9.690  0.00  0.00    +0.008 C 
ATOM     17  C   LIG    1       30.562 -20.944   8.742  0.00  0.00    +0.011 C 
ATOM     18  C   LIG    1       30.673 -18.285  10.324  0.00  0.00    +0.045 C 
ENDROOT
BRANCH  11  19
ATOM     19  O   LIG    1       24.038 -23.749   5.284  0.00  0.00    -0.507 OA
ATOM     20  H   LIG    1       23.327 -23.929   5.920  0.00  0.00    +0.292 HD
ENDBRANCH  11  19
BRANCH   1  21
ATOM     21  O   LIG    1       32.058 -17.468   8.514  0.00  0.00    -0.461 OA
BRANCH  21  22
ATOM     22  C   LIG    1       32.479 -16.422   9.271  0.00  0.00    +0.307 C 
ATOM     23  O   LIG    1       32.393 -15.245   8.963  0.00  0.00    -0.251 OA
BRANCH  22  24
ATOM     24  C   LIG    1       33.023 -16.928  10.585  0.00  0.00    +0.120 C 
BRANCH  24  25
ATOM     25  C   LIG    1       32.887 -15.927  11.733  0.00  0.00    +0.011 C 
BRANCH  25  27
ATOM     26  C   LIG    1       32.580 -15.801  14.240  0.00  0.00    +0.004 C 
ATOM     27  C   LIG    1       32.165 -16.502  12.953  0.00  0.00    -0.003 C 
ENDBRANCH  25  27
ENDBRANCH  24  25
ENDBRANCH  22  24
ENDBRANCH  21  22
ENDBRANCH   1  21
TORSDOF 6
ENDMDL
MODEL 3
REMARK VINA RESULT:      -6.9      2.176      8.267
REMARK  Name = *****
REMARK                            x       y       z     vdW  Elec       q    Type
REMARK                         _______ _______ _______ _____ _____    ______ ____
ROOT
ATOM      1  C   LIG    1       24.385 -22.809   7.312  0.00  0.00    +0.183 C 
ATOM      2  C   LIG    1       25.306 -21.565   7.440  0.00  0.00    +0.008 C 
ATOM      3  C   LIG    1       24.526 -20.291   7.069  0.00  0.00    +0.015 C 
ATOM      4  C   LIG    1       26.419 -21.929   6.431  0.00  0.00    +0.002 C 
ATOM      5  C   LIG    1       27.723 -21.118   6.516  0.00  0.00    +0.001 C 
ATOM      6  C   LIG    1       28.215 -20.876   7.965  0.00  0.00    +0.023 C 
ATOM      7  C   LIG    1       27.076 -20.462   8.919  0.00  0.00    +0.009 C 
ATOM      8  C   LIG    1       29.366 -19.876   8.030  0.00  0.00    -0.041 A 
ATOM      9  C   LIG    1       29.702 -19.049   6.938  0.00  0.00    -0.041 A 
ATOM     10  C   LIG    1       30.779 -18.153   7.046  0.00  0.00    +0.049 A 
ATOM     11  C   LIG    1       31.498 -18.066   8.232  0.00  0.00    +0.117 A 
ATOM     12  C   LIG    1       31.173 -18.866   9.316  0.00  0.00    +0.045 A 
ATOM     13  C   LIG    1       28.982 -19.145   5.619  0.00  0.00    +0.036 C 
ATOM     14  C   LIG    1       30.116 -19.770   9.215  0.00  0.00    +0.008 A 
ATOM     15  C   LIG    1       27.610 -19.793   5.749  0.00  0.00    +0.009 C 
ATOM     16  C   LIG    1       26.657 -23.434   6.677  0.00  0.00    +0.008 C 
ATOM     17  C   LIG    1       25.886 -21.422   8.863  0.00  0.00    +0.011 C 
ATOM     18  C   LIG    1       25.346 -23.997   7.232  0.00  0.00    +0.045 C 
ENDROOT
BRANCH  11  19
ATOM     19  O   LIG    1       32.544 -17.202   8.365  0.00  0.00    -0.507 OA
ATOM     20  H   LIG    1       33.290 -17.540   7.843  0.00  0.00    +0.292 HD
ENDBRANCH  11  19
BRANCH   1  21
ATOM     21  O   LIG    1       23.672 -22.696   6.061  0.00  0.00    -0.461 OA
BRANCH  21  22
ATOM     22  C   LIG    1       22.325 -22.864   6.094  0.00  0.00    +0.307 C 
ATOM     23  O   LIG    1       21.732 -23.703   6.751  0.00  0.00    -0.251 OA
BRANCH  22  24
ATOM     24  C   LIG    1       21.657 -21.818   5.234  0.00  0.00    +0.120 C 
BRANCH  24  25
ATOM     25  C   LIG    1       22.638 -20.844   4.580  0.00  0.00    +0.011 C 
BRANCH  25  27
ATOM     26  C   LIG    1       23.154 -18.448   3.955  0.00  0.00    +0.004 C 
ATOM     27  C   LIG    1       22.173 -19.388   4.643  0.00  0.00    -0.003 C 
ENDBRANCH  25  27
ENDBRANCH  24  25
ENDBRANCH  22  24
ENDBRANCH  21  22
ENDBRANCH   1  21
TORSDOF 6
ENDMDL
MODEL 4
REMARK VINA RESULT:      -6.7     10.046     12.002
REMARK  Name = *****
REMARK                            x       y       z     vdW  Elec       q    Type
REMARK                         _______ _______ _______ _____ _____    ______ ____
ROOT
ATOM      1  C   LIG    1       25.419 -29.325  12.346  0.00  0.00    +0.183 C 
ATOM      2  C   LIG    1       25.899 -29.472  10.877  0.00  0.00    +0.008 C 
ATOM      3  C   LIG    1       26.610 -28.184  10.423  0.00  0.00    +0.015 C 
ATOM      4  C   LIG    1       24.553 -29.726  10.161  0.00  0.00    +0.002 C 
ATOM      5  C   LIG    1       24.624 -30.282   8.728  0.00  0.00    +0.001 C 
ATOM      6  C   LIG    1       25.678 -31.403   8.546  0.00  0.00    +0.023 C 
ATOM      7  C   LIG    1       27.020 -31.077   9.232  0.00  0.00    +0.009 C 
ATOM      8  C   LIG    1       25.893 -31.766   7.079  0.00  0.00    -0.041 A 
ATOM      9  C   LIG    1       25.425 -30.950   6.029  0.00  0.00    -0.041 A 
ATOM     10  C   LIG    1       25.640 -31.335   4.696  0.00  0.00    +0.049 A 
ATOM     11  C   LIG    1       26.331 -32.507   4.411  0.00  0.00    +0.117 A 
ATOM     12  C   LIG    1       26.804 -33.315   5.433  0.00  0.00    +0.045 A 
ATOM     13  C   LIG    1       24.631 -29.697   6.291  0.00  0.00    +0.036 C 
ATOM     14  C   LIG    1       26.582 -32.950   6.761  0.00  0.00    +0.008 A 
ATOM     15  C   LIG    1       24.836 -29.160   7.701  0.00  0.00    +0.009 C 
ATOM     16  C   LIG    1       23.806 -30.680  11.116  0.00  0.00    +0.008 C 
ATOM     17  C   LIG    1       26.847 -30.677  10.698  0.00  0.00    +0.011 C 
ATOM     18  C   LIG    1       24.357 -30.412  12.519  0.00  0.00    +0.045 C 
ENDROOT
BRANCH  11  19
ATOM     19  O   LIG    1       26.557 -32.903   3.125  0.00  0.00    -0.507 OA
ATOM     20  H   LIG    1       27.501 -33.110   3.030  0.00  0.00    +0.292 HD
ENDBRANCH  11  19
BRANCH   1  21
ATOM     21  O   LIG    1       24.792 -28.030  12.471  0.00  0.00    -0.461 OA
BRANCH  21  22
ATOM     22  C   LIG    1       24.879 -27.408  13.675  0.00  0.00    +0.307 C 
ATOM     23  O   LIG    1       25.914 -27.057  14.217  0.00  0.00    -0.251 OA
BRANCH  22  24
ATOM     24  C   LIG    1       23.496 -27.162  14.226  0.00  0.00    +0.120 C 
BRANCH  24  25
ATOM     25  C   LIG    1       22.596 -26.354  13.289  0.00  0.00    +0.011 C 
BRANCH  25  27
ATOM     26  C   LIG    1       21.228 -28.376  12.630  0.00  0.00    +0.004 C 
ATOM     27  C   LIG    1       21.192 -26.944  13.146  0.00  0.00    -0.003 C 
ENDBRANCH  25  27
ENDBRANCH  24  25
ENDBRANCH  22  24
ENDBRANCH  21  22
ENDBRANCH   1  21
TORSDOF 6
ENDMDL
MODEL 5
REMARK VINA RESULT:      -6.3      2.779      8.377
REMARK  Name = *****
REMARK                            x       y       z     vdW  Elec       q    Type
REMARK                         _______ _______ _______ _____ _____    ______ ____
ROOT
ATOM      1  C   LIG    1       24.642 -22.716   7.265  0.00  0.00    +0.183 C 
ATOM      2  C   LIG    1       25.550 -21.457   7.215  0.00  0.00    +0.008 C 
ATOM      3  C   LIG    1       24.993 -20.446   6.194  0.00  0.00    +0.015 C 
ATOM      4  C   LIG    1       26.895 -22.091   6.793  0.00  0.00    +0.002 C 
ATOM      5  C   LIG    1       28.155 -21.228   6.975  0.00  0.00    +0.001 C 
ATOM      6  C   LIG    1       28.194 -20.456   8.318  0.00  0.00    +0.023 C 
ATOM      7  C   LIG    1       26.845 -19.796   8.666  0.00  0.00    +0.009 C 
ATOM      8  C   LIG    1       29.325 -19.434   8.369  0.00  0.00    -0.041 A 
ATOM      9  C   LIG    1       30.026 -19.033   7.212  0.00  0.00    -0.041 A 
ATOM     10  C   LIG    1       31.067 -18.097   7.315  0.00  0.00    +0.049 A 
ATOM     11  C   LIG    1       31.394 -17.550   8.550  0.00  0.00    +0.117 A 
ATOM     12  C   LIG    1       30.709 -17.927   9.694  0.00  0.00    +0.045 A 
ATOM     13  C   LIG    1       29.737 -19.636   5.862  0.00  0.00    +0.036 C 
ATOM     14  C   LIG    1       29.683 -18.869   9.606  0.00  0.00    +0.008 A 
ATOM     15  C   LIG    1       28.357 -20.273   5.790  0.00  0.00    +0.009 C 
ATOM     16  C   LIG    1       26.959 -23.392   7.619  0.00  0.00    +0.008 C 
ATOM     17  C   LIG    1       25.675 -20.781   8.596  0.00  0.00    +0.011 C 
ATOM     18  C   LIG    1       25.512 -23.796   7.912  0.00  0.00    +0.045 C 
ENDROOT
BRANCH  11  19
ATOM     19  O   LIG    1       32.398 -16.635   8.678  0.00  0.00    -0.507 OA
ATOM     20  H   LIG    1       32.171 -15.854   8.148  0.00  0.00    +0.292 HD
ENDBRANCH  11  19
BRANCH   1  21
ATOM     21  O   LIG    1       24.352 -23.098   5.903  0.00  0.00    -0.461 OA
BRANCH  21  22
ATOM     22  C   LIG    1       24.085 -24.408   5.667  0.00  0.00    +0.307 C 
ATOM     23  O   LIG    1       23.220 -25.066   6.220  0.00  0.00    -0.251 OA
BRANCH  22  24
ATOM     24  C   LIG    1       24.985 -24.924   4.570  0.00  0.00    +0.120 C 
BRANCH  24  25
ATOM     25  C   LIG    1       25.435 -26.371   4.774  0.00  0.00    +0.011 C 
BRANCH  25  27
ATOM     26  C   LIG    1       25.862 -27.398   7.046  0.00  0.00    +0.004 C 
ATOM     27  C   LIG    1       26.429 -26.535   5.926  0.00  0.00    -0.003 C 
ENDBRANCH  25  27
ENDBRANCH  24  25
ENDBRANCH  22  24
ENDBRANCH  21  22
ENDBRANCH   1  21
TORSDOF 6
ENDMDL
MODEL 6
REMARK VINA RESULT:      -6.3     10.997     13.558
REMARK  Name = *****
REMARK                            x       y       z     vdW  Elec       q    Type
REMARK                         _______ _______ _______ _____ _____    ______ ____
ROOT
ATOM      1  C   LIG    1       23.932 -31.976  11.712  0.00  0.00    +0.183 C 
ATOM      2  C   LIG    1       22.827 -30.885  11.726  0.00  0.00    +0.008 C 
ATOM      3  C   LIG    1       22.854 -30.091  10.406  0.00  0.00    +0.015 C 
ATOM      4  C   LIG    1       23.259 -30.058  12.959  0.00  0.00    +0.002 C 
ATOM      5  C   LIG    1       22.219 -29.082  13.536  0.00  0.00    +0.001 C 
ATOM      6  C   LIG    1       20.788 -29.671  13.618  0.00  0.00    +0.023 C 
ATOM      7  C   LIG    1       20.386 -30.439  12.343  0.00  0.00    +0.009 C 
ATOM      8  C   LIG    1       19.743 -28.615  13.966  0.00  0.00    -0.041 A 
ATOM      9  C   LIG    1       20.021 -27.234  13.895  0.00  0.00    -0.041 A 
ATOM     10  C   LIG    1       19.027 -26.303  14.237  0.00  0.00    +0.049 A 
ATOM     11  C   LIG    1       17.766 -26.739  14.624  0.00  0.00    +0.117 A 
ATOM     12  C   LIG    1       17.475 -28.093  14.690  0.00  0.00    +0.045 A 
ATOM     13  C   LIG    1       21.388 -26.718  13.528  0.00  0.00    +0.036 C 
ATOM     14  C   LIG    1       18.460 -29.027  14.367  0.00  0.00    +0.008 A 
ATOM     15  C   LIG    1       22.218 -27.748  12.776  0.00  0.00    +0.009 C 
ATOM     16  C   LIG    1       23.682 -31.128  13.986  0.00  0.00    +0.008 C 
ATOM     17  C   LIG    1       21.423 -31.489  11.939  0.00  0.00    +0.011 C 
ATOM     18  C   LIG    1       24.124 -32.354  13.182  0.00  0.00    +0.045 C 
ENDROOT
BRANCH  11  19
ATOM     19  O   LIG    1       16.780 -25.857  14.957  0.00  0.00    -0.507 OA
ATOM     20  H   LIG    1       16.929 -25.032  14.468  0.00  0.00    +0.292 HD
ENDBRANCH  11  19
BRANCH   1  21
ATOM     21  O   LIG    1       25.144 -31.362  11.222  0.00  0.00    -0.461 OA
BRANCH  21  22
ATOM     22  C   LIG    1       25.904 -32.084  10.359  0.00  0.00    +0.307 C 
ATOM     23  O   LIG    1       26.036 -33.296  10.374  0.00  0.00    -0.251 OA
BRANCH  22  24
ATOM     24  C   LIG    1       26.523 -31.166   9.332  0.00  0.00    +0.120 C 
BRANCH  24  25
ATOM     25  C   LIG    1       27.084 -29.872   9.924  0.00  0.00    +0.011 C 
BRANCH  25  27
ATOM     26  C   LIG    1       25.541 -28.937   8.152  0.00  0.00    +0.004 C 
ATOM     27  C   LIG    1       26.442 -28.613   9.337  0.00  0.00    -0.003 C 
ENDBRANCH  25  27
ENDBRANCH  24  25
ENDBRANCH  22  24
ENDBRANCH  21  22
ENDBRANCH   1  21
TORSDOF 6
ENDMDL
MODEL 7
REMARK VINA RESULT:      -6.2      9.984     11.566
REMARK  Name = *****
REMARK                            x       y       z     vdW  Elec       q    Type
REMARK                         _______ _______ _______ _____ _____    ______ ____
ROOT
ATOM      1  C   LIG    1       25.190 -29.514  12.356  0.00  0.00    +0.183 C 
ATOM      2  C   LIG    1       25.719 -29.626  10.900  0.00  0.00    +0.008 C 
ATOM      3  C   LIG    1       26.427 -28.320  10.494  0.00  0.00    +0.015 C 
ATOM      4  C   LIG    1       24.399 -29.883  10.136  0.00  0.00    +0.002 C 
ATOM      5  C   LIG    1       24.524 -30.410   8.697  0.00  0.00    +0.001 C 
ATOM      6  C   LIG    1       25.597 -31.514   8.526  0.00  0.00    +0.023 C 
ATOM      7  C   LIG    1       26.912 -31.185   9.261  0.00  0.00    +0.009 C 
ATOM      8  C   LIG    1       25.864 -31.845   7.061  0.00  0.00    -0.041 A 
ATOM      9  C   LIG    1       25.419 -31.014   6.012  0.00  0.00    -0.041 A 
ATOM     10  C   LIG    1       25.682 -31.371   4.679  0.00  0.00    +0.049 A 
ATOM     11  C   LIG    1       26.396 -32.528   4.394  0.00  0.00    +0.117 A 
ATOM     12  C   LIG    1       26.848 -33.350   5.415  0.00  0.00    +0.045 A 
ATOM     13  C   LIG    1       24.601 -29.777   6.273  0.00  0.00    +0.036 C 
ATOM     14  C   LIG    1       26.579 -33.013   6.742  0.00  0.00    +0.008 A 
ATOM     15  C   LIG    1       24.754 -29.266   7.699  0.00  0.00    +0.009 C 
ATOM     16  C   LIG    1       23.635 -30.865  11.048  0.00  0.00    +0.008 C 
ATOM     17  C   LIG    1       26.687 -30.815  10.729  0.00  0.00    +0.011 C 
ATOM     18  C   LIG    1       24.137 -30.618  12.473  0.00  0.00    +0.045 C 
ENDROOT
BRANCH  11  19
ATOM     19  O   LIG    1       26.669 -32.896   3.109  0.00  0.00    -0.507 OA
ATOM     20  H   LIG    1       25.828 -33.011   2.638  0.00  0.00    +0.292 HD
ENDBRANCH  11  19
BRANCH   1  21
ATOM     21  O   LIG    1       24.542 -28.230  12.486  0.00  0.00    -0.461 OA
BRANCH  21  22
ATOM     22  C   LIG    1       24.550 -27.648  13.712  0.00  0.00    +0.307 C 
ATOM     23  O   LIG    1       25.019 -28.139  14.726  0.00  0.00    -0.251 OA
BRANCH  22  24
ATOM     24  C   LIG    1       23.940 -26.270  13.629  0.00  0.00    +0.120 C 
BRANCH  24  25
ATOM     25  C   LIG    1       24.944 -25.139  13.857  0.00  0.00    +0.011 C 
BRANCH  25  27
ATOM     26  C   LIG    1       27.470 -25.169  13.992  0.00  0.00    +0.004 C 
ATOM     27  C   LIG    1       26.254 -25.333  13.089  0.00  0.00    -0.003 C 
ENDBRANCH  25  27
ENDBRANCH  24  25
ENDBRANCH  22  24
ENDBRANCH  21  22
ENDBRANCH   1  21
TORSDOF 6
ENDMDL
MODEL 8
REMARK VINA RESULT:      -6.1     11.613     13.449
REMARK  Name = *****
REMARK                            x       y       z     vdW  Elec       q    Type
REMARK                         _______ _______ _______ _____ _____    ______ ____
ROOT
ATOM      1  C   LIG    1       26.314 -31.446  10.070  0.00  0.00    +0.183 C 
ATOM      2  C   LIG    1       25.268 -31.094  11.162  0.00  0.00    +0.008 C 
ATOM      3  C   LIG    1       24.889 -32.359  11.955  0.00  0.00    +0.015 C 
ATOM      4  C   LIG    1       24.120 -30.539  10.289  0.00  0.00    +0.002 C 
ATOM      5  C   LIG    1       23.021 -29.743  11.015  0.00  0.00    +0.001 C 
ATOM      6  C   LIG    1       23.564 -28.755  12.078  0.00  0.00    +0.023 C 
ATOM      7  C   LIG    1       24.669 -29.375  12.958  0.00  0.00    +0.009 C 
ATOM      8  C   LIG    1       22.455 -28.160  12.940  0.00  0.00    -0.041 A 
ATOM      9  C   LIG    1       21.153 -28.701  12.963  0.00  0.00    -0.041 A 
ATOM     10  C   LIG    1       20.165 -28.107  13.766  0.00  0.00    +0.049 A 
ATOM     11  C   LIG    1       20.474 -27.004  14.552  0.00  0.00    +0.117 A 
ATOM     12  C   LIG    1       21.752 -26.467  14.546  0.00  0.00    +0.045 A 
ATOM     13  C   LIG    1       20.762 -29.865  12.091  0.00  0.00    +0.036 C 
ATOM     14  C   LIG    1       22.737 -27.039  13.740  0.00  0.00    +0.008 A 
ATOM     15  C   LIG    1       21.963 -30.674  11.624  0.00  0.00    +0.009 C 
ATOM     16  C   LIG    1       24.847 -29.688   9.228  0.00  0.00    +0.008 C 
ATOM     17  C   LIG    1       25.788 -30.012  12.132  0.00  0.00    +0.011 C 
ATOM     18  C   LIG    1       26.252 -30.279   9.083  0.00  0.00    +0.045 C 
ENDROOT
BRANCH  11  19
ATOM     19  O   LIG    1       19.535 -26.411  15.344  0.00  0.00    -0.507 OA
ATOM     20  H   LIG    1       18.818 -27.048  15.499  0.00  0.00    +0.292 HD
ENDBRANCH  11  19
BRANCH   1  21
ATOM     21  O   LIG    1       25.865 -32.648   9.408  0.00  0.00    -0.461 OA
BRANCH  21  22
ATOM     22  C   LIG    1       26.787 -33.353   8.702  0.00  0.00    +0.307 C 
ATOM     23  O   LIG    1       27.816 -33.825   9.156  0.00  0.00    -0.251 OA
BRANCH  22  24
ATOM     24  C   LIG    1       26.323 -33.517   7.275  0.00  0.00    +0.120 C 
BRANCH  24  25
ATOM     25  C   LIG    1       26.984 -32.543   6.299  0.00  0.00    +0.011 C 
BRANCH  25  27
ATOM     26  C   LIG    1       24.568 -31.819   6.112  0.00  0.00    +0.004 C 
ATOM     27  C   LIG    1       25.980 -31.649   5.567  0.00  0.00    -0.003 C 
ENDBRANCH  25  27
ENDBRANCH  24  25
ENDBRANCH  22  24
ENDBRANCH  21  22
ENDBRANCH   1  21
TORSDOF 6
ENDMDL
MODEL 9
REMARK VINA RESULT:      -6.1     10.420     13.975
REMARK  Name = *****
REMARK                            x       y       z     vdW  Elec       q    Type
REMARK                         _______ _______ _______ _____ _____    ______ ____
ROOT
ATOM      1  C   LIG    1       24.935 -31.746   6.451  0.00  0.00    +0.183 C 
ATOM      2  C   LIG    1       25.080 -31.540   7.983  0.00  0.00    +0.008 C 
ATOM      3  C   LIG    1       24.619 -32.805   8.732  0.00  0.00    +0.015 C 
ATOM      4  C   LIG    1       24.157 -30.319   8.196  0.00  0.00    +0.002 C 
ATOM      5  C   LIG    1       24.298 -29.568   9.531  0.00  0.00    +0.001 C 
ATOM      6  C   LIG    1       25.767 -29.357   9.976  0.00  0.00    +0.023 C 
ATOM      7  C   LIG    1       26.632 -30.620   9.795  0.00  0.00    +0.009 C 
ATOM      8  C   LIG    1       25.872 -28.828  11.404  0.00  0.00    -0.041 A 
ATOM      9  C   LIG    1       24.778 -28.848  12.293  0.00  0.00    -0.041 A 
ATOM     10  C   LIG    1       24.925 -28.339  13.594  0.00  0.00    +0.049 A 
ATOM     11  C   LIG    1       26.150 -27.836  14.012  0.00  0.00    +0.117 A 
ATOM     12  C   LIG    1       27.238 -27.817  13.152  0.00  0.00    +0.045 A 
ATOM     13  C   LIG    1       23.419 -29.340  11.867  0.00  0.00    +0.036 C 
ATOM     14  C   LIG    1       27.099 -28.306  11.853  0.00  0.00    +0.008 A 
ATOM     15  C   LIG    1       23.482 -30.243  10.643  0.00  0.00    +0.009 C 
ATOM     16  C   LIG    1       24.467 -29.412   6.987  0.00  0.00    +0.008 C 
ATOM     17  C   LIG    1       26.532 -31.202   8.384  0.00  0.00    +0.011 C 
ATOM     18  C   LIG    1       24.955 -30.333   5.865  0.00  0.00    +0.045 C 
ENDROOT
BRANCH  11  19
ATOM     19  O   LIG    1       26.322 -27.339  15.270  0.00  0.00    -0.507 OA
ATOM     20  H   LIG    1       26.534 -28.077  15.864  0.00  0.00    +0.292 HD
ENDBRANCH  11  19
BRANCH   1  21
ATOM     21  O   LIG    1       23.638 -32.336   6.213  0.00  0.00    -0.461 OA
BRANCH  21  22
ATOM     22  C   LIG    1       23.567 -33.337   5.298  0.00  0.00    +0.307 C 
ATOM     23  O   LIG    1       22.538 -33.824   4.861  0.00  0.00    -0.251 OA
BRANCH  22  24
ATOM     24  C   LIG    1       24.957 -33.725   4.854  0.00  0.00    +0.120 C 
BRANCH  24  25
ATOM     25  C   LIG    1       25.125 -33.776   3.335  0.00  0.00    +0.011 C 
BRANCH  25  27
ATOM     26  C   LIG    1       27.399 -33.211   2.382  0.00  0.00    +0.004 C 
ATOM     27  C   LIG    1       26.034 -32.672   2.792  0.00  0.00    -0.003 C 
ENDBRANCH  25  27
ENDBRANCH  24  25
ENDBRANCH  22  24
ENDBRANCH  21  22
ENDBRANCH   1  21
TORSDOF 6
ENDMDL
