MODEL 1
REMARK VINA RESULT:      26.1      0.000      0.000
REMARK  Name = *****
REMARK                            x       y       z     vdW  Elec       q    Type
REMARK                         _______ _______ _______ _____ _____    ______ ____
ROOT
ATOM      1  C   LIG    1       22.618 -14.765   3.998  0.00  0.00    +0.011 C 
ATOM      2  C   LIG    1       23.306 -15.018   5.122  0.00  0.00    -0.036 C 
ATOM      3  C   LIG    1       24.730 -14.492   5.380  0.00  0.00    +0.213 C 
ATOM      4  C   LIG    1       25.760 -14.084   4.276  0.00  0.00    +0.126 C 
ATOM      5  C   LIG    1       26.189 -14.954   3.018  0.00  0.00    +0.185 C 
ATOM      6  C   LIG    1       27.697 -14.558   2.823  0.00  0.00    +0.064 C 
ATOM      7  C   LIG    1       27.884 -13.255   3.585  0.00  0.00    +0.031 C 
ATOM      8  C   LIG    1       29.351 -12.870   3.675  0.00  0.00    +0.011 C 
ATOM      9  C   LIG    1       26.112 -16.509   3.155  0.00  0.00    +0.203 C 
ATOM     10  O   LIG    1       27.091 -17.189   3.484  0.00  0.00    -0.288 OA
ATOM     11  C   LIG    1       24.801 -17.208   3.012  0.00  0.00    -0.008 C 
ATOM     12  C   LIG    1       23.936 -16.999   1.812  0.00  0.00    +0.047 C 
ATOM     13  C   LIG    1       24.494 -18.012   4.050  0.00  0.00    -0.016 C 
ATOM     14  C   LIG    1       23.142 -18.460   4.390  0.00  0.00    +0.022 C 
ATOM     15  C   LIG    1       22.682 -19.538   5.339  0.00  0.00    -0.025 C 
ATOM     16  C   LIG    1       21.285 -20.077   5.149  0.00  0.00    +0.012 C 
ATOM     17  C   LIG    1       23.679 -20.585   5.778  0.00  0.00    +0.012 C 
ATOM     18  C   LIG    1       22.864 -18.118   5.845  0.00  0.00    +0.003 C 
ATOM     19  C   LIG    1       21.864 -17.030   6.071  0.00  0.00    +0.009 C 
ATOM     20  C   LIG    1       27.105 -13.549   4.876  0.00  0.00    +0.191 C 
ATOM     21  C   LIG    1       22.586 -15.674   6.310  0.00  0.00    +0.034 C 
ENDROOT
BRANCH   3  22
ATOM     22  O   LIG    1       24.536 -13.332   6.278  0.00  0.00    -0.457 OA
BRANCH  22  23
ATOM     23  C   LIG    1       24.160 -12.123   5.745  0.00  0.00    +0.304 C 
ATOM     24  O   LIG    1       24.691 -11.549   4.798  0.00  0.00    -0.251 OA
ATOM     25  C   LIG    1       23.042 -11.511   6.520  0.00  0.00    +0.136 C 
ENDBRANCH  22  23
ENDBRANCH   3  22
BRANCH   5  26
ATOM     26  O   LIG    1       25.407 -14.376   1.937  0.00  0.00    -0.450 OA
BRANCH  26  27
ATOM     27  C   LIG    1       25.065 -13.063   1.931  0.00  0.00    +0.305 C 
ATOM     28  O   LIG    1       25.840 -12.123   1.853  0.00  0.00    -0.251 OA
ATOM     29  C   LIG    1       23.574 -12.931   2.003  0.00  0.00    +0.136 C 
ENDBRANCH  26  27
ENDBRANCH   5  26
BRANCH  20  30
ATOM     30  O   LIG    1       27.756 -14.533   5.711  0.00  0.00    -0.457 OA
BRANCH  30  31
ATOM     31  C   LIG    1       28.659 -15.321   5.057  0.00  0.00    +0.340 C 
ATOM     32  O   LIG    1       29.399 -14.930   4.160  0.00  0.00    -0.245 OA
BRANCH  31  33
ATOM     33  C   LIG    1       28.727 -16.723   5.549  0.00  0.00    +0.059 A 
ATOM     34  C   LIG    1       28.089 -17.710   4.774  0.00  0.00    +0.015 A 
ATOM     35  C   LIG    1       28.164 -19.060   5.122  0.00  0.00    +0.001 A 
ATOM     36  C   LIG    1       28.868 -19.439   6.260  0.00  0.00    +0.000 A 
ATOM     37  C   LIG    1       29.474 -18.464   7.061  0.00  0.00    +0.001 A 
ATOM     38  C   LIG    1       29.402 -17.107   6.712  0.00  0.00    +0.015 A 
ENDBRANCH  31  33
ENDBRANCH  30  31
ENDBRANCH  20  30
TORSDOF 7
ENDMDL
