MODEL 1
REMARK VINA RESULT:      -9.6      0.000      0.000
REMARK  Name = *****
REMARK                            x       y       z     vdW  Elec       q    Type
REMARK                         _______ _______ _______ _____ _____    ______ ____
ROOT
ATOM      1  C   LIG    1       25.988 -20.726   6.662  0.00  0.00    +0.044 C 
ATOM      2  C   LIG    1       25.316 -21.960   6.038  0.00  0.00    +0.006 C 
ATOM      3  C   LIG    1       23.928 -21.991   6.679  0.00  0.00    -0.001 C 
ATOM      4  C   LIG    1       23.489 -23.448   6.639  0.00  0.00    +0.034 C 
ATOM      5  C   LIG    1       24.769 -24.236   6.568  0.00  0.00    -0.073 C 
ATOM      6  C   LIG    1       24.798 -25.579   6.646  0.00  0.00    -0.027 C 
ATOM      7  C   LIG    1       24.090 -21.419   8.089  0.00  0.00    +0.036 C 
ATOM      8  C   LIG    1       25.947 -23.326   6.336  0.00  0.00    +0.035 C 
ATOM      9  C   LIG    1       25.400 -20.626   8.093  0.00  0.00    +0.122 C 
ENDROOT
BRANCH   1  11
ATOM     10  C   LIG    1       28.190 -19.550   6.343  0.00  0.00    +0.000 C 
ATOM     11  C   LIG    1       27.494 -20.680   6.557  0.00  0.00    -0.022 C 
BRANCH  10  12
ATOM     12  C   LIG    1       29.690 -19.479   6.232  0.00  0.00    +0.141 C 
BRANCH  12  13
ATOM     13  C   LIG    1       30.394 -19.315   7.599  0.00  0.00    +0.030 C 
ATOM     14  C   LIG    1       30.591 -20.667   8.306  0.00  0.00    +0.011 C 
BRANCH  13  15
ATOM     15  C   LIG    1       29.612 -18.334   8.498  0.00  0.00    +0.095 C 
BRANCH  15  18
ATOM     16  C   LIG    1       31.603 -17.038  11.883  0.00  0.00    +0.106 C 
ATOM     17  C   LIG    1       30.976 -17.565  10.663  0.00  0.00    -0.106 C 
ATOM     18  C   LIG    1       30.407 -17.945   9.689  0.00  0.00    -0.102 C 
ENDBRANCH  15  18
ENDBRANCH  13  15
ENDBRANCH  12  13
BRANCH  12  19
ATOM     19  O   LIG    1       30.001 -18.372   5.389  0.00  0.00    -0.388 OA
ATOM     20  H   LIG    1       30.953 -18.201   5.490  0.00  0.00    +0.210 HD
ENDBRANCH  12  19
ENDBRANCH  10  12
ENDBRANCH   1  11
BRANCH   9  21
ATOM     21  O   LIG    1       26.260 -21.141   9.106  0.00  0.00    -0.391 OA
ATOM     22  H   LIG    1       26.467 -20.420   9.725  0.00  0.00    +0.210 HD
ENDBRANCH   9  21
BRANCH   6  23
ATOM     23  C   LIG    1       26.016 -26.429   6.416  0.00  0.00    +0.028 C 
BRANCH  23  24
ATOM     24  C   LIG    1       25.801 -27.480   5.316  0.00  0.00    +0.015 C 
BRANCH  24  25
ATOM     25  C   LIG    1       24.487 -28.235   5.492  0.00  0.00    +0.121 C 
BRANCH  25  26
ATOM     26  C   LIG    1       24.719 -29.712   5.679  0.00  0.00    +0.307 C 
ATOM     27  O   LIG    1       25.678 -30.326   5.231  0.00  0.00    -0.251 OA
BRANCH  26  28
ATOM     28  O   LIG    1       23.706 -30.259   6.405  0.00  0.00    -0.457 OA
BRANCH  28  29
ATOM     29  C   LIG    1       24.152 -31.105   7.463  0.00  0.00    +0.311 C 
BRANCH  29  30
ATOM     30  C   LIG    1       23.753 -30.577   8.846  0.00  0.00    +0.200 C 
ATOM     31  O   LIG    1       22.620 -30.725   9.305  0.00  0.00    -0.288 OA
BRANCH  30  32
ATOM     32  C   LIG    1       24.760 -29.801   9.626  0.00  0.00    +0.021 A 
ATOM     33  C   LIG    1       24.637 -29.706  11.020  0.00  0.00    +0.011 A 
ATOM     34  C   LIG    1       25.570 -28.964  11.754  0.00  0.00    +0.001 A 
ATOM     35  C   LIG    1       26.631 -28.334  11.104  0.00  0.00    +0.000 A 
ATOM     36  C   LIG    1       26.770 -28.450   9.725  0.00  0.00    +0.001 A 
ATOM     37  C   LIG    1       25.842 -29.184   8.989  0.00  0.00    +0.011 A 
ENDBRANCH  30  32
ENDBRANCH  29  30
ENDBRANCH  28  29
ENDBRANCH  26  28
ENDBRANCH  25  26
ENDBRANCH  24  25
ENDBRANCH  23  24
ENDBRANCH   6  23
TORSDOF 15
ENDMDL
MODEL 2
REMARK VINA RESULT:      -9.3      3.626      9.469
REMARK  Name = *****
REMARK                            x       y       z     vdW  Elec       q    Type
REMARK                         _______ _______ _______ _____ _____    ______ ____
ROOT
ATOM      1  C   LIG    1       25.207 -30.275   9.694  0.00  0.00    +0.044 C 
ATOM      2  C   LIG    1       24.535 -29.614   8.480  0.00  0.00    +0.006 C 
ATOM      3  C   LIG    1       24.223 -30.783   7.545  0.00  0.00    -0.001 C 
ATOM      4  C   LIG    1       24.188 -30.190   6.143  0.00  0.00    +0.034 C 
ATOM      5  C   LIG    1       25.028 -28.943   6.229  0.00  0.00    -0.073 C 
ATOM      6  C   LIG    1       25.341 -28.206   5.149  0.00  0.00    -0.027 C 
ATOM      7  C   LIG    1       25.330 -31.818   7.764  0.00  0.00    +0.036 C 
ATOM      8  C   LIG    1       25.382 -28.633   7.661  0.00  0.00    +0.035 C 
ATOM      9  C   LIG    1       25.968 -31.497   9.119  0.00  0.00    +0.122 C 
ENDROOT
BRANCH   1  11
ATOM     10  C   LIG    1       25.584 -28.926  11.786  0.00  0.00    +0.000 C 
ATOM     11  C   LIG    1       26.006 -29.352  10.582  0.00  0.00    -0.022 C 
BRANCH  10  12
ATOM     12  C   LIG    1       26.361 -28.004  12.687  0.00  0.00    +0.141 C 
BRANCH  12  13
ATOM     13  C   LIG    1       25.645 -26.656  12.940  0.00  0.00    +0.030 C 
ATOM     14  C   LIG    1       26.646 -25.506  13.140  0.00  0.00    +0.011 C 
BRANCH  13  15
ATOM     15  C   LIG    1       24.690 -26.769  14.148  0.00  0.00    +0.095 C 
BRANCH  15  18
ATOM     16  C   LIG    1       20.733 -26.755  12.944  0.00  0.00    +0.106 C 
ATOM     17  C   LIG    1       22.134 -26.654  13.376  0.00  0.00    -0.106 C 
ATOM     18  C   LIG    1       23.272 -26.651  13.726  0.00  0.00    -0.102 C 
ENDBRANCH  15  18
ENDBRANCH  13  15
ENDBRANCH  12  13
BRANCH  12  19
ATOM     19  O   LIG    1       27.626 -27.773  12.069  0.00  0.00    -0.388 OA
ATOM     20  H   LIG    1       28.302 -27.914  12.755  0.00  0.00    +0.210 HD
ENDBRANCH  12  19
ENDBRANCH  10  12
ENDBRANCH   1  11
BRANCH   9  21
ATOM     21  O   LIG    1       27.364 -31.274   8.941  0.00  0.00    -0.391 OA
ATOM     22  H   LIG    1       27.480 -30.449   8.438  0.00  0.00    +0.210 HD
ENDBRANCH   9  21
BRANCH   6  23
ATOM     23  C   LIG    1       26.029 -26.870   5.188  0.00  0.00    +0.028 C 
BRANCH  23  24
ATOM     24  C   LIG    1       25.053 -25.700   4.992  0.00  0.00    +0.015 C 
BRANCH  24  25
ATOM     25  C   LIG    1       24.004 -25.635   6.099  0.00  0.00    +0.121 C 
BRANCH  25  26
ATOM     26  C   LIG    1       23.611 -24.213   6.406  0.00  0.00    +0.307 C 
ATOM     27  O   LIG    1       22.520 -23.873   6.840  0.00  0.00    -0.251 OA
BRANCH  26  28
ATOM     28  O   LIG    1       24.640 -23.369   6.118  0.00  0.00    -0.457 OA
BRANCH  28  29
ATOM     29  C   LIG    1       25.213 -22.752   7.269  0.00  0.00    +0.311 C 
BRANCH  29  30
ATOM     30  C   LIG    1       24.900 -21.254   7.349  0.00  0.00    +0.200 C 
ATOM     31  O   LIG    1       25.007 -20.615   8.397  0.00  0.00    -0.288 OA
BRANCH  30  32
ATOM     32  C   LIG    1       24.388 -20.570   6.126  0.00  0.00    +0.021 A 
ATOM     33  C   LIG    1       25.264 -20.285   5.069  0.00  0.00    +0.011 A 
ATOM     34  C   LIG    1       24.792 -19.627   3.928  0.00  0.00    +0.001 A 
ATOM     35  C   LIG    1       23.446 -19.271   3.832  0.00  0.00    +0.000 A 
ATOM     36  C   LIG    1       22.570 -19.577   4.868  0.00  0.00    +0.001 A 
ATOM     37  C   LIG    1       23.037 -20.228   6.008  0.00  0.00    +0.011 A 
ENDBRANCH  30  32
ENDBRANCH  29  30
ENDBRANCH  28  29
ENDBRANCH  26  28
ENDBRANCH  25  26
ENDBRANCH  24  25
ENDBRANCH  23  24
ENDBRANCH   6  23
TORSDOF 15
ENDMDL
MODEL 3
REMARK VINA RESULT:      -9.1      1.933     10.253
REMARK  Name = *****
REMARK                            x       y       z     vdW  Elec       q    Type
REMARK                         _______ _______ _______ _____ _____    ______ ____
ROOT
ATOM      1  C   LIG    1       25.143 -27.353   6.373  0.00  0.00    +0.044 C 
ATOM      2  C   LIG    1       24.522 -25.952   6.502  0.00  0.00    +0.006 C 
ATOM      3  C   LIG    1       24.424 -25.455   5.059  0.00  0.00    -0.001 C 
ATOM      4  C   LIG    1       24.459 -23.935   5.144  0.00  0.00    +0.034 C 
ATOM      5  C   LIG    1       25.152 -23.637   6.447  0.00  0.00    -0.073 C 
ATOM      6  C   LIG    1       25.486 -22.388   6.819  0.00  0.00    -0.027 C 
ATOM      7  C   LIG    1       25.608 -26.072   4.309  0.00  0.00    +0.036 C 
ATOM      8  C   LIG    1       25.335 -24.894   7.257  0.00  0.00    +0.035 C 
ATOM      9  C   LIG    1       26.079 -27.268   5.140  0.00  0.00    +0.122 C 
ENDROOT
BRANCH   1  11
ATOM     10  C   LIG    1       25.434 -29.116   8.145  0.00  0.00    +0.000 C 
ATOM     11  C   LIG    1       25.753 -27.915   7.635  0.00  0.00    -0.022 C 
BRANCH  10  12
ATOM     12  C   LIG    1       26.027 -29.696   9.401  0.00  0.00    +0.141 C 
BRANCH  12  13
ATOM     13  C   LIG    1       25.918 -28.748  10.619  0.00  0.00    +0.030 C 
ATOM     14  C   LIG    1       27.296 -28.445  11.232  0.00  0.00    +0.011 C 
BRANCH  13  15
ATOM     15  C   LIG    1       24.962 -29.334  11.679  0.00  0.00    +0.095 C 
BRANCH  15  18
ATOM     16  C   LIG    1       23.176 -26.427  14.016  0.00  0.00    +0.106 C 
ATOM     17  C   LIG    1       23.902 -27.434  13.231  0.00  0.00    -0.106 C 
ATOM     18  C   LIG    1       24.423 -28.272  12.564  0.00  0.00    -0.102 C 
ENDBRANCH  15  18
ENDBRANCH  13  15
ENDBRANCH  12  13
BRANCH  12  19
ATOM     19  O   LIG    1       27.397 -29.984   9.131  0.00  0.00    -0.388 OA
ATOM     20  H   LIG    1       27.682 -29.364   8.437  0.00  0.00    +0.210 HD
ENDBRANCH  12  19
ENDBRANCH  10  12
ENDBRANCH   1  11
BRANCH   9  21
ATOM     21  O   LIG    1       27.454 -27.100   5.472  0.00  0.00    -0.391 OA
ATOM     22  H   LIG    1       27.737 -26.221   5.165  0.00  0.00    +0.210 HD
ENDBRANCH   9  21
BRANCH   6  23
ATOM     23  C   LIG    1       26.024 -22.007   8.170  0.00  0.00    +0.028 C 
BRANCH  23  24
ATOM     24  C   LIG    1       26.692 -20.624   8.169  0.00  0.00    +0.015 C 
BRANCH  24  25
ATOM     25  C   LIG    1       28.113 -20.672   7.614  0.00  0.00    +0.121 C 
BRANCH  25  26
ATOM     26  C   LIG    1       28.196 -20.037   6.251  0.00  0.00    +0.307 C 
ATOM     27  O   LIG    1       27.243 -19.875   5.502  0.00  0.00    -0.251 OA
BRANCH  26  28
ATOM     28  O   LIG    1       29.482 -19.684   5.975  0.00  0.00    -0.457 OA
BRANCH  28  29
ATOM     29  C   LIG    1       29.903 -18.494   6.638  0.00  0.00    +0.311 C 
BRANCH  29  30
ATOM     30  C   LIG    1       31.108 -18.728   7.556  0.00  0.00    +0.200 C 
ATOM     31  O   LIG    1       31.963 -19.582   7.314  0.00  0.00    -0.288 OA
BRANCH  30  32
ATOM     32  C   LIG    1       31.205 -17.936   8.816  0.00  0.00    +0.021 A 
ATOM     33  C   LIG    1       32.325 -17.124   9.043  0.00  0.00    +0.011 A 
ATOM     34  C   LIG    1       32.429 -16.392  10.231  0.00  0.00    +0.001 A 
ATOM     35  C   LIG    1       31.411 -16.456  11.184  0.00  0.00    +0.000 A 
ATOM     36  C   LIG    1       30.287 -17.240  10.948  0.00  0.00    +0.001 A 
ATOM     37  C   LIG    1       30.181 -17.973   9.768  0.00  0.00    +0.011 A 
ENDBRANCH  30  32
ENDBRANCH  29  30
ENDBRANCH  28  29
ENDBRANCH  26  28
ENDBRANCH  25  26
ENDBRANCH  24  25
ENDBRANCH  23  24
ENDBRANCH   6  23
TORSDOF 15
ENDMDL
MODEL 4
REMARK VINA RESULT:      -9.1      1.616      2.290
REMARK  Name = *****
REMARK                            x       y       z     vdW  Elec       q    Type
REMARK                         _______ _______ _______ _____ _____    ______ ____
ROOT
ATOM      1  C   LIG    1       25.522 -20.977   6.718  0.00  0.00    +0.044 C 
ATOM      2  C   LIG    1       24.912 -22.177   5.974  0.00  0.00    +0.006 C 
ATOM      3  C   LIG    1       23.453 -22.196   6.432  0.00  0.00    -0.001 C 
ATOM      4  C   LIG    1       22.997 -23.642   6.290  0.00  0.00    +0.034 C 
ATOM      5  C   LIG    1       24.261 -24.455   6.356  0.00  0.00    -0.073 C 
ATOM      6  C   LIG    1       24.256 -25.799   6.393  0.00  0.00    -0.027 C 
ATOM      7  C   LIG    1       23.446 -21.671   7.870  0.00  0.00    +0.036 C 
ATOM      8  C   LIG    1       25.475 -23.564   6.305  0.00  0.00    +0.035 C 
ATOM      9  C   LIG    1       24.759 -20.907   8.065  0.00  0.00    +0.122 C 
ENDROOT
BRANCH   1  11
ATOM     10  C   LIG    1       27.717 -20.184   7.660  0.00  0.00    +0.000 C 
ATOM     11  C   LIG    1       27.029 -20.960   6.805  0.00  0.00    -0.022 C 
BRANCH  10  12
ATOM     12  C   LIG    1       29.218 -20.148   7.763  0.00  0.00    +0.141 C 
BRANCH  12  13
ATOM     13  C   LIG    1       29.819 -18.768   7.406  0.00  0.00    +0.030 C 
ATOM     14  C   LIG    1       29.776 -18.501   5.892  0.00  0.00    +0.011 C 
BRANCH  13  15
ATOM     15  C   LIG    1       31.261 -18.649   7.944  0.00  0.00    +0.095 C 
BRANCH  15  18
ATOM     16  C   LIG    1       31.363 -16.701  11.591  0.00  0.00    +0.106 C 
ATOM     17  C   LIG    1       31.330 -17.298  10.249  0.00  0.00    -0.106 C 
ATOM     18  C   LIG    1       31.304 -17.852   9.196  0.00  0.00    -0.102 C 
ENDBRANCH  15  18
ENDBRANCH  13  15
ENDBRANCH  12  13
BRANCH  12  19
ATOM     19  O   LIG    1       29.728 -21.144   6.879  0.00  0.00    -0.388 OA
ATOM     20  H   LIG    1       30.594 -21.414   7.231  0.00  0.00    +0.210 HD
ENDBRANCH  12  19
ENDBRANCH  10  12
ENDBRANCH   1  11
BRANCH   9  21
ATOM     21  O   LIG    1       25.473 -21.471   9.161  0.00  0.00    -0.391 OA
ATOM     22  H   LIG    1       26.164 -20.842   9.431  0.00  0.00    +0.210 HD
ENDBRANCH   9  21
BRANCH   6  23
ATOM     23  C   LIG    1       25.478 -26.669   6.291  0.00  0.00    +0.028 C 
BRANCH  23  24
ATOM     24  C   LIG    1       25.525 -27.748   7.383  0.00  0.00    +0.015 C 
BRANCH  24  25
ATOM     25  C   LIG    1       24.879 -29.054   6.930  0.00  0.00    +0.121 C 
BRANCH  25  26
ATOM     26  C   LIG    1       24.541 -29.939   8.102  0.00  0.00    +0.307 C 
ATOM     27  O   LIG    1       23.437 -30.004   8.626  0.00  0.00    -0.251 OA
BRANCH  26  28
ATOM     28  O   LIG    1       25.640 -30.640   8.494  0.00  0.00    -0.457 OA
BRANCH  28  29
ATOM     29  C   LIG    1       25.713 -30.848   9.903  0.00  0.00    +0.311 C 
BRANCH  29  30
ATOM     30  C   LIG    1       26.739 -29.931  10.580  0.00  0.00    +0.200 C 
ATOM     31  O   LIG    1       27.953 -30.093  10.447  0.00  0.00    -0.288 OA
BRANCH  30  32
ATOM     32  C   LIG    1       26.241 -28.852  11.479  0.00  0.00    +0.021 A 
ATOM     33  C   LIG    1       27.026 -27.710  11.698  0.00  0.00    +0.011 A 
ATOM     34  C   LIG    1       26.570 -26.703  12.555  0.00  0.00    +0.001 A 
ATOM     35  C   LIG    1       25.329 -26.823  13.180  0.00  0.00    +0.000 A 
ATOM     36  C   LIG    1       24.537 -27.941  12.943  0.00  0.00    +0.001 A 
ATOM     37  C   LIG    1       24.988 -28.949  12.093  0.00  0.00    +0.011 A 
ENDBRANCH  30  32
ENDBRANCH  29  30
ENDBRANCH  28  29
ENDBRANCH  26  28
ENDBRANCH  25  26
ENDBRANCH  24  25
ENDBRANCH  23  24
ENDBRANCH   6  23
TORSDOF 15
ENDMDL
MODEL 5
REMARK VINA RESULT:      -8.9      3.791     10.215
REMARK  Name = *****
REMARK                            x       y       z     vdW  Elec       q    Type
REMARK                         _______ _______ _______ _____ _____    ______ ____
ROOT
ATOM      1  C   LIG    1       25.073 -30.744   9.788  0.00  0.00    +0.044 C 
ATOM      2  C   LIG    1       24.451 -30.610   8.389  0.00  0.00    +0.006 C 
ATOM      3  C   LIG    1       25.267 -31.572   7.525  0.00  0.00    -0.001 C 
ATOM      4  C   LIG    1       25.174 -31.030   6.105  0.00  0.00    +0.034 C 
ATOM      5  C   LIG    1       24.871 -29.565   6.269  0.00  0.00    -0.073 C 
ATOM      6  C   LIG    1       24.840 -28.712   5.230  0.00  0.00    -0.027 C 
ATOM      7  C   LIG    1       26.683 -31.578   8.106  0.00  0.00    +0.036 C 
ATOM      8  C   LIG    1       24.555 -29.241   7.706  0.00  0.00    +0.035 C 
ATOM      9  C   LIG    1       26.573 -31.043   9.536  0.00  0.00    +0.122 C 
ENDROOT
BRANCH   1  11
ATOM     10  C   LIG    1       24.926 -29.714  12.080  0.00  0.00    +0.000 C 
ATOM     11  C   LIG    1       24.771 -29.619  10.748  0.00  0.00    -0.022 C 
BRANCH  10  12
ATOM     12  C   LIG    1       24.629 -28.608  13.056  0.00  0.00    +0.141 C 
BRANCH  12  13
ATOM     13  C   LIG    1       23.236 -27.969  12.846  0.00  0.00    +0.030 C 
ATOM     14  C   LIG    1       23.139 -26.581  13.503  0.00  0.00    +0.011 C 
BRANCH  13  15
ATOM     15  C   LIG    1       22.125 -28.903  13.371  0.00  0.00    +0.095 C 
BRANCH  15  18
ATOM     16  C   LIG    1       20.107 -31.018  10.445  0.00  0.00    +0.106 C 
ATOM     17  C   LIG    1       20.833 -30.187  11.415  0.00  0.00    -0.106 C 
ATOM     18  C   LIG    1       21.412 -29.571  12.254  0.00  0.00    -0.102 C 
ENDBRANCH  15  18
ENDBRANCH  13  15
ENDBRANCH  12  13
BRANCH  12  19
ATOM     19  O   LIG    1       25.645 -27.620  12.901  0.00  0.00    -0.388 OA
ATOM     20  H   LIG    1       25.851 -27.576  11.951  0.00  0.00    +0.210 HD
ENDBRANCH  12  19
ENDBRANCH  10  12
ENDBRANCH   1  11
BRANCH   9  21
ATOM     21  O   LIG    1       27.419 -29.906   9.681  0.00  0.00    -0.391 OA
ATOM     22  H   LIG    1       27.263 -29.519  10.560  0.00  0.00    +0.210 HD
ENDBRANCH   9  21
BRANCH   6  23
ATOM     23  C   LIG    1       24.383 -27.281   5.303  0.00  0.00    +0.028 C 
BRANCH  23  24
ATOM     24  C   LIG    1       25.504 -26.288   4.964  0.00  0.00    +0.015 C 
BRANCH  24  25
ATOM     25  C   LIG    1       25.025 -24.840   5.020  0.00  0.00    +0.121 C 
BRANCH  25  26
ATOM     26  C   LIG    1       24.460 -24.496   6.374  0.00  0.00    +0.307 C 
ATOM     27  O   LIG    1       23.274 -24.552   6.665  0.00  0.00    -0.251 OA
BRANCH  26  28
ATOM     28  O   LIG    1       25.459 -24.107   7.214  0.00  0.00    -0.457 OA
BRANCH  28  29
ATOM     29  C   LIG    1       25.946 -22.792   6.952  0.00  0.00    +0.311 C 
BRANCH  29  30
ATOM     30  C   LIG    1       24.911 -21.708   7.272  0.00  0.00    +0.200 C 
ATOM     31  O   LIG    1       24.460 -21.543   8.407  0.00  0.00    -0.288 OA
BRANCH  30  32
ATOM     32  C   LIG    1       24.390 -20.873   6.151  0.00  0.00    +0.021 A 
ATOM     33  C   LIG    1       25.203 -20.617   5.038  0.00  0.00    +0.011 A 
ATOM     34  C   LIG    1       24.725 -19.819   3.993  0.00  0.00    +0.001 A 
ATOM     35  C   LIG    1       23.435 -19.292   4.047  0.00  0.00    +0.000 A 
ATOM     36  C   LIG    1       22.617 -19.568   5.137  0.00  0.00    +0.001 A 
ATOM     37  C   LIG    1       23.090 -20.358   6.183  0.00  0.00    +0.011 A 
ENDBRANCH  30  32
ENDBRANCH  29  30
ENDBRANCH  28  29
ENDBRANCH  26  28
ENDBRANCH  25  26
ENDBRANCH  24  25
ENDBRANCH  23  24
ENDBRANCH   6  23
TORSDOF 15
ENDMDL
MODEL 6
REMARK VINA RESULT:      -8.9      2.370     10.848
REMARK  Name = *****
REMARK                            x       y       z     vdW  Elec       q    Type
REMARK                         _______ _______ _______ _____ _____    ______ ____
ROOT
ATOM      1  C   LIG    1       24.528 -23.632   6.732  0.00  0.00    +0.044 C 
ATOM      2  C   LIG    1       25.424 -22.846   7.702  0.00  0.00    +0.006 C 
ATOM      3  C   LIG    1       24.620 -21.581   8.008  0.00  0.00    -0.001 C 
ATOM      4  C   LIG    1       25.648 -20.522   8.383  0.00  0.00    +0.034 C 
ATOM      5  C   LIG    1       26.926 -20.974   7.730  0.00  0.00    -0.073 C 
ATOM      6  C   LIG    1       28.043 -20.225   7.729  0.00  0.00    -0.027 C 
ATOM      7  C   LIG    1       23.820 -21.262   6.742  0.00  0.00    +0.036 C 
ATOM      8  C   LIG    1       26.779 -22.365   7.170  0.00  0.00    +0.035 C 
ATOM      9  C   LIG    1       23.766 -22.553   5.920  0.00  0.00    +0.122 C 
ENDROOT
BRANCH   1  11
ATOM     10  C   LIG    1       25.183 -26.012   6.236  0.00  0.00    +0.000 C 
ATOM     11  C   LIG    1       25.222 -24.704   5.926  0.00  0.00    -0.022 C 
BRANCH  10  12
ATOM     12  C   LIG    1       25.868 -27.097   5.450  0.00  0.00    +0.141 C 
BRANCH  12  13
ATOM     13  C   LIG    1       25.739 -28.494   6.102  0.00  0.00    +0.030 C 
ATOM     14  C   LIG    1       25.113 -29.518   5.140  0.00  0.00    +0.011 C 
BRANCH  13  15
ATOM     15  C   LIG    1       24.931 -28.407   7.414  0.00  0.00    +0.095 C 
BRANCH  15  18
ATOM     16  C   LIG    1       27.399 -29.012  10.678  0.00  0.00    +0.106 C 
ATOM     17  C   LIG    1       26.492 -28.898   9.527  0.00  0.00    -0.106 C 
ATOM     18  C   LIG    1       25.777 -28.731   8.589  0.00  0.00    -0.102 C 
ENDBRANCH  15  18
ENDBRANCH  13  15
ENDBRANCH  12  13
BRANCH  12  19
ATOM     19  O   LIG    1       27.244 -26.737   5.340  0.00  0.00    -0.388 OA
ATOM     20  H   LIG    1       27.433 -26.643   4.390  0.00  0.00    +0.210 HD
ENDBRANCH  12  19
ENDBRANCH  10  12
ENDBRANCH   1  11
BRANCH   9  21
ATOM     21  O   LIG    1       24.313 -22.312   4.627  0.00  0.00    -0.391 OA
ATOM     22  H   LIG    1       25.096 -22.879   4.517  0.00  0.00    +0.210 HD
ENDBRANCH   9  21
BRANCH   6  23
ATOM     23  C   LIG    1       29.390 -20.686   7.245  0.00  0.00    +0.028 C 
BRANCH  23  24
ATOM     24  C   LIG    1       30.317 -19.515   6.885  0.00  0.00    +0.015 C 
BRANCH  24  25
ATOM     25  C   LIG    1       30.310 -18.426   7.954  0.00  0.00    +0.121 C 
BRANCH  25  26
ATOM     26  C   LIG    1       31.585 -18.430   8.755  0.00  0.00    +0.307 C 
ATOM     27  O   LIG    1       32.137 -19.437   9.177  0.00  0.00    -0.251 OA
BRANCH  26  28
ATOM     28  O   LIG    1       32.021 -17.155   8.950  0.00  0.00    -0.457 OA
BRANCH  28  29
ATOM     29  C   LIG    1       32.562 -16.927  10.250  0.00  0.00    +0.311 C 
BRANCH  29  30
ATOM     30  C   LIG    1       31.480 -16.611  11.288  0.00  0.00    +0.200 C 
ATOM     31  O   LIG    1       30.339 -16.272  10.968  0.00  0.00    -0.288 OA
BRANCH  30  32
ATOM     32  C   LIG    1       31.849 -16.654  12.733  0.00  0.00    +0.021 A 
ATOM     33  C   LIG    1       32.177 -15.467  13.403  0.00  0.00    +0.011 A 
ATOM     34  C   LIG    1       32.542 -15.505  14.753  0.00  0.00    +0.001 A 
ATOM     35  C   LIG    1       32.562 -16.720  15.439  0.00  0.00    +0.000 A 
ATOM     36  C   LIG    1       32.210 -17.895  14.783  0.00  0.00    +0.001 A 
ATOM     37  C   LIG    1       31.851 -17.862  13.437  0.00  0.00    +0.011 A 
ENDBRANCH  30  32
ENDBRANCH  29  30
ENDBRANCH  28  29
ENDBRANCH  26  28
ENDBRANCH  25  26
ENDBRANCH  24  25
ENDBRANCH  23  24
ENDBRANCH   6  23
TORSDOF 15
ENDMDL
MODEL 7
REMARK VINA RESULT:      -8.9      1.568      2.165
REMARK  Name = *****
REMARK                            x       y       z     vdW  Elec       q    Type
REMARK                         _______ _______ _______ _____ _____    ______ ____
ROOT
ATOM      1  C   LIG    1       25.504 -20.930   6.723  0.00  0.00    +0.044 C 
ATOM      2  C   LIG    1       24.857 -22.105   5.973  0.00  0.00    +0.006 C 
ATOM      3  C   LIG    1       23.397 -22.079   6.429  0.00  0.00    -0.001 C 
ATOM      4  C   LIG    1       22.894 -23.508   6.280  0.00  0.00    +0.034 C 
ATOM      5  C   LIG    1       24.132 -24.363   6.344  0.00  0.00    -0.073 C 
ATOM      6  C   LIG    1       24.083 -25.707   6.375  0.00  0.00    -0.027 C 
ATOM      7  C   LIG    1       23.405 -21.560   7.869  0.00  0.00    +0.036 C 
ATOM      8  C   LIG    1       25.374 -23.512   6.298  0.00  0.00    +0.035 C 
ATOM      9  C   LIG    1       24.742 -20.841   8.070  0.00  0.00    +0.122 C 
ENDROOT
BRANCH   1  11
ATOM     10  C   LIG    1       27.723 -20.200   7.660  0.00  0.00    +0.000 C 
ATOM     11  C   LIG    1       27.011 -20.962   6.812  0.00  0.00    -0.022 C 
BRANCH  10  12
ATOM     12  C   LIG    1       29.225 -20.213   7.765  0.00  0.00    +0.141 C 
BRANCH  12  13
ATOM     13  C   LIG    1       29.877 -18.885   7.315  0.00  0.00    +0.030 C 
ATOM     14  C   LIG    1       29.570 -18.568   5.841  0.00  0.00    +0.011 C 
BRANCH  13  15
ATOM     15  C   LIG    1       31.400 -18.917   7.563  0.00  0.00    +0.095 C 
BRANCH  15  18
ATOM     16  C   LIG    1       32.501 -16.180  10.462  0.00  0.00    +0.106 C 
ATOM     17  C   LIG    1       32.125 -17.076   9.360  0.00  0.00    -0.106 C 
ATOM     18  C   LIG    1       31.812 -17.860   8.520  0.00  0.00    -0.102 C 
ENDBRANCH  15  18
ENDBRANCH  13  15
ENDBRANCH  12  13
BRANCH  12  19
ATOM     19  O   LIG    1       29.698 -21.286   6.954  0.00  0.00    -0.388 OA
ATOM     20  H   LIG    1       30.662 -21.178   6.880  0.00  0.00    +0.210 HD
ENDBRANCH  12  19
ENDBRANCH  10  12
ENDBRANCH   1  11
BRANCH   9  21
ATOM     21  O   LIG    1       25.436 -21.432   9.164  0.00  0.00    -0.391 OA
ATOM     22  H   LIG    1       25.813 -22.277   8.866  0.00  0.00    +0.210 HD
ENDBRANCH   9  21
BRANCH   6  23
ATOM     23  C   LIG    1       25.276 -26.615   6.271  0.00  0.00    +0.028 C 
BRANCH  23  24
ATOM     24  C   LIG    1       24.879 -28.087   6.082  0.00  0.00    +0.015 C 
BRANCH  24  25
ATOM     25  C   LIG    1       24.594 -28.781   7.412  0.00  0.00    +0.121 C 
BRANCH  25  26
ATOM     26  C   LIG    1       24.500 -30.275   7.246  0.00  0.00    +0.307 C 
ATOM     27  O   LIG    1       23.669 -30.846   6.553  0.00  0.00    -0.251 OA
BRANCH  26  28
ATOM     28  O   LIG    1       25.462 -30.891   7.987  0.00  0.00    -0.457 OA
BRANCH  28  29
ATOM     29  C   LIG    1       26.059 -30.044   8.967  0.00  0.00    +0.311 C 
BRANCH  29  30
ATOM     30  C   LIG    1       25.782 -30.517  10.399  0.00  0.00    +0.200 C 
ATOM     31  O   LIG    1       26.417 -31.433  10.923  0.00  0.00    -0.288 OA
BRANCH  30  32
ATOM     32  C   LIG    1       24.660 -29.884  11.149  0.00  0.00    +0.021 A 
ATOM     33  C   LIG    1       23.338 -30.264  10.876  0.00  0.00    +0.011 A 
ATOM     34  C   LIG    1       22.280 -29.660  11.565  0.00  0.00    +0.001 A 
ATOM     35  C   LIG    1       22.539 -28.692  12.536  0.00  0.00    +0.000 A 
ATOM     36  C   LIG    1       23.851 -28.332  12.827  0.00  0.00    +0.001 A 
ATOM     37  C   LIG    1       24.907 -28.929  12.140  0.00  0.00    +0.011 A 
ENDBRANCH  30  32
ENDBRANCH  29  30
ENDBRANCH  28  29
ENDBRANCH  26  28
ENDBRANCH  25  26
ENDBRANCH  24  25
ENDBRANCH  23  24
ENDBRANCH   6  23
TORSDOF 15
ENDMDL
MODEL 8
REMARK VINA RESULT:      -8.8      3.249      6.188
REMARK  Name = *****
REMARK                            x       y       z     vdW  Elec       q    Type
REMARK                         _______ _______ _______ _____ _____    ______ ____
ROOT
ATOM      1  C   LIG    1       25.808 -25.657   5.843  0.00  0.00    +0.044 C 
ATOM      2  C   LIG    1       26.139 -27.112   6.210  0.00  0.00    +0.006 C 
ATOM      3  C   LIG    1       25.232 -27.941   5.299  0.00  0.00    -0.001 C 
ATOM      4  C   LIG    1       25.017 -29.262   6.025  0.00  0.00    +0.034 C 
ATOM      5  C   LIG    1       25.255 -28.948   7.478  0.00  0.00    -0.073 C 
ATOM      6  C   LIG    1       25.034 -29.843   8.458  0.00  0.00    -0.027 C 
ATOM      7  C   LIG    1       23.957 -27.118   5.096  0.00  0.00    +0.036 C 
ATOM      8  C   LIG    1       25.823 -27.562   7.641  0.00  0.00    +0.035 C 
ATOM      9  C   LIG    1       24.308 -25.670   5.450  0.00  0.00    +0.122 C 
ENDROOT
BRANCH   1  11
ATOM     10  C   LIG    1       26.177 -23.294   6.627  0.00  0.00    +0.000 C 
ATOM     11  C   LIG    1       26.220 -24.617   6.857  0.00  0.00    -0.022 C 
BRANCH  10  12
ATOM     12  C   LIG    1       26.586 -22.240   7.621  0.00  0.00    +0.141 C 
BRANCH  12  13
ATOM     13  C   LIG    1       25.583 -21.065   7.708  0.00  0.00    +0.030 C 
ATOM     14  C   LIG    1       25.727 -20.288   9.028  0.00  0.00    +0.011 C 
BRANCH  13  15
ATOM     15  C   LIG    1       24.137 -21.572   7.524  0.00  0.00    +0.095 C 
BRANCH  15  18
ATOM     16  C   LIG    1       22.339 -19.090   4.745  0.00  0.00    +0.106 C 
ATOM     17  C   LIG    1       22.884 -20.017   5.747  0.00  0.00    -0.106 C 
ATOM     18  C   LIG    1       23.395 -20.737   6.546  0.00  0.00    -0.102 C 
ENDBRANCH  15  18
ENDBRANCH  13  15
ENDBRANCH  12  13
BRANCH  12  19
ATOM     19  O   LIG    1       27.868 -21.756   7.224  0.00  0.00    -0.388 OA
ATOM     20  H   LIG    1       28.524 -22.388   7.566  0.00  0.00    +0.210 HD
ENDBRANCH  12  19
ENDBRANCH  10  12
ENDBRANCH   1  11
BRANCH   9  21
ATOM     21  O   LIG    1       23.439 -25.213   6.481  0.00  0.00    -0.391 OA
ATOM     22  H   LIG    1       23.211 -25.971   7.047  0.00  0.00    +0.210 HD
ENDBRANCH   9  21
BRANCH   6  23
ATOM     23  C   LIG    1       25.408 -29.651   9.901  0.00  0.00    +0.028 C 
BRANCH  23  24
ATOM     24  C   LIG    1       26.914 -29.830  10.147  0.00  0.00    +0.015 C 
BRANCH  24  25
ATOM     25  C   LIG    1       27.484 -28.735  11.044  0.00  0.00    +0.121 C 
BRANCH  25  26
ATOM     26  C   LIG    1       27.462 -29.142  12.495  0.00  0.00    +0.307 C 
ATOM     27  O   LIG    1       27.585 -30.291  12.895  0.00  0.00    -0.251 OA
BRANCH  26  28
ATOM     28  O   LIG    1       27.273 -28.050  13.286  0.00  0.00    -0.457 OA
BRANCH  28  29
ATOM     29  C   LIG    1       26.534 -27.006  12.655  0.00  0.00    +0.311 C 
BRANCH  29  30
ATOM     30  C   LIG    1       25.380 -26.495  13.524  0.00  0.00    +0.200 C 
ATOM     31  O   LIG    1       25.556 -25.705  14.453  0.00  0.00    -0.288 OA
BRANCH  30  32
ATOM     32  C   LIG    1       24.011 -27.030  13.271  0.00  0.00    +0.021 A 
ATOM     33  C   LIG    1       23.851 -28.345  12.812  0.00  0.00    +0.011 A 
ATOM     34  C   LIG    1       22.570 -28.845  12.555  0.00  0.00    +0.001 A 
ATOM     35  C   LIG    1       21.449 -28.043  12.773  0.00  0.00    +0.000 A 
ATOM     36  C   LIG    1       21.604 -26.747  13.254  0.00  0.00    +0.001 A 
ATOM     37  C   LIG    1       22.878 -26.244  13.506  0.00  0.00    +0.011 A 
ENDBRANCH  30  32
ENDBRANCH  29  30
ENDBRANCH  28  29
ENDBRANCH  26  28
ENDBRANCH  25  26
ENDBRANCH  24  25
ENDBRANCH  23  24
ENDBRANCH   6  23
TORSDOF 15
ENDMDL
MODEL 9
REMARK VINA RESULT:      -8.7      2.238     10.411
REMARK  Name = *****
REMARK                            x       y       z     vdW  Elec       q    Type
REMARK                         _______ _______ _______ _____ _____    ______ ____
ROOT
ATOM      1  C   LIG    1       24.094 -23.532   6.149  0.00  0.00    +0.044 C 
ATOM      2  C   LIG    1       24.719 -22.850   7.377  0.00  0.00    +0.006 C 
ATOM      3  C   LIG    1       24.026 -21.488   7.439  0.00  0.00    -0.001 C 
ATOM      4  C   LIG    1       25.002 -20.563   8.153  0.00  0.00    +0.034 C 
ATOM      5  C   LIG    1       26.355 -21.186   7.937  0.00  0.00    -0.073 C 
ATOM      6  C   LIG    1       27.497 -20.585   8.316  0.00  0.00    -0.027 C 
ATOM      7  C   LIG    1       23.725 -21.091   5.992  0.00  0.00    +0.036 C 
ATOM      8  C   LIG    1       26.223 -22.555   7.323  0.00  0.00    +0.035 C 
ATOM      9  C   LIG    1       23.778 -22.378   5.163  0.00  0.00    +0.122 C 
ENDROOT
BRANCH   1  11
ATOM     10  C   LIG    1       24.603 -25.981   5.874  0.00  0.00    +0.000 C 
ATOM     11  C   LIG    1       24.870 -24.697   5.583  0.00  0.00    -0.022 C 
BRANCH  10  12
ATOM     12  C   LIG    1       25.364 -27.158   5.325  0.00  0.00    +0.141 C 
BRANCH  12  13
ATOM     13  C   LIG    1       25.360 -28.381   6.273  0.00  0.00    +0.030 C 
ATOM     14  C   LIG    1       23.967 -29.027   6.365  0.00  0.00    +0.011 C 
BRANCH  13  15
ATOM     15  C   LIG    1       25.875 -27.984   7.673  0.00  0.00    +0.095 C 
BRANCH  15  18
ATOM     16  C   LIG    1       25.340 -31.089  10.352  0.00  0.00    +0.106 C 
ATOM     17  C   LIG    1       25.632 -30.014   9.394  0.00  0.00    -0.106 C 
ATOM     18  C   LIG    1       25.792 -29.124   8.619  0.00  0.00    -0.102 C 
ENDBRANCH  15  18
ENDBRANCH  13  15
ENDBRANCH  12  13
BRANCH  12  19
ATOM     19  O   LIG    1       26.704 -26.727   5.094  0.00  0.00    -0.388 OA
ATOM     20  H   LIG    1       26.919 -26.961   4.174  0.00  0.00    +0.210 HD
ENDBRANCH  12  19
ENDBRANCH  10  12
ENDBRANCH   1  11
BRANCH   9  21
ATOM     21  O   LIG    1       24.740 -22.230   4.123  0.00  0.00    -0.391 OA
ATOM     22  H   LIG    1       24.490 -22.818   3.390  0.00  0.00    +0.210 HD
ENDBRANCH   9  21
BRANCH   6  23
ATOM     23  C   LIG    1       28.858 -21.222   8.282  0.00  0.00    +0.028 C 
BRANCH  23  24
ATOM     24  C   LIG    1       29.550 -21.058   6.920  0.00  0.00    +0.015 C 
BRANCH  24  25
ATOM     25  C   LIG    1       28.835 -20.045   6.030  0.00  0.00    +0.121 C 
BRANCH  25  26
ATOM     26  C   LIG    1       29.543 -18.715   6.027  0.00  0.00    +0.307 C 
ATOM     27  O   LIG    1       29.184 -17.740   5.381  0.00  0.00    -0.251 OA
BRANCH  26  28
ATOM     28  O   LIG    1       30.638 -18.764   6.834  0.00  0.00    -0.457 OA
BRANCH  28  29
ATOM     29  C   LIG    1       30.499 -18.005   8.033  0.00  0.00    +0.311 C 
BRANCH  29  30
ATOM     30  C   LIG    1       31.463 -18.463   9.134  0.00  0.00    +0.200 C 
ATOM     31  O   LIG    1       31.897 -19.615   9.190  0.00  0.00    -0.288 OA
BRANCH  30  32
ATOM     32  C   LIG    1       31.831 -17.492  10.204  0.00  0.00    +0.021 A 
ATOM     33  C   LIG    1       32.646 -16.393   9.897  0.00  0.00    +0.011 A 
ATOM     34  C   LIG    1       33.008 -15.489  10.902  0.00  0.00    +0.001 A 
ATOM     35  C   LIG    1       32.545 -15.669  12.206  0.00  0.00    +0.000 A 
ATOM     36  C   LIG    1       31.714 -16.744  12.507  0.00  0.00    +0.001 A 
ATOM     37  C   LIG    1       31.355 -17.649  11.510  0.00  0.00    +0.011 A 
ENDBRANCH  30  32
ENDBRANCH  29  30
ENDBRANCH  28  29
ENDBRANCH  26  28
ENDBRANCH  25  26
ENDBRANCH  24  25
ENDBRANCH  23  24
ENDBRANCH   6  23
TORSDOF 15
ENDMDL
