MODEL 1
REMARK VINA RESULT:     -10.5      0.000      0.000
REMARK  Name = *****
REMARK                            x       y       z     vdW  Elec       q    Type
REMARK                         _______ _______ _______ _____ _____    ______ ____
ROOT
ATOM      1  C   LIG    1       26.942 -21.077   6.626  0.00  0.00    +0.272 C 
ATOM      2  C   LIG    1       25.688 -21.710   5.911  0.00  0.00    +0.144 C 
ATOM      3  N   LIG    1       25.155 -22.674   6.921  0.00  0.00    -0.282 NA
ATOM      4  C   LIG    1       24.761 -21.964   8.155  0.00  0.00    +0.113 C 
ATOM      5  C   LIG    1       25.838 -20.975   8.678  0.00  0.00    +0.178 C 
ATOM      6  O   LIG    1       26.491 -20.203   7.663  0.00  0.00    -0.348 OA
ENDROOT
BRANCH   2   7
ATOM      7  C   LIG    1       24.671 -20.692   5.335  0.00  0.00    -0.025 A 
ATOM      8  C   LIG    1       23.388 -20.474   5.879  0.00  0.00    +0.008 A 
ATOM      9  C   LIG    1       22.492 -19.539   5.355  0.00  0.00    +0.039 A 
ATOM     10  C   LIG    1       22.853 -18.807   4.244  0.00  0.00    +0.123 A 
ATOM     11  F   LIG    1       22.003 -17.902   3.746  0.00  0.00    -0.205 F 
ATOM     12  C   LIG    1       24.086 -19.009   3.648  0.00  0.00    +0.039 A 
ATOM     13  C   LIG    1       24.980 -19.948   4.181  0.00  0.00    +0.008 A 
ENDBRANCH   2   7
BRANCH   1  14
ATOM     14  O   LIG    1       27.880 -20.451   5.737  0.00  0.00    -0.342 OA
BRANCH  14  16
ATOM     15  C   LIG    1       28.817 -18.313   5.050  0.00  0.00    +0.043 C 
ATOM     16  C   LIG    1       28.284 -19.155   6.213  0.00  0.00    +0.148 C 
BRANCH  16  17
ATOM     17  C   LIG    1       29.337 -19.275   7.303  0.00  0.00    -0.018 A 
ATOM     18  C   LIG    1       29.798 -20.544   7.686  0.00  0.00    +0.018 A 
ATOM     19  C   LIG    1       30.785 -20.690   8.671  0.00  0.00    +0.056 A 
ATOM     20  C   LIG    1       31.330 -19.538   9.259  0.00  0.00    +0.024 A 
ATOM     21  C   LIG    1       30.890 -18.256   8.885  0.00  0.00    +0.056 A 
ATOM     22  C   LIG    1       29.905 -18.138   7.895  0.00  0.00    +0.018 A 
BRANCH  19  23
ATOM     23  C   LIG    1       31.208 -22.075   9.099  0.00  0.00    +0.417 C 
ATOM     24  F   LIG    1       32.562 -22.213   9.161  0.00  0.00    -0.166 F 
ATOM     25  F   LIG    1       30.774 -23.030   8.231  0.00  0.00    -0.166 F 
ATOM     26  F   LIG    1       30.736 -22.438  10.322  0.00  0.00    -0.166 F 
ENDBRANCH  19  23
BRANCH  21  27
ATOM     27  C   LIG    1       31.472 -17.023   9.536  0.00  0.00    +0.417 C 
ATOM     28  F   LIG    1       32.208 -17.315  10.641  0.00  0.00    -0.166 F 
ATOM     29  F   LIG    1       30.515 -16.144   9.940  0.00  0.00    -0.166 F 
ATOM     30  F   LIG    1       32.294 -16.322   8.707  0.00  0.00    -0.166 F 
ENDBRANCH  21  27
ENDBRANCH  16  17
ENDBRANCH  14  16
ENDBRANCH   1  14
BRANCH   3  31
ATOM     31  C   LIG    1       24.238 -23.756   6.540  0.00  0.00    +0.161 C 
BRANCH  31  32
ATOM     32  C   LIG    1       24.947 -25.027   6.126  0.00  0.00    +0.145 C 
ATOM     33  N   LIG    1       24.258 -26.124   5.779  0.00  0.00    -0.292 N 
ATOM     34  H   LIG    1       23.277 -26.276   5.661  0.00  0.00    +0.172 HD
ATOM     35  C   LIG    1       25.196 -27.077   5.468  0.00  0.00    +0.342 C 
ATOM     36  O   LIG    1       24.974 -28.179   5.039  0.00  0.00    -0.245 OA
ATOM     37  N   LIG    1       26.415 -26.476   5.705  0.00  0.00    -0.227 N 
ATOM     38  H   LIG    1       27.317 -26.917   5.608  0.00  0.00    +0.194 HD
ATOM     39  N   LIG    1       26.247 -25.182   6.119  0.00  0.00    -0.155 NA
ENDBRANCH  31  32
ENDBRANCH   3  31
TORSDOF 8
ENDMDL
MODEL 2
REMARK VINA RESULT:     -10.5      0.107      2.913
REMARK  Name = *****
REMARK                            x       y       z     vdW  Elec       q    Type
REMARK                         _______ _______ _______ _____ _____    ______ ____
ROOT
ATOM      1  C   LIG    1       26.977 -21.096   6.561  0.00  0.00    +0.272 C 
ATOM      2  C   LIG    1       25.733 -21.735   5.833  0.00  0.00    +0.144 C 
ATOM      3  N   LIG    1       25.223 -22.736   6.818  0.00  0.00    -0.282 NA
ATOM      4  C   LIG    1       24.819 -22.068   8.072  0.00  0.00    +0.113 C 
ATOM      5  C   LIG    1       25.877 -21.071   8.618  0.00  0.00    +0.178 C 
ATOM      6  O   LIG    1       26.511 -20.259   7.623  0.00  0.00    -0.348 OA
ENDROOT
BRANCH   2   7
ATOM      7  C   LIG    1       24.695 -20.723   5.286  0.00  0.00    -0.025 A 
ATOM      8  C   LIG    1       23.424 -20.517   5.862  0.00  0.00    +0.008 A 
ATOM      9  C   LIG    1       22.508 -19.587   5.365  0.00  0.00    +0.039 A 
ATOM     10  C   LIG    1       22.835 -18.848   4.249  0.00  0.00    +0.123 A 
ATOM     11  F   LIG    1       21.967 -17.947   3.776  0.00  0.00    -0.205 F 
ATOM     12  C   LIG    1       24.056 -19.037   3.622  0.00  0.00    +0.039 A 
ATOM     13  C   LIG    1       24.969 -19.972   4.129  0.00  0.00    +0.008 A 
ENDBRANCH   2   7
BRANCH   1  14
ATOM     14  O   LIG    1       27.900 -20.428   5.687  0.00  0.00    -0.342 OA
BRANCH  14  16
ATOM     15  C   LIG    1       28.805 -18.255   5.072  0.00  0.00    +0.043 C 
ATOM     16  C   LIG    1       28.297 -19.147   6.209  0.00  0.00    +0.148 C 
BRANCH  16  17
ATOM     17  C   LIG    1       29.367 -19.299   7.278  0.00  0.00    -0.018 A 
ATOM     18  C   LIG    1       29.899 -18.158   7.895  0.00  0.00    +0.018 A 
ATOM     19  C   LIG    1       30.871 -18.263   8.901  0.00  0.00    +0.056 A 
ATOM     20  C   LIG    1       31.291 -19.540   9.304  0.00  0.00    +0.024 A 
ATOM     21  C   LIG    1       30.766 -20.698   8.707  0.00  0.00    +0.056 A 
ATOM     22  C   LIG    1       29.792 -20.565   7.706  0.00  0.00    +0.018 A 
BRANCH  19  23
ATOM     23  C   LIG    1       31.463 -17.008   9.496  0.00  0.00    +0.417 C 
ATOM     24  F   LIG    1       32.138 -17.246  10.655  0.00  0.00    -0.166 F 
ATOM     25  F   LIG    1       30.505 -16.089   9.803  0.00  0.00    -0.166 F 
ATOM     26  F   LIG    1       32.341 -16.373   8.672  0.00  0.00    -0.166 F 
ENDBRANCH  19  23
BRANCH  21  27
ATOM     27  C   LIG    1       31.237 -22.067   9.137  0.00  0.00    +0.417 C 
ATOM     28  F   LIG    1       32.590 -22.141   9.252  0.00  0.00    -0.166 F 
ATOM     29  F   LIG    1       30.878 -23.044   8.259  0.00  0.00    -0.166 F 
ATOM     30  F   LIG    1       30.733 -22.449  10.343  0.00  0.00    -0.166 F 
ENDBRANCH  21  27
ENDBRANCH  16  17
ENDBRANCH  14  16
ENDBRANCH   1  14
BRANCH   3  31
ATOM     31  C   LIG    1       24.327 -23.826   6.410  0.00  0.00    +0.161 C 
BRANCH  31  32
ATOM     32  C   LIG    1       25.052 -25.118   6.102  0.00  0.00    +0.145 C 
ATOM     33  N   LIG    1       24.382 -26.217   5.727  0.00  0.00    -0.292 N 
ATOM     34  H   LIG    1       23.414 -26.361   5.523  0.00  0.00    +0.172 HD
ATOM     35  C   LIG    1       25.331 -27.190   5.533  0.00  0.00    +0.342 C 
ATOM     36  O   LIG    1       25.133 -28.302   5.119  0.00  0.00    -0.245 OA
ATOM     37  N   LIG    1       26.532 -26.597   5.864  0.00  0.00    -0.227 N 
ATOM     38  H   LIG    1       27.432 -27.051   5.864  0.00  0.00    +0.194 HD
ATOM     39  N   LIG    1       26.345 -25.288   6.220  0.00  0.00    -0.155 NA
ENDBRANCH  31  32
ENDBRANCH   3  31
TORSDOF 8
ENDMDL
MODEL 3
REMARK VINA RESULT:      -8.7      6.557     10.685
REMARK  Name = *****
REMARK                            x       y       z     vdW  Elec       q    Type
REMARK                         _______ _______ _______ _____ _____    ______ ____
ROOT
ATOM      1  C   LIG    1       24.747 -29.452   9.235  0.00  0.00    +0.272 C 
ATOM      2  C   LIG    1       24.525 -29.533   7.676  0.00  0.00    +0.144 C 
ATOM      3  N   LIG    1       24.806 -28.143   7.206  0.00  0.00    -0.282 NA
ATOM      4  C   LIG    1       26.196 -27.760   7.526  0.00  0.00    +0.113 C 
ATOM      5  C   LIG    1       26.609 -28.067   8.992  0.00  0.00    +0.178 C 
ATOM      6  O   LIG    1       26.147 -29.326   9.496  0.00  0.00    -0.348 OA
ENDROOT
BRANCH   2   7
ATOM      7  C   LIG    1       25.298 -30.667   6.956  0.00  0.00    -0.025 A 
ATOM      8  C   LIG    1       26.167 -31.562   7.614  0.00  0.00    +0.008 A 
ATOM      9  C   LIG    1       26.842 -32.589   6.950  0.00  0.00    +0.039 A 
ATOM     10  C   LIG    1       26.681 -32.733   5.589  0.00  0.00    +0.123 A 
ATOM     11  F   LIG    1       27.315 -33.723   4.950  0.00  0.00    -0.205 F 
ATOM     12  C   LIG    1       25.868 -31.858   4.888  0.00  0.00    +0.039 A 
ATOM     13  C   LIG    1       25.194 -30.830   5.562  0.00  0.00    +0.008 A 
ENDBRANCH   2   7
BRANCH   1  14
ATOM     14  O   LIG    1       24.133 -30.516   9.979  0.00  0.00    -0.342 OA
BRANCH  14  16
ATOM     15  C   LIG    1       23.972 -31.731  12.081  0.00  0.00    +0.043 C 
ATOM     16  C   LIG    1       24.540 -30.505  11.359  0.00  0.00    +0.148 C 
BRANCH  16  17
ATOM     17  C   LIG    1       24.091 -29.230  12.053  0.00  0.00    -0.018 A 
ATOM     18  C   LIG    1       22.732 -29.036  12.339  0.00  0.00    +0.018 A 
ATOM     19  C   LIG    1       22.286 -27.881  12.998  0.00  0.00    +0.056 A 
ATOM     20  C   LIG    1       23.230 -26.922  13.394  0.00  0.00    +0.024 A 
ATOM     21  C   LIG    1       24.599 -27.098  13.127  0.00  0.00    +0.056 A 
ATOM     22  C   LIG    1       25.018 -28.263  12.470  0.00  0.00    +0.018 A 
BRANCH  19  23
ATOM     23  C   LIG    1       20.807 -27.683  13.231  0.00  0.00    +0.417 C 
ATOM     24  F   LIG    1       20.077 -28.794  12.937  0.00  0.00    -0.166 F 
ATOM     25  F   LIG    1       20.299 -26.685  12.456  0.00  0.00    -0.166 F 
ATOM     26  F   LIG    1       20.495 -27.356  14.515  0.00  0.00    -0.166 F 
ENDBRANCH  19  23
BRANCH  21  27
ATOM     27  C   LIG    1       25.604 -26.051  13.543  0.00  0.00    +0.417 C 
ATOM     28  F   LIG    1       26.156 -26.312  14.758  0.00  0.00    -0.166 F 
ATOM     29  F   LIG    1       25.058 -24.808  13.635  0.00  0.00    -0.166 F 
ATOM     30  F   LIG    1       26.644 -25.936  12.672  0.00  0.00    -0.166 F 
ENDBRANCH  21  27
ENDBRANCH  16  17
ENDBRANCH  14  16
ENDBRANCH   1  14
BRANCH   3  31
ATOM     31  C   LIG    1       24.345 -27.668   5.895  0.00  0.00    +0.161 C 
BRANCH  31  32
ATOM     32  C   LIG    1       24.496 -26.174   5.709  0.00  0.00    +0.145 C 
ATOM     33  N   LIG    1       23.876 -25.307   6.523  0.00  0.00    -0.292 N 
ATOM     34  H   LIG    1       23.333 -25.452   7.350  0.00  0.00    +0.172 HD
ATOM     35  C   LIG    1       24.223 -24.056   6.076  0.00  0.00    +0.342 C 
ATOM     36  O   LIG    1       23.925 -23.011   6.592  0.00  0.00    -0.245 OA
ATOM     37  N   LIG    1       25.010 -24.273   4.964  0.00  0.00    -0.227 N 
ATOM     38  H   LIG    1       25.406 -23.557   4.375  0.00  0.00    +0.194 HD
ATOM     39  N   LIG    1       25.179 -25.614   4.742  0.00  0.00    -0.155 NA
ENDBRANCH  31  32
ENDBRANCH   3  31
TORSDOF 8
ENDMDL
MODEL 4
REMARK VINA RESULT:      -8.6      6.574     10.837
REMARK  Name = *****
REMARK                            x       y       z     vdW  Elec       q    Type
REMARK                         _______ _______ _______ _____ _____    ______ ____
ROOT
ATOM      1  C   LIG    1       24.730 -29.461   9.196  0.00  0.00    +0.272 C 
ATOM      2  C   LIG    1       24.509 -29.527   7.636  0.00  0.00    +0.144 C 
ATOM      3  N   LIG    1       24.796 -28.134   7.179  0.00  0.00    -0.282 NA
ATOM      4  C   LIG    1       26.187 -27.760   7.503  0.00  0.00    +0.113 C 
ATOM      5  C   LIG    1       26.597 -28.081   8.967  0.00  0.00    +0.178 C 
ATOM      6  O   LIG    1       26.130 -29.342   9.460  0.00  0.00    -0.348 OA
ENDROOT
BRANCH   2   7
ATOM      7  C   LIG    1       25.278 -30.658   6.907  0.00  0.00    -0.025 A 
ATOM      8  C   LIG    1       26.128 -31.574   7.561  0.00  0.00    +0.008 A 
ATOM      9  C   LIG    1       26.801 -32.597   6.889  0.00  0.00    +0.039 A 
ATOM     10  C   LIG    1       26.655 -32.717   5.524  0.00  0.00    +0.123 A 
ATOM     11  F   LIG    1       27.286 -33.703   4.876  0.00  0.00    -0.205 F 
ATOM     12  C   LIG    1       25.862 -31.821   4.827  0.00  0.00    +0.039 A 
ATOM     13  C   LIG    1       25.191 -30.797   5.510  0.00  0.00    +0.008 A 
ENDBRANCH   2   7
BRANCH   1  14
ATOM     14  O   LIG    1       24.111 -30.528   9.931  0.00  0.00    -0.342 OA
BRANCH  14  16
ATOM     15  C   LIG    1       24.008 -31.807  11.998  0.00  0.00    +0.043 C 
ATOM     16  C   LIG    1       24.540 -30.550  11.304  0.00  0.00    +0.148 C 
BRANCH  16  17
ATOM     17  C   LIG    1       24.076 -29.304  12.042  0.00  0.00    -0.018 A 
ATOM     18  C   LIG    1       25.015 -28.338  12.434  0.00  0.00    +0.018 A 
ATOM     19  C   LIG    1       24.619 -27.168  13.096  0.00  0.00    +0.056 A 
ATOM     20  C   LIG    1       23.253 -26.960  13.343  0.00  0.00    +0.024 A 
ATOM     21  C   LIG    1       22.293 -27.908  12.951  0.00  0.00    +0.056 A 
ATOM     22  C   LIG    1       22.715 -29.069  12.287  0.00  0.00    +0.018 A 
BRANCH  19  23
ATOM     23  C   LIG    1       25.667 -26.183  13.556  0.00  0.00    +0.417 C 
ATOM     24  F   LIG    1       26.767 -26.175  12.753  0.00  0.00    -0.166 F 
ATOM     25  F   LIG    1       26.119 -26.470  14.808  0.00  0.00    -0.166 F 
ATOM     26  F   LIG    1       25.226 -24.897  13.603  0.00  0.00    -0.166 F 
ENDBRANCH  19  23
BRANCH  21  27
ATOM     27  C   LIG    1       20.827 -27.682  13.236  0.00  0.00    +0.417 C 
ATOM     28  F   LIG    1       20.303 -26.666  12.500  0.00  0.00    -0.166 F 
ATOM     29  F   LIG    1       20.590 -27.366  14.539  0.00  0.00    -0.166 F 
ATOM     30  F   LIG    1       20.059 -28.775  12.975  0.00  0.00    -0.166 F 
ENDBRANCH  21  27
ENDBRANCH  16  17
ENDBRANCH  14  16
ENDBRANCH   1  14
BRANCH   3  31
ATOM     31  C   LIG    1       24.338 -27.646   5.872  0.00  0.00    +0.161 C 
BRANCH  31  32
ATOM     32  C   LIG    1       24.490 -26.150   5.701  0.00  0.00    +0.145 C 
ATOM     33  N   LIG    1       23.869 -25.292   6.523  0.00  0.00    -0.292 N 
ATOM     34  H   LIG    1       23.326 -25.445   7.348  0.00  0.00    +0.172 HD
ATOM     35  C   LIG    1       24.216 -24.036   6.089  0.00  0.00    +0.342 C 
ATOM     36  O   LIG    1       23.918 -22.996   6.615  0.00  0.00    -0.245 OA
ATOM     37  N   LIG    1       25.005 -24.242   4.976  0.00  0.00    -0.227 N 
ATOM     38  H   LIG    1       25.400 -23.519   4.394  0.00  0.00    +0.194 HD
ATOM     39  N   LIG    1       25.173 -25.580   4.740  0.00  0.00    -0.155 NA
ENDBRANCH  31  32
ENDBRANCH   3  31
TORSDOF 8
ENDMDL
MODEL 5
REMARK VINA RESULT:      -8.3      7.629     12.009
REMARK  Name = *****
REMARK                            x       y       z     vdW  Elec       q    Type
REMARK                         _______ _______ _______ _____ _____    ______ ____
ROOT
ATOM      1  C   LIG    1       24.541 -29.710   8.976  0.00  0.00    +0.272 C 
ATOM      2  C   LIG    1       24.465 -29.700   7.402  0.00  0.00    +0.144 C 
ATOM      3  N   LIG    1       24.759 -28.280   7.042  0.00  0.00    -0.282 NA
ATOM      4  C   LIG    1       26.106 -27.896   7.512  0.00  0.00    +0.113 C 
ATOM      5  C   LIG    1       26.388 -28.284   8.989  0.00  0.00    +0.178 C 
ATOM      6  O   LIG    1       25.908 -29.579   9.374  0.00  0.00    -0.348 OA
ENDROOT
BRANCH   2   7
ATOM      7  C   LIG    1       25.325 -30.777   6.691  0.00  0.00    -0.025 A 
ATOM      8  C   LIG    1       25.306 -31.000   5.299  0.00  0.00    +0.008 A 
ATOM      9  C   LIG    1       26.101 -31.965   4.675  0.00  0.00    +0.039 A 
ATOM     10  C   LIG    1       26.928 -32.756   5.442  0.00  0.00    +0.123 A 
ATOM     11  F   LIG    1       27.701 -33.673   4.848  0.00  0.00    -0.205 F 
ATOM     12  C   LIG    1       26.958 -32.604   6.818  0.00  0.00    +0.039 A 
ATOM     13  C   LIG    1       26.157 -31.634   7.436  0.00  0.00    +0.008 A 
ENDBRANCH   2   7
BRANCH   1  14
ATOM     14  O   LIG    1       23.884 -30.827   9.596  0.00  0.00    -0.342 OA
BRANCH  14  16
ATOM     15  C   LIG    1       24.289 -32.194  11.567  0.00  0.00    +0.043 C 
ATOM     16  C   LIG    1       24.006 -30.788  11.030  0.00  0.00    +0.148 C 
BRANCH  16  17
ATOM     17  C   LIG    1       22.750 -30.221  11.671  0.00  0.00    -0.018 A 
ATOM     18  C   LIG    1       21.629 -31.046  11.850  0.00  0.00    +0.018 A 
ATOM     19  C   LIG    1       20.462 -30.561  12.459  0.00  0.00    +0.056 A 
ATOM     20  C   LIG    1       20.437 -29.234  12.914  0.00  0.00    +0.024 A 
ATOM     21  C   LIG    1       21.551 -28.392  12.754  0.00  0.00    +0.056 A 
ATOM     22  C   LIG    1       22.707 -28.902  12.146  0.00  0.00    +0.018 A 
BRANCH  19  23
ATOM     23  C   LIG    1       19.256 -31.463  12.576  0.00  0.00    +0.417 C 
ATOM     24  F   LIG    1       18.832 -31.605  13.862  0.00  0.00    -0.166 F 
ATOM     25  F   LIG    1       19.516 -32.721  12.126  0.00  0.00    -0.166 F 
ATOM     26  F   LIG    1       18.177 -31.028  11.870  0.00  0.00    -0.166 F 
ENDBRANCH  19  23
BRANCH  21  27
ATOM     27  C   LIG    1       21.508 -26.960  13.233  0.00  0.00    +0.417 C 
ATOM     28  F   LIG    1       20.468 -26.264  12.703  0.00  0.00    -0.166 F 
ATOM     29  F   LIG    1       22.633 -26.266  12.908  0.00  0.00    -0.166 F 
ATOM     30  F   LIG    1       21.385 -26.855  14.585  0.00  0.00    -0.166 F 
ENDBRANCH  21  27
ENDBRANCH  16  17
ENDBRANCH  14  16
ENDBRANCH   1  14
BRANCH   3  31
ATOM     31  C   LIG    1       24.411 -27.734   5.724  0.00  0.00    +0.161 C 
BRANCH  31  32
ATOM     32  C   LIG    1       24.533 -26.228   5.645  0.00  0.00    +0.145 C 
ATOM     33  N   LIG    1       23.875 -25.433   6.501  0.00  0.00    -0.292 N 
ATOM     34  H   LIG    1       23.317 -25.647   7.302  0.00  0.00    +0.172 HD
ATOM     35  C   LIG    1       24.204 -24.147   6.151  0.00  0.00    +0.342 C 
ATOM     36  O   LIG    1       23.870 -23.146   6.730  0.00  0.00    -0.245 OA
ATOM     37  N   LIG    1       25.021 -24.269   5.046  0.00  0.00    -0.227 N 
ATOM     38  H   LIG    1       25.414 -23.506   4.517  0.00  0.00    +0.194 HD
ATOM     39  N   LIG    1       25.225 -25.588   4.736  0.00  0.00    -0.155 NA
ENDBRANCH  31  32
ENDBRANCH   3  31
TORSDOF 8
ENDMDL
MODEL 6
REMARK VINA RESULT:      -8.2      7.562     12.293
REMARK  Name = *****
REMARK                            x       y       z     vdW  Elec       q    Type
REMARK                         _______ _______ _______ _____ _____    ______ ____
ROOT
ATOM      1  C   LIG    1       24.178 -29.847   8.711  0.00  0.00    +0.272 C 
ATOM      2  C   LIG    1       24.364 -29.728   7.150  0.00  0.00    +0.144 C 
ATOM      3  N   LIG    1       24.806 -28.315   6.953  0.00  0.00    -0.282 NA
ATOM      4  C   LIG    1       26.080 -28.070   7.660  0.00  0.00    +0.113 C 
ATOM      5  C   LIG    1       26.088 -28.575   9.129  0.00  0.00    +0.178 C 
ATOM      6  O   LIG    1       25.466 -29.850   9.331  0.00  0.00    -0.348 OA
ENDROOT
BRANCH   2   7
ATOM      7  C   LIG    1       25.255 -30.820   6.505  0.00  0.00    -0.025 A 
ATOM      8  C   LIG    1       25.332 -31.047   5.115  0.00  0.00    +0.008 A 
ATOM      9  C   LIG    1       26.153 -32.026   4.551  0.00  0.00    +0.039 A 
ATOM     10  C   LIG    1       26.911 -32.828   5.377  0.00  0.00    +0.123 A 
ATOM     11  F   LIG    1       27.710 -33.758   4.842  0.00  0.00    -0.205 F 
ATOM     12  C   LIG    1       26.846 -32.672   6.751  0.00  0.00    +0.039 A 
ATOM     13  C   LIG    1       26.018 -31.687   7.308  0.00  0.00    +0.008 A 
ENDBRANCH   2   7
BRANCH   1  14
ATOM     14  O   LIG    1       23.354 -30.947   9.130  0.00  0.00    -0.342 OA
BRANCH  14  16
ATOM     15  C   LIG    1       23.451 -32.752  10.759  0.00  0.00    +0.043 C 
ATOM     16  C   LIG    1       23.527 -31.239  10.528  0.00  0.00    +0.148 C 
BRANCH  16  17
ATOM     17  C   LIG    1       22.481 -30.526  11.370  0.00  0.00    -0.018 A 
ATOM     18  C   LIG    1       22.763 -29.257  11.899  0.00  0.00    +0.018 A 
ATOM     19  C   LIG    1       21.813 -28.562  12.661  0.00  0.00    +0.056 A 
ATOM     20  C   LIG    1       20.554 -29.145  12.869  0.00  0.00    +0.024 A 
ATOM     21  C   LIG    1       20.245 -30.410  12.341  0.00  0.00    +0.056 A 
ATOM     22  C   LIG    1       21.211 -31.083  11.580  0.00  0.00    +0.018 A 
BRANCH  19  23
ATOM     23  C   LIG    1       22.178 -27.226  13.264  0.00  0.00    +0.417 C 
ATOM     24  F   LIG    1       23.463 -26.863  12.995  0.00  0.00    -0.166 F 
ATOM     25  F   LIG    1       22.069 -27.235  14.622  0.00  0.00    -0.166 F 
ATOM     26  F   LIG    1       21.398 -26.199  12.833  0.00  0.00    -0.166 F 
ENDBRANCH  19  23
BRANCH  21  27
ATOM     27  C   LIG    1       18.892 -31.036  12.584  0.00  0.00    +0.417 C 
ATOM     28  F   LIG    1       18.153 -30.344  13.492  0.00  0.00    -0.166 F 
ATOM     29  F   LIG    1       18.983 -32.308  13.061  0.00  0.00    -0.166 F 
ATOM     30  F   LIG    1       18.132 -31.116  11.458  0.00  0.00    -0.166 F 
ENDBRANCH  21  27
ENDBRANCH  16  17
ENDBRANCH  14  16
ENDBRANCH   1  14
BRANCH   3  31
ATOM     31  C   LIG    1       24.718 -27.659   5.643  0.00  0.00    +0.161 C 
BRANCH  31  32
ATOM     32  C   LIG    1       24.758 -26.148   5.722  0.00  0.00    +0.145 C 
ATOM     33  N   LIG    1       23.858 -25.467   6.447  0.00  0.00    -0.292 N 
ATOM     34  H   LIG    1       23.133 -25.780   7.060  0.00  0.00    +0.172 HD
ATOM     35  C   LIG    1       24.180 -24.140   6.299  0.00  0.00    +0.342 C 
ATOM     36  O   LIG    1       23.650 -23.216   6.855  0.00  0.00    -0.245 OA
ATOM     37  N   LIG    1       25.253 -24.122   5.431  0.00  0.00    -0.227 N 
ATOM     38  H   LIG    1       25.714 -23.295   5.084  0.00  0.00    +0.194 HD
ATOM     39  N   LIG    1       25.611 -25.395   5.075  0.00  0.00    -0.155 NA
ENDBRANCH  31  32
ENDBRANCH   3  31
TORSDOF 8
ENDMDL
MODEL 7
REMARK VINA RESULT:      -8.0      3.607      7.733
REMARK  Name = *****
REMARK                            x       y       z     vdW  Elec       q    Type
REMARK                         _______ _______ _______ _____ _____    ______ ____
ROOT
ATOM      1  C   LIG    1       25.682 -26.183   6.370  0.00  0.00    +0.272 C 
ATOM      2  C   LIG    1       24.835 -27.447   6.782  0.00  0.00    +0.144 C 
ATOM      3  N   LIG    1       24.657 -28.188   5.497  0.00  0.00    -0.282 NA
ATOM      4  C   LIG    1       25.968 -28.585   4.944  0.00  0.00    +0.113 C 
ATOM      5  C   LIG    1       27.009 -27.432   4.913  0.00  0.00    +0.178 C 
ATOM      6  O   LIG    1       27.019 -26.598   6.077  0.00  0.00    -0.348 OA
ENDROOT
BRANCH   2   7
ATOM      7  C   LIG    1       25.403 -28.265   7.971  0.00  0.00    -0.025 A 
ATOM      8  C   LIG    1       26.601 -27.942   8.641  0.00  0.00    +0.008 A 
ATOM      9  C   LIG    1       27.088 -28.681   9.721  0.00  0.00    +0.039 A 
ATOM     10  C   LIG    1       26.391 -29.791  10.147  0.00  0.00    +0.123 A 
ATOM     11  F   LIG    1       26.846 -30.497  11.190  0.00  0.00    -0.205 F 
ATOM     12  C   LIG    1       25.229 -30.175   9.501  0.00  0.00    +0.039 A 
ATOM     13  C   LIG    1       24.747 -29.426   8.417  0.00  0.00    +0.008 A 
ENDBRANCH   2   7
BRANCH   1  14
ATOM     14  O   LIG    1       25.627 -25.097   7.308  0.00  0.00    -0.342 OA
BRANCH  14  16
ATOM     15  C   LIG    1       23.786 -24.650   5.782  0.00  0.00    +0.043 C 
ATOM     16  C   LIG    1       24.646 -24.115   6.930  0.00  0.00    +0.148 C 
BRANCH  16  17
ATOM     17  C   LIG    1       25.308 -22.807   6.528  0.00  0.00    -0.018 A 
ATOM     18  C   LIG    1       24.693 -21.981   5.576  0.00  0.00    +0.018 A 
ATOM     19  C   LIG    1       25.265 -20.758   5.198  0.00  0.00    +0.056 A 
ATOM     20  C   LIG    1       26.462 -20.353   5.809  0.00  0.00    +0.024 A 
ATOM     21  C   LIG    1       27.092 -21.160   6.772  0.00  0.00    +0.056 A 
ATOM     22  C   LIG    1       26.497 -22.376   7.135  0.00  0.00    +0.018 A 
BRANCH  19  23
ATOM     23  C   LIG    1       24.603 -19.927   4.124  0.00  0.00    +0.417 C 
ATOM     24  F   LIG    1       23.493 -19.278   4.574  0.00  0.00    -0.166 F 
ATOM     25  F   LIG    1       24.191 -20.690   3.074  0.00  0.00    -0.166 F 
ATOM     26  F   LIG    1       25.412 -18.969   3.597  0.00  0.00    -0.166 F 
ENDBRANCH  19  23
BRANCH  21  27
ATOM     27  C   LIG    1       28.389 -20.723   7.412  0.00  0.00    +0.417 C 
ATOM     28  F   LIG    1       28.909 -21.670   8.237  0.00  0.00    -0.166 F 
ATOM     29  F   LIG    1       28.246 -19.600   8.168  0.00  0.00    -0.166 F 
ATOM     30  F   LIG    1       29.361 -20.437   6.503  0.00  0.00    -0.166 F 
ENDBRANCH  21  27
ENDBRANCH  16  17
ENDBRANCH  14  16
ENDBRANCH   1  14
BRANCH   3  31
ATOM     31  C   LIG    1       23.612 -29.207   5.337  0.00  0.00    +0.161 C 
BRANCH  31  32
ATOM     32  C   LIG    1       24.120 -30.622   5.511  0.00  0.00    +0.145 C 
ATOM     33  N   LIG    1       25.140 -31.089   4.776  0.00  0.00    -0.292 N 
ATOM     34  H   LIG    1       25.740 -30.634   4.118  0.00  0.00    +0.172 HD
ATOM     35  C   LIG    1       25.336 -32.386   5.183  0.00  0.00    +0.342 C 
ATOM     36  O   LIG    1       26.212 -33.121   4.810  0.00  0.00    -0.245 OA
ATOM     37  N   LIG    1       24.357 -32.622   6.125  0.00  0.00    -0.227 N 
ATOM     38  H   LIG    1       24.198 -33.497   6.602  0.00  0.00    +0.194 HD
ATOM     39  N   LIG    1       23.596 -31.502   6.327  0.00  0.00    -0.155 NA
ENDBRANCH  31  32
ENDBRANCH   3  31
TORSDOF 8
ENDMDL
MODEL 8
REMARK VINA RESULT:      -8.0      3.605      7.710
REMARK  Name = *****
REMARK                            x       y       z     vdW  Elec       q    Type
REMARK                         _______ _______ _______ _____ _____    ______ ____
ROOT
ATOM      1  C   LIG    1       25.683 -26.184   6.352  0.00  0.00    +0.272 C 
ATOM      2  C   LIG    1       24.837 -27.446   6.774  0.00  0.00    +0.144 C 
ATOM      3  N   LIG    1       24.668 -28.202   5.497  0.00  0.00    -0.282 NA
ATOM      4  C   LIG    1       25.983 -28.601   4.955  0.00  0.00    +0.113 C 
ATOM      5  C   LIG    1       27.020 -27.446   4.916  0.00  0.00    +0.178 C 
ATOM      6  O   LIG    1       27.022 -26.599   6.072  0.00  0.00    -0.348 OA
ENDROOT
BRANCH   2   7
ATOM      7  C   LIG    1       25.401 -28.249   7.975  0.00  0.00    -0.025 A 
ATOM      8  C   LIG    1       26.598 -27.919   8.643  0.00  0.00    +0.008 A 
ATOM      9  C   LIG    1       27.082 -28.646   9.734  0.00  0.00    +0.039 A 
ATOM     10  C   LIG    1       26.382 -29.749  10.174  0.00  0.00    +0.123 A 
ATOM     11  F   LIG    1       26.834 -30.441  11.226  0.00  0.00    -0.205 F 
ATOM     12  C   LIG    1       25.220 -30.138   9.529  0.00  0.00    +0.039 A 
ATOM     13  C   LIG    1       24.742 -29.403   8.436  0.00  0.00    +0.008 A 
ENDBRANCH   2   7
BRANCH   1  14
ATOM     14  O   LIG    1       25.620 -25.089   7.279  0.00  0.00    -0.342 OA
BRANCH  14  16
ATOM     15  C   LIG    1       23.766 -24.687   5.755  0.00  0.00    +0.043 C 
ATOM     16  C   LIG    1       24.609 -24.134   6.908  0.00  0.00    +0.148 C 
BRANCH  16  17
ATOM     17  C   LIG    1       25.231 -22.803   6.515  0.00  0.00    -0.018 A 
ATOM     18  C   LIG    1       26.443 -22.404   7.097  0.00  0.00    +0.018 A 
ATOM     19  C   LIG    1       27.055 -21.194   6.741  0.00  0.00    +0.056 A 
ATOM     20  C   LIG    1       26.446 -20.389   5.766  0.00  0.00    +0.024 A 
ATOM     21  C   LIG    1       25.235 -20.772   5.163  0.00  0.00    +0.056 A 
ATOM     22  C   LIG    1       24.647 -21.989   5.534  0.00  0.00    +0.018 A 
BRANCH  19  23
ATOM     23  C   LIG    1       28.328 -20.772   7.436  0.00  0.00    +0.417 C 
ATOM     24  F   LIG    1       29.363 -20.592   6.569  0.00  0.00    -0.166 F 
ATOM     25  F   LIG    1       28.750 -21.704   8.334  0.00  0.00    -0.166 F 
ATOM     26  F   LIG    1       28.212 -19.608   8.131  0.00  0.00    -0.166 F 
ENDBRANCH  19  23
BRANCH  21  27
ATOM     27  C   LIG    1       24.579 -19.890   4.127  0.00  0.00    +0.417 C 
ATOM     28  F   LIG    1       23.467 -19.268   4.600  0.00  0.00    -0.166 F 
ATOM     29  F   LIG    1       24.184 -20.584   3.025  0.00  0.00    -0.166 F 
ATOM     30  F   LIG    1       25.400 -18.904   3.670  0.00  0.00    -0.166 F 
ENDBRANCH  21  27
ENDBRANCH  16  17
ENDBRANCH  14  16
ENDBRANCH   1  14
BRANCH   3  31
ATOM     31  C   LIG    1       23.627 -29.225   5.343  0.00  0.00    +0.161 C 
BRANCH  31  32
ATOM     32  C   LIG    1       24.142 -30.638   5.512  0.00  0.00    +0.145 C 
ATOM     33  N   LIG    1       25.155 -31.101   4.765  0.00  0.00    -0.292 N 
ATOM     34  H   LIG    1       25.746 -30.644   4.100  0.00  0.00    +0.172 HD
ATOM     35  C   LIG    1       25.361 -32.397   5.169  0.00  0.00    +0.342 C 
ATOM     36  O   LIG    1       26.236 -33.129   4.787  0.00  0.00    -0.245 OA
ATOM     37  N   LIG    1       24.394 -32.637   6.123  0.00  0.00    -0.227 N 
ATOM     38  H   LIG    1       24.244 -33.512   6.602  0.00  0.00    +0.194 HD
ATOM     39  N   LIG    1       23.630 -31.520   6.334  0.00  0.00    -0.155 NA
ENDBRANCH  31  32
ENDBRANCH   3  31
TORSDOF 8
ENDMDL
MODEL 9
REMARK VINA RESULT:      -7.9      8.774     11.835
REMARK  Name = *****
REMARK                            x       y       z     vdW  Elec       q    Type
REMARK                         _______ _______ _______ _____ _____    ______ ____
ROOT
ATOM      1  C   LIG    1       23.632 -30.849  11.526  0.00  0.00    +0.272 C 
ATOM      2  C   LIG    1       22.567 -29.815  12.057  0.00  0.00    +0.144 C 
ATOM      3  N   LIG    1       21.724 -30.623  12.989  0.00  0.00    -0.282 NA
ATOM      4  C   LIG    1       22.544 -31.157  14.096  0.00  0.00    +0.113 C 
ATOM      5  C   LIG    1       23.862 -31.834  13.628  0.00  0.00    +0.178 C 
ATOM      6  O   LIG    1       24.553 -31.146  12.579  0.00  0.00    -0.348 OA
ENDROOT
BRANCH   2   7
ATOM      7  C   LIG    1       23.152 -28.499  12.631  0.00  0.00    -0.025 A 
ATOM      8  C   LIG    1       24.532 -28.267  12.807  0.00  0.00    +0.008 A 
ATOM      9  C   LIG    1       25.040 -27.067  13.311  0.00  0.00    +0.039 A 
ATOM     10  C   LIG    1       24.168 -26.066  13.677  0.00  0.00    +0.123 A 
ATOM     11  F   LIG    1       24.650 -24.910  14.148  0.00  0.00    -0.205 F 
ATOM     12  C   LIG    1       22.801 -26.255  13.559  0.00  0.00    +0.039 A 
ATOM     13  C   LIG    1       22.299 -27.462  13.053  0.00  0.00    +0.008 A 
ENDBRANCH   2   7
BRANCH   1  14
ATOM     14  O   LIG    1       24.284 -30.458  10.308  0.00  0.00    -0.342 OA
BRANCH  14  16
ATOM     15  C   LIG    1       22.998 -32.164   9.145  0.00  0.00    +0.043 C 
ATOM     16  C   LIG    1       23.456 -30.703   9.157  0.00  0.00    +0.148 C 
BRANCH  16  17
ATOM     17  C   LIG    1       24.195 -30.372   7.870  0.00  0.00    -0.018 A 
ATOM     18  C   LIG    1       24.703 -31.409   7.074  0.00  0.00    +0.018 A 
ATOM     19  C   LIG    1       25.369 -31.140   5.870  0.00  0.00    +0.056 A 
ATOM     20  C   LIG    1       25.502 -29.806   5.454  0.00  0.00    +0.024 A 
ATOM     21  C   LIG    1       24.993 -28.751   6.230  0.00  0.00    +0.056 A 
ATOM     22  C   LIG    1       24.327 -29.048   7.427  0.00  0.00    +0.018 A 
BRANCH  19  23
ATOM     23  C   LIG    1       25.956 -32.281   5.074  0.00  0.00    +0.417 C 
ATOM     24  F   LIG    1       25.211 -33.418   5.161  0.00  0.00    -0.166 F 
ATOM     25  F   LIG    1       27.202 -32.617   5.508  0.00  0.00    -0.166 F 
ATOM     26  F   LIG    1       26.082 -32.014   3.746  0.00  0.00    -0.166 F 
ENDBRANCH  19  23
BRANCH  21  27
ATOM     27  C   LIG    1       25.155 -27.318   5.780  0.00  0.00    +0.417 C 
ATOM     28  F   LIG    1       23.972 -26.650   5.731  0.00  0.00    -0.166 F 
ATOM     29  F   LIG    1       25.697 -27.218   4.536  0.00  0.00    -0.166 F 
ATOM     30  F   LIG    1       25.967 -26.592   6.598  0.00  0.00    -0.166 F 
ENDBRANCH  21  27
ENDBRANCH  16  17
ENDBRANCH  14  16
ENDBRANCH   1  14
BRANCH   3  31
ATOM     31  C   LIG    1       20.389 -30.172  13.403  0.00  0.00    +0.161 C 
BRANCH  31  32
ATOM     32  C   LIG    1       19.282 -30.651  12.489  0.00  0.00    +0.145 C 
ATOM     33  N   LIG    1       19.493 -30.824  11.176  0.00  0.00    -0.292 N 
ATOM     34  H   LIG    1       20.327 -30.760  10.628  0.00  0.00    +0.172 HD
ATOM     35  C   LIG    1       18.298 -31.256  10.655  0.00  0.00    +0.342 C 
ATOM     36  O   LIG    1       18.099 -31.591   9.517  0.00  0.00    -0.245 OA
ATOM     37  N   LIG    1       17.420 -31.264  11.720  0.00  0.00    -0.227 N 
ATOM     38  H   LIG    1       16.441 -31.501  11.674  0.00  0.00    +0.194 HD
ATOM     39  N   LIG    1       18.052 -30.883  12.874  0.00  0.00    -0.155 NA
ENDBRANCH  31  32
ENDBRANCH   3  31
TORSDOF 8
ENDMDL
