MODEL 1
REMARK VINA RESULT:      -6.0      0.000      0.000
REMARK  Name = *****
REMARK                            x       y       z     vdW  Elec       q    Type
REMARK                         _______ _______ _______ _____ _____    ______ ____
ROOT
ATOM      1  C   LIG    1       26.103 -29.645  11.969  0.00  0.00    +0.065 C 
ATOM      2  C   LIG    1       24.737 -29.679  11.254  0.00  0.00    +0.096 C 
ATOM      3  C   LIG    1       23.593 -29.939  12.272  0.00  0.00    +0.065 C 
ATOM      4  C   LIG    1       23.859 -30.507  13.478  0.00  0.00    +0.016 C 
ATOM      5  C   LIG    1       22.863 -30.785  14.581  0.00  0.00    +0.061 C 
ATOM      6  N   LIG    1       25.170 -30.831  13.802  0.00  0.00    -0.321 N 
ATOM      7  H   LIG    1       25.322 -31.110  14.770  0.00  0.00    +0.152 HD
ATOM      8  C   LIG    1       26.263 -30.260  13.168  0.00  0.00    +0.016 C 
ATOM      9  C   LIG    1       27.560 -30.378  13.930  0.00  0.00    +0.061 C 
ENDROOT
BRANCH   2  10
ATOM     10  C   LIG    1       24.726 -30.675  10.054  0.00  0.00    -0.028 A 
ATOM     11  C   LIG    1       25.093 -30.343   8.717  0.00  0.00    -0.021 A 
ATOM     12  C   LIG    1       25.021 -31.334   7.711  0.00  0.00    +0.008 A 
ATOM     13  C   LIG    1       24.653 -32.642   7.994  0.00  0.00    +0.001 A 
ATOM     14  C   LIG    1       24.326 -32.985   9.295  0.00  0.00    +0.000 A 
ATOM     15  C   LIG    1       24.352 -32.018  10.306  0.00  0.00    +0.005 A 
BRANCH  11  16
ATOM     16  C   LIG    1       25.485 -28.991   8.281  0.00  0.00    +0.015 C 
ATOM     17  C   LIG    1       25.204 -28.447   7.074  0.00  0.00    +0.092 C 
BRANCH  17  18
ATOM     18  C   LIG    1       25.624 -27.082   6.696  0.00  0.00    +0.332 C 
ATOM     19  O   LIG    1       26.795 -26.793   6.442  0.00  0.00    -0.246 OA
BRANCH  18  20
ATOM     20  O   LIG    1       24.557 -26.263   6.720  0.00  0.00    -0.456 OA
BRANCH  20  21
ATOM     21  C   LIG    1       24.653 -24.886   6.302  0.00  0.00    +0.105 C 
ATOM     22  C   LIG    1       25.699 -24.152   7.145  0.00  0.00    +0.055 C 
ATOM     23  C   LIG    1       23.272 -24.298   6.630  0.00  0.00    +0.055 C 
ATOM     24  C   LIG    1       24.925 -24.767   4.804  0.00  0.00    +0.055 C 
ENDBRANCH  20  21
ENDBRANCH  18  20
ENDBRANCH  17  18
ENDBRANCH  11  16
ENDBRANCH   2  10
BRANCH   1  25
ATOM     25  C   LIG    1       27.145 -28.805  11.316  0.00  0.00    +0.338 C 
ATOM     26  O   LIG    1       28.090 -29.253  10.692  0.00  0.00    -0.245 OA
BRANCH  25  27
ATOM     27  O   LIG    1       26.831 -27.487  11.416  0.00  0.00    -0.462 OA
BRANCH  27  29
ATOM     28  C   LIG    1       25.688 -26.229  13.137  0.00  0.00    +0.048 C 
ATOM     29  C   LIG    1       26.992 -26.873  12.701  0.00  0.00    +0.229 C 
ENDBRANCH  27  29
ENDBRANCH  25  27
ENDBRANCH   1  25
BRANCH   3  30
ATOM     30  C   LIG    1       22.243 -29.379  11.982  0.00  0.00    +0.338 C 
ATOM     31  O   LIG    1       21.347 -29.962  11.382  0.00  0.00    -0.245 OA
BRANCH  30  32
ATOM     32  O   LIG    1       22.165 -28.130  12.496  0.00  0.00    -0.462 OA
BRANCH  32  33
ATOM     33  C   LIG    1       21.077 -27.839  13.387  0.00  0.00    +0.229 C 
ATOM     34  C   LIG    1       20.355 -26.569  12.971  0.00  0.00    +0.048 C 
ENDBRANCH  32  33
ENDBRANCH  30  32
ENDBRANCH   3  30
TORSDOF 11
ENDMDL
MODEL 2
REMARK VINA RESULT:      -5.7      2.144      6.845
REMARK  Name = *****
REMARK                            x       y       z     vdW  Elec       q    Type
REMARK                         _______ _______ _______ _____ _____    ______ ____
ROOT
ATOM      1  C   LIG    1       24.038 -31.439   9.161  0.00  0.00    +0.065 C 
ATOM      2  C   LIG    1       24.464 -29.960   9.065  0.00  0.00    +0.096 C 
ATOM      3  C   LIG    1       24.903 -29.609   7.618  0.00  0.00    +0.065 C 
ATOM      4  C   LIG    1       25.280 -30.590   6.755  0.00  0.00    +0.016 C 
ATOM      5  C   LIG    1       25.692 -30.408   5.311  0.00  0.00    +0.061 C 
ATOM      6  N   LIG    1       25.246 -31.913   7.173  0.00  0.00    -0.321 N 
ATOM      7  H   LIG    1       25.393 -32.605   6.439  0.00  0.00    +0.152 HD
ATOM      8  C   LIG    1       24.486 -32.341   8.251  0.00  0.00    +0.016 C 
ATOM      9  C   LIG    1       24.218 -33.825   8.279  0.00  0.00    +0.061 C 
ENDROOT
BRANCH   2  10
ATOM     10  C   LIG    1       25.537 -29.588  10.136  0.00  0.00    -0.028 A 
ATOM     11  C   LIG    1       25.245 -29.123  11.452  0.00  0.00    -0.021 A 
ATOM     12  C   LIG    1       26.309 -28.798  12.324  0.00  0.00    +0.008 A 
ATOM     13  C   LIG    1       27.637 -28.969  11.958  0.00  0.00    +0.001 A 
ATOM     14  C   LIG    1       27.933 -29.452  10.695  0.00  0.00    +0.000 A 
ATOM     15  C   LIG    1       26.902 -29.746   9.795  0.00  0.00    +0.005 A 
BRANCH  11  16
ATOM     16  C   LIG    1       23.883 -28.882  11.959  0.00  0.00    +0.015 C 
ATOM     17  C   LIG    1       23.344 -29.458  13.058  0.00  0.00    +0.092 C 
BRANCH  17  18
ATOM     18  C   LIG    1       21.969 -29.173  13.518  0.00  0.00    +0.332 C 
ATOM     19  O   LIG    1       20.976 -29.690  13.003  0.00  0.00    -0.246 OA
BRANCH  18  20
ATOM     20  O   LIG    1       22.009 -28.270  14.513  0.00  0.00    -0.456 OA
BRANCH  20  21
ATOM     21  C   LIG    1       21.600 -26.901  14.307  0.00  0.00    +0.105 C 
ATOM     22  C   LIG    1       20.826 -26.776  12.993  0.00  0.00    +0.055 C 
ATOM     23  C   LIG    1       22.922 -26.132  14.164  0.00  0.00    +0.055 C 
ATOM     24  C   LIG    1       20.813 -26.361  15.500  0.00  0.00    +0.055 C 
ENDBRANCH  20  21
ENDBRANCH  18  20
ENDBRANCH  17  18
ENDBRANCH  11  16
ENDBRANCH   2  10
BRANCH   1  25
ATOM     25  C   LIG    1       23.031 -31.746  10.215  0.00  0.00    +0.338 C 
ATOM     26  O   LIG    1       23.277 -32.369  11.232  0.00  0.00    -0.245 OA
BRANCH  25  27
ATOM     27  O   LIG    1       21.846 -31.141   9.939  0.00  0.00    -0.462 OA
BRANCH  27  29
ATOM     28  C   LIG    1       19.453 -30.952  10.237  0.00  0.00    +0.048 C 
ATOM     29  C   LIG    1       20.653 -31.882  10.223  0.00  0.00    +0.229 C 
ENDBRANCH  27  29
ENDBRANCH  25  27
ENDBRANCH   1  25
BRANCH   3  30
ATOM     30  C   LIG    1       24.716 -28.211   7.138  0.00  0.00    +0.338 C 
ATOM     31  O   LIG    1       23.701 -27.773   6.607  0.00  0.00    -0.245 OA
BRANCH  30  32
ATOM     32  O   LIG    1       25.841 -27.504   7.390  0.00  0.00    -0.462 OA
BRANCH  32  33
ATOM     33  C   LIG    1       26.350 -26.658   6.348  0.00  0.00    +0.229 C 
ATOM     34  C   LIG    1       25.879 -25.226   6.527  0.00  0.00    +0.048 C 
ENDBRANCH  32  33
ENDBRANCH  30  32
ENDBRANCH   3  30
TORSDOF 11
ENDMDL
MODEL 3
REMARK VINA RESULT:      -5.6      3.111      6.790
REMARK  Name = *****
REMARK                            x       y       z     vdW  Elec       q    Type
REMARK                         _______ _______ _______ _____ _____    ______ ____
ROOT
ATOM      1  C   LIG    1       25.589 -29.525  13.203  0.00  0.00    +0.065 C 
ATOM      2  C   LIG    1       24.400 -29.680  12.233  0.00  0.00    +0.096 C 
ATOM      3  C   LIG    1       24.877 -29.569  10.760  0.00  0.00    +0.065 C 
ATOM      4  C   LIG    1       26.057 -28.963  10.460  0.00  0.00    +0.016 C 
ATOM      5  C   LIG    1       26.669 -28.814   9.086  0.00  0.00    +0.061 C 
ATOM      6  N   LIG    1       26.845 -28.464  11.489  0.00  0.00    -0.321 N 
ATOM      7  H   LIG    1       27.778 -28.161  11.214  0.00  0.00    +0.152 HD
ATOM      8  C   LIG    1       26.719 -28.887  12.804  0.00  0.00    +0.016 C 
ATOM      9  C   LIG    1       27.915 -28.591  13.674  0.00  0.00    +0.061 C 
ENDROOT
BRANCH   2  10
ATOM     10  C   LIG    1       23.234 -28.701  12.573  0.00  0.00    -0.028 A 
ATOM     11  C   LIG    1       21.850 -29.042  12.539  0.00  0.00    -0.021 A 
ATOM     12  C   LIG    1       20.885 -28.057  12.850  0.00  0.00    +0.008 A 
ATOM     13  C   LIG    1       21.244 -26.775  13.241  0.00  0.00    +0.001 A 
ATOM     14  C   LIG    1       22.586 -26.441  13.310  0.00  0.00    +0.000 A 
ATOM     15  C   LIG    1       23.564 -27.383  12.972  0.00  0.00    +0.005 A 
BRANCH  11  16
ATOM     16  C   LIG    1       21.334 -30.359  12.125  0.00  0.00    +0.015 C 
ATOM     17  C   LIG    1       20.871 -30.665  10.892  0.00  0.00    +0.092 C 
BRANCH  17  18
ATOM     18  C   LIG    1       20.367 -32.008  10.537  0.00  0.00    +0.332 C 
ATOM     19  O   LIG    1       20.882 -32.699   9.655  0.00  0.00    -0.246 OA
BRANCH  18  20
ATOM     20  O   LIG    1       19.288 -32.293  11.286  0.00  0.00    -0.456 OA
BRANCH  20  21
ATOM     21  C   LIG    1       17.961 -32.316  10.719  0.00  0.00    +0.105 C 
ATOM     22  C   LIG    1       17.823 -31.221   9.658  0.00  0.00    +0.055 C 
ATOM     23  C   LIG    1       17.043 -31.963  11.899  0.00  0.00    +0.055 C 
ATOM     24  C   LIG    1       17.601 -33.699  10.178  0.00  0.00    +0.055 C 
ENDBRANCH  20  21
ENDBRANCH  18  20
ENDBRANCH  17  18
ENDBRANCH  11  16
ENDBRANCH   2  10
BRANCH   1  25
ATOM     25  C   LIG    1       25.442 -30.222  14.510  0.00  0.00    +0.338 C 
ATOM     26  O   LIG    1       24.940 -29.718  15.499  0.00  0.00    -0.245 OA
BRANCH  25  27
ATOM     27  O   LIG    1       25.835 -31.519  14.411  0.00  0.00    -0.462 OA
BRANCH  27  29
ATOM     28  C   LIG    1       23.899 -32.878  13.906  0.00  0.00    +0.048 C 
ATOM     29  C   LIG    1       24.948 -32.513  14.940  0.00  0.00    +0.229 C 
ENDBRANCH  27  29
ENDBRANCH  25  27
ENDBRANCH   1  25
BRANCH   3  30
ATOM     30  C   LIG    1       24.120 -30.306   9.710  0.00  0.00    +0.338 C 
ATOM     31  O   LIG    1       23.570 -29.796   8.740  0.00  0.00    -0.245 OA
BRANCH  30  32
ATOM     32  O   LIG    1       24.145 -31.629   9.996  0.00  0.00    -0.462 OA
BRANCH  32  33
ATOM     33  C   LIG    1       25.287 -32.386   9.566  0.00  0.00    +0.229 C 
ATOM     34  C   LIG    1       25.509 -33.595  10.457  0.00  0.00    +0.048 C 
ENDBRANCH  32  33
ENDBRANCH  30  32
ENDBRANCH   3  30
TORSDOF 11
ENDMDL
MODEL 4
REMARK VINA RESULT:      -5.5      1.790      3.989
REMARK  Name = *****
REMARK                            x       y       z     vdW  Elec       q    Type
REMARK                         _______ _______ _______ _____ _____    ______ ____
ROOT
ATOM      1  C   LIG    1       23.110 -29.589  13.006  0.00  0.00    +0.065 C 
ATOM      2  C   LIG    1       23.688 -29.995  11.635  0.00  0.00    +0.096 C 
ATOM      3  C   LIG    1       23.335 -31.471  11.307  0.00  0.00    +0.065 C 
ATOM      4  C   LIG    1       22.995 -32.336  12.299  0.00  0.00    +0.016 C 
ATOM      5  C   LIG    1       22.590 -33.783  12.132  0.00  0.00    +0.061 C 
ATOM      6  N   LIG    1       22.943 -31.880  13.610  0.00  0.00    -0.321 N 
ATOM      7  H   LIG    1       22.539 -32.531  14.281  0.00  0.00    +0.152 HD
ATOM      8  C   LIG    1       22.819 -30.537  13.933  0.00  0.00    +0.016 C 
ATOM      9  C   LIG    1       22.333 -30.274  15.337  0.00  0.00    +0.061 C 
ENDROOT
BRANCH   2  10
ATOM     10  C   LIG    1       25.215 -29.694  11.529  0.00  0.00    -0.028 A 
ATOM     11  C   LIG    1       25.866 -29.195  10.363  0.00  0.00    -0.021 A 
ATOM     12  C   LIG    1       27.264 -28.982  10.386  0.00  0.00    +0.008 A 
ATOM     13  C   LIG    1       28.019 -29.192  11.532  0.00  0.00    +0.001 A 
ATOM     14  C   LIG    1       27.392 -29.644  12.681  0.00  0.00    +0.000 A 
ATOM     15  C   LIG    1       26.016 -29.901  12.677  0.00  0.00    +0.005 A 
BRANCH  11  16
ATOM     16  C   LIG    1       25.186 -28.947   9.079  0.00  0.00    +0.015 C 
ATOM     17  C   LIG    1       25.788 -28.522   7.945  0.00  0.00    +0.092 C 
BRANCH  17  18
ATOM     18  C   LIG    1       25.049 -28.293   6.686  0.00  0.00    +0.332 C 
ATOM     19  O   LIG    1       24.828 -29.192   5.872  0.00  0.00    -0.246 OA
BRANCH  18  20
ATOM     20  O   LIG    1       24.723 -26.992   6.589  0.00  0.00    -0.456 OA
BRANCH  20  21
ATOM     21  C   LIG    1       25.586 -26.045   5.925  0.00  0.00    +0.105 C 
ATOM     22  C   LIG    1       26.951 -26.680   5.649  0.00  0.00    +0.055 C 
ATOM     23  C   LIG    1       25.775 -24.923   6.956  0.00  0.00    +0.055 C 
ATOM     24  C   LIG    1       24.940 -25.482   4.660  0.00  0.00    +0.055 C 
ENDBRANCH  20  21
ENDBRANCH  18  20
ENDBRANCH  17  18
ENDBRANCH  11  16
ENDBRANCH   2  10
BRANCH   1  25
ATOM     25  C   LIG    1       22.792 -28.143  13.163  0.00  0.00    +0.338 C 
ATOM     26  O   LIG    1       21.798 -27.609  12.702  0.00  0.00    -0.245 OA
BRANCH  25  27
ATOM     27  O   LIG    1       23.696 -27.538  13.977  0.00  0.00    -0.462 OA
BRANCH  27  29
ATOM     28  C   LIG    1       25.646 -26.282  13.294  0.00  0.00    +0.048 C 
ATOM     29  C   LIG    1       24.158 -26.238  13.588  0.00  0.00    +0.229 C 
ENDBRANCH  27  29
ENDBRANCH  25  27
ENDBRANCH   1  25
BRANCH   3  30
ATOM     30  C   LIG    1       23.186 -31.865   9.878  0.00  0.00    +0.338 C 
ATOM     31  O   LIG    1       22.178 -31.707   9.199  0.00  0.00    -0.245 OA
BRANCH  30  32
ATOM     32  O   LIG    1       24.345 -32.417   9.450  0.00  0.00    -0.462 OA
BRANCH  32  33
ATOM     33  C   LIG    1       24.637 -32.358   8.045  0.00  0.00    +0.229 C 
ATOM     34  C   LIG    1       26.134 -32.274   7.801  0.00  0.00    +0.048 C 
ENDBRANCH  32  33
ENDBRANCH  30  32
ENDBRANCH   3  30
TORSDOF 11
ENDMDL
MODEL 5
REMARK VINA RESULT:      -5.4      2.878      6.780
REMARK  Name = *****
REMARK                            x       y       z     vdW  Elec       q    Type
REMARK                         _______ _______ _______ _____ _____    ______ ____
ROOT
ATOM      1  C   LIG    1       22.370 -31.553  10.079  0.00  0.00    +0.065 C 
ATOM      2  C   LIG    1       23.607 -30.652  10.271  0.00  0.00    +0.096 C 
ATOM      3  C   LIG    1       24.571 -30.781   9.061  0.00  0.00    +0.065 C 
ATOM      4  C   LIG    1       24.514 -31.867   8.246  0.00  0.00    +0.016 C 
ATOM      5  C   LIG    1       25.355 -32.113   7.014  0.00  0.00    +0.061 C 
ATOM      6  N   LIG    1       23.566 -32.852   8.491  0.00  0.00    -0.321 N 
ATOM      7  H   LIG    1       23.474 -33.559   7.763  0.00  0.00    +0.152 HD
ATOM      8  C   LIG    1       22.426 -32.625   9.248  0.00  0.00    +0.016 C 
ATOM      9  C   LIG    1       21.324 -33.632   9.037  0.00  0.00    +0.061 C 
ENDROOT
BRANCH   2  10
ATOM     10  C   LIG    1       24.309 -30.904  11.642  0.00  0.00    -0.028 A 
ATOM     11  C   LIG    1       24.313 -29.987  12.733  0.00  0.00    -0.021 A 
ATOM     12  C   LIG    1       25.005 -30.324  13.920  0.00  0.00    +0.008 A 
ATOM     13  C   LIG    1       25.639 -31.549  14.077  0.00  0.00    +0.001 A 
ATOM     14  C   LIG    1       25.613 -32.462  13.036  0.00  0.00    +0.000 A 
ATOM     15  C   LIG    1       24.969 -32.142  11.835  0.00  0.00    +0.005 A 
BRANCH  11  16
ATOM     16  C   LIG    1       23.696 -28.650  12.691  0.00  0.00    +0.015 C 
ATOM     17  C   LIG    1       22.459 -28.345  13.148  0.00  0.00    +0.092 C 
BRANCH  17  18
ATOM     18  C   LIG    1       21.895 -26.981  13.079  0.00  0.00    +0.332 C 
ATOM     19  O   LIG    1       22.589 -25.969  13.197  0.00  0.00    -0.246 OA
BRANCH  18  20
ATOM     20  O   LIG    1       20.563 -27.056  12.913  0.00  0.00    -0.456 OA
BRANCH  20  21
ATOM     21  C   LIG    1       19.662 -27.086  14.040  0.00  0.00    +0.105 C 
ATOM     22  C   LIG    1       18.500 -26.117  13.809  0.00  0.00    +0.055 C 
ATOM     23  C   LIG    1       20.506 -26.557  15.209  0.00  0.00    +0.055 C 
ATOM     24  C   LIG    1       19.185 -28.504  14.346  0.00  0.00    +0.055 C 
ENDBRANCH  20  21
ENDBRANCH  18  20
ENDBRANCH  17  18
ENDBRANCH  11  16
ENDBRANCH   2  10
BRANCH   1  25
ATOM     25  C   LIG    1       21.128 -31.084  10.753  0.00  0.00    +0.338 C 
ATOM     26  O   LIG    1       20.146 -30.671  10.162  0.00  0.00    -0.245 OA
BRANCH  25  27
ATOM     27  O   LIG    1       21.201 -31.290  12.094  0.00  0.00    -0.462 OA
BRANCH  27  29
ATOM     28  C   LIG    1       21.817 -32.838  13.847  0.00  0.00    +0.048 C 
ATOM     29  C   LIG    1       21.040 -32.636  12.559  0.00  0.00    +0.229 C 
ENDBRANCH  27  29
ENDBRANCH  25  27
ENDBRANCH   1  25
BRANCH   3  30
ATOM     30  C   LIG    1       25.418 -29.609   8.700  0.00  0.00    +0.338 C 
ATOM     31  O   LIG    1       25.100 -28.715   7.926  0.00  0.00    -0.245 OA
BRANCH  30  32
ATOM     32  O   LIG    1       26.590 -29.690   9.372  0.00  0.00    -0.462 OA
BRANCH  32  33
ATOM     33  C   LIG    1       26.904 -28.641  10.301  0.00  0.00    +0.229 C 
ATOM     34  C   LIG    1       27.775 -29.155  11.434  0.00  0.00    +0.048 C 
ENDBRANCH  32  33
ENDBRANCH  30  32
ENDBRANCH   3  30
TORSDOF 11
ENDMDL
MODEL 6
REMARK VINA RESULT:      -5.1      2.499      5.398
REMARK  Name = *****
REMARK                            x       y       z     vdW  Elec       q    Type
REMARK                         _______ _______ _______ _____ _____    ______ ____
ROOT
ATOM      1  C   LIG    1       22.814 -31.274  10.170  0.00  0.00    +0.065 C 
ATOM      2  C   LIG    1       23.733 -30.583   9.142  0.00  0.00    +0.096 C 
ATOM      3  C   LIG    1       23.939 -31.487   7.897  0.00  0.00    +0.065 C 
ATOM      4  C   LIG    1       23.718 -32.827   7.974  0.00  0.00    +0.016 C 
ATOM      5  C   LIG    1       23.838 -33.825   6.844  0.00  0.00    +0.061 C 
ATOM      6  N   LIG    1       23.283 -33.376   9.172  0.00  0.00    -0.321 N 
ATOM      7  H   LIG    1       22.993 -34.352   9.123  0.00  0.00    +0.152 HD
ATOM      8  C   LIG    1       22.677 -32.624  10.167  0.00  0.00    +0.016 C 
ATOM      9  C   LIG    1       21.884 -33.430  11.166  0.00  0.00    +0.061 C 
ENDROOT
BRANCH   2  10
ATOM     10  C   LIG    1       25.074 -30.107   9.780  0.00  0.00    -0.028 A 
ATOM     11  C   LIG    1       25.824 -28.974   9.347  0.00  0.00    -0.021 A 
ATOM     12  C   LIG    1       27.040 -28.657   9.996  0.00  0.00    +0.008 A 
ATOM     13  C   LIG    1       27.503 -29.385  11.083  0.00  0.00    +0.001 A 
ATOM     14  C   LIG    1       26.766 -30.468  11.535  0.00  0.00    +0.000 A 
ATOM     15  C   LIG    1       25.578 -30.829  10.889  0.00  0.00    +0.005 A 
BRANCH  11  16
ATOM     16  C   LIG    1       25.454 -28.130   8.198  0.00  0.00    +0.015 C 
ATOM     17  C   LIG    1       26.317 -27.403   7.451  0.00  0.00    +0.092 C 
BRANCH  17  18
ATOM     18  C   LIG    1       25.883 -26.575   6.307  0.00  0.00    +0.332 C 
ATOM     19  O   LIG    1       25.711 -27.039   5.178  0.00  0.00    -0.246 OA
BRANCH  18  20
ATOM     20  O   LIG    1       25.761 -25.296   6.702  0.00  0.00    -0.456 OA
BRANCH  20  21
ATOM     21  C   LIG    1       24.869 -24.380   6.031  0.00  0.00    +0.105 C 
ATOM     22  C   LIG    1       24.909 -24.620   4.520  0.00  0.00    +0.055 C 
ATOM     23  C   LIG    1       25.470 -22.996   6.316  0.00  0.00    +0.055 C 
ATOM     24  C   LIG    1       23.451 -24.457   6.595  0.00  0.00    +0.055 C 
ENDBRANCH  20  21
ENDBRANCH  18  20
ENDBRANCH  17  18
ENDBRANCH  11  16
ENDBRANCH   2  10
BRANCH   1  25
ATOM     25  C   LIG    1       22.026 -30.357  11.040  0.00  0.00    +0.338 C 
ATOM     26  O   LIG    1       22.470 -29.810  12.034  0.00  0.00    -0.245 OA
BRANCH  25  27
ATOM     27  O   LIG    1       20.796 -30.130  10.509  0.00  0.00    -0.462 OA
BRANCH  27  29
ATOM     28  C   LIG    1       19.652 -30.716  12.558  0.00  0.00    +0.048 C 
ATOM     29  C   LIG    1       19.702 -30.882  11.050  0.00  0.00    +0.229 C 
ENDBRANCH  27  29
ENDBRANCH  25  27
ENDBRANCH   1  25
BRANCH   3  30
ATOM     30  C   LIG    1       24.189 -30.837   6.580  0.00  0.00    +0.338 C 
ATOM     31  O   LIG    1       23.334 -30.325   5.867  0.00  0.00    -0.245 OA
BRANCH  30  32
ATOM     32  O   LIG    1       25.513 -30.897   6.305  0.00  0.00    -0.462 OA
BRANCH  32  33
ATOM     33  C   LIG    1       25.921 -31.606   5.125  0.00  0.00    +0.229 C 
ATOM     34  C   LIG    1       26.964 -32.659   5.453  0.00  0.00    +0.048 C 
ENDBRANCH  32  33
ENDBRANCH  30  32
ENDBRANCH   3  30
TORSDOF 11
ENDMDL
MODEL 7
REMARK VINA RESULT:      -4.9      3.078      6.853
REMARK  Name = *****
REMARK                            x       y       z     vdW  Elec       q    Type
REMARK                         _______ _______ _______ _____ _____    ______ ____
ROOT
ATOM      1  C   LIG    1       24.707 -30.901  13.574  0.00  0.00    +0.065 C 
ATOM      2  C   LIG    1       24.440 -30.028  12.331  0.00  0.00    +0.096 C 
ATOM      3  C   LIG    1       25.772 -29.662  11.623  0.00  0.00    +0.065 C 
ATOM      4  C   LIG    1       26.951 -29.723  12.296  0.00  0.00    +0.016 C 
ATOM      5  C   LIG    1       28.325 -29.436  11.734  0.00  0.00    +0.061 C 
ATOM      6  N   LIG    1       26.956 -30.140  13.621  0.00  0.00    -0.321 N 
ATOM      7  H   LIG    1       27.878 -30.309  14.020  0.00  0.00    +0.152 HD
ATOM      8  C   LIG    1       25.921 -30.874  14.180  0.00  0.00    +0.016 C 
ATOM      9  C   LIG    1       26.287 -31.608  15.447  0.00  0.00    +0.061 C 
ENDROOT
BRANCH   2  10
ATOM     10  C   LIG    1       23.563 -28.782  12.666  0.00  0.00    -0.028 A 
ATOM     11  C   LIG    1       22.142 -28.737  12.563  0.00  0.00    -0.021 A 
ATOM     12  C   LIG    1       21.461 -27.537  12.877  0.00  0.00    +0.008 A 
ATOM     13  C   LIG    1       22.132 -26.412  13.336  0.00  0.00    +0.001 A 
ATOM     14  C   LIG    1       23.509 -26.454  13.471  0.00  0.00    +0.000 A 
ATOM     15  C   LIG    1       24.214 -27.615  13.133  0.00  0.00    +0.005 A 
BRANCH  11  16
ATOM     16  C   LIG    1       21.313 -29.852  12.074  0.00  0.00    +0.015 C 
ATOM     17  C   LIG    1       21.578 -30.602  10.979  0.00  0.00    +0.092 C 
BRANCH  17  18
ATOM     18  C   LIG    1       20.706 -31.712  10.540  0.00  0.00    +0.332 C 
ATOM     19  O   LIG    1       20.919 -32.356   9.511  0.00  0.00    -0.246 OA
BRANCH  18  20
ATOM     20  O   LIG    1       19.684 -31.845  11.403  0.00  0.00    -0.456 OA
BRANCH  20  21
ATOM     21  C   LIG    1       18.322 -31.975  10.945  0.00  0.00    +0.105 C 
ATOM     22  C   LIG    1       18.054 -33.413  10.493  0.00  0.00    +0.055 C 
ATOM     23  C   LIG    1       18.251 -31.062   9.713  0.00  0.00    +0.055 C 
ATOM     24  C   LIG    1       17.323 -31.502  12.000  0.00  0.00    +0.055 C 
ENDBRANCH  20  21
ENDBRANCH  18  20
ENDBRANCH  17  18
ENDBRANCH  11  16
ENDBRANCH   2  10
BRANCH   1  25
ATOM     25  C   LIG    1       23.606 -31.830  13.951  0.00  0.00    +0.338 C 
ATOM     26  O   LIG    1       23.363 -32.871  13.367  0.00  0.00    -0.245 OA
BRANCH  25  27
ATOM     27  O   LIG    1       22.995 -31.414  15.091  0.00  0.00    -0.462 OA
BRANCH  27  29
ATOM     28  C   LIG    1       20.739 -30.643  15.500  0.00  0.00    +0.048 C 
ATOM     29  C   LIG    1       21.644 -31.845  15.303  0.00  0.00    +0.229 C 
ENDBRANCH  27  29
ENDBRANCH  25  27
ENDBRANCH   1  25
BRANCH   3  30
ATOM     30  C   LIG    1       25.755 -29.435  10.150  0.00  0.00    +0.338 C 
ATOM     31  O   LIG    1       26.165 -28.430   9.582  0.00  0.00    -0.245 OA
BRANCH  30  32
ATOM     32  O   LIG    1       25.221 -30.520   9.543  0.00  0.00    -0.462 OA
BRANCH  32  33
ATOM     33  C   LIG    1       25.666 -30.832   8.214  0.00  0.00    +0.229 C 
ATOM     34  C   LIG    1       26.791 -31.851   8.238  0.00  0.00    +0.048 C 
ENDBRANCH  32  33
ENDBRANCH  30  32
ENDBRANCH   3  30
TORSDOF 11
ENDMDL
MODEL 8
REMARK VINA RESULT:      -4.8      3.407      6.637
REMARK  Name = *****
REMARK                            x       y       z     vdW  Elec       q    Type
REMARK                         _______ _______ _______ _____ _____    ______ ____
ROOT
ATOM      1  C   LIG    1       22.958 -30.727  12.561  0.00  0.00    +0.065 C 
ATOM      2  C   LIG    1       24.154 -29.769  12.739  0.00  0.00    +0.096 C 
ATOM      3  C   LIG    1       23.664 -28.351  13.138  0.00  0.00    +0.065 C 
ATOM      4  C   LIG    1       22.384 -27.967  12.886  0.00  0.00    +0.016 C 
ATOM      5  C   LIG    1       21.754 -26.641  13.249  0.00  0.00    +0.061 C 
ATOM      6  N   LIG    1       21.510 -28.865  12.289  0.00  0.00    -0.321 N 
ATOM      7  H   LIG    1       20.534 -28.573  12.265  0.00  0.00    +0.152 HD
ATOM      8  C   LIG    1       21.721 -30.236  12.297  0.00  0.00    +0.016 C 
ATOM      9  C   LIG    1       20.490 -31.061  12.016  0.00  0.00    +0.061 C 
ENDROOT
BRANCH   2  10
ATOM     10  C   LIG    1       25.092 -29.763  11.493  0.00  0.00    -0.028 A 
ATOM     11  C   LIG    1       26.516 -29.722  11.547  0.00  0.00    -0.021 A 
ATOM     12  C   LIG    1       27.256 -29.700  10.343  0.00  0.00    +0.008 A 
ATOM     13  C   LIG    1       26.640 -29.772   9.101  0.00  0.00    +0.001 A 
ATOM     14  C   LIG    1       25.259 -29.846   9.036  0.00  0.00    +0.000 A 
ATOM     15  C   LIG    1       24.497 -29.832  10.210  0.00  0.00    +0.005 A 
BRANCH  11  16
ATOM     16  C   LIG    1       27.292 -29.626  12.796  0.00  0.00    +0.015 C 
ATOM     17  C   LIG    1       28.635 -29.483  12.874  0.00  0.00    +0.092 C 
BRANCH  17  18
ATOM     18  C   LIG    1       29.357 -29.391  14.160  0.00  0.00    +0.332 C 
ATOM     19  O   LIG    1       28.982 -28.661  15.081  0.00  0.00    -0.246 OA
BRANCH  18  20
ATOM     20  O   LIG    1       30.449 -30.173  14.117  0.00  0.00    -0.456 OA
BRANCH  20  21
ATOM     21  C   LIG    1       31.774 -29.615  13.996  0.00  0.00    +0.105 C 
ATOM     22  C   LIG    1       32.148 -29.464  12.519  0.00  0.00    +0.055 C 
ATOM     23  C   LIG    1       32.689 -30.680  14.618  0.00  0.00    +0.055 C 
ATOM     24  C   LIG    1       31.907 -28.302  14.766  0.00  0.00    +0.055 C 
ENDBRANCH  20  21
ENDBRANCH  18  20
ENDBRANCH  17  18
ENDBRANCH  11  16
ENDBRANCH   2  10
BRANCH   1  25
ATOM     25  C   LIG    1       23.247 -32.164  12.825  0.00  0.00    +0.338 C 
ATOM     26  O   LIG    1       23.398 -33.001  11.952  0.00  0.00    -0.245 OA
BRANCH  25  27
ATOM     27  O   LIG    1       23.431 -32.382  14.154  0.00  0.00    -0.462 OA
BRANCH  27  29
ATOM     28  C   LIG    1       25.810 -32.596  14.532  0.00  0.00    +0.048 C 
ATOM     29  C   LIG    1       24.465 -33.300  14.528  0.00  0.00    +0.229 C 
ENDBRANCH  27  29
ENDBRANCH  25  27
ENDBRANCH   1  25
BRANCH   3  30
ATOM     30  C   LIG    1       24.558 -27.498  13.972  0.00  0.00    +0.338 C 
ATOM     31  O   LIG    1       24.603 -27.502  15.196  0.00  0.00    -0.245 OA
BRANCH  30  32
ATOM     32  O   LIG    1       25.316 -26.728  13.157  0.00  0.00    -0.462 OA
BRANCH  32  33
ATOM     33  C   LIG    1       25.797 -25.478  13.674  0.00  0.00    +0.229 C 
ATOM     34  C   LIG    1       27.306 -25.499  13.840  0.00  0.00    +0.048 C 
ENDBRANCH  32  33
ENDBRANCH  30  32
ENDBRANCH   3  30
TORSDOF 11
ENDMDL
MODEL 9
REMARK VINA RESULT:      -4.6      2.707      7.444
REMARK  Name = *****
REMARK                            x       y       z     vdW  Elec       q    Type
REMARK                         _______ _______ _______ _____ _____    ______ ____
ROOT
ATOM      1  C   LIG    1       24.734 -30.715   6.495  0.00  0.00    +0.065 C 
ATOM      2  C   LIG    1       24.616 -29.365   7.232  0.00  0.00    +0.096 C 
ATOM      3  C   LIG    1       25.162 -28.210   6.350  0.00  0.00    +0.065 C 
ATOM      4  C   LIG    1       26.017 -28.469   5.325  0.00  0.00    +0.016 C 
ATOM      5  C   LIG    1       26.598 -27.460   4.360  0.00  0.00    +0.061 C 
ATOM      6  N   LIG    1       26.379 -29.783   5.058  0.00  0.00    -0.321 N 
ATOM      7  H   LIG    1       26.897 -29.924   4.192  0.00  0.00    +0.152 HD
ATOM      8  C   LIG    1       25.635 -30.870   5.491  0.00  0.00    +0.016 C 
ATOM      9  C   LIG    1       25.913 -32.154   4.750  0.00  0.00    +0.061 C 
ENDROOT
BRANCH   2  10
ATOM     10  C   LIG    1       25.267 -29.412   8.649  0.00  0.00    -0.028 A 
ATOM     11  C   LIG    1       24.584 -29.779   9.846  0.00  0.00    -0.021 A 
ATOM     12  C   LIG    1       25.282 -29.762  11.076  0.00  0.00    +0.008 A 
ATOM     13  C   LIG    1       26.632 -29.450  11.149  0.00  0.00    +0.001 A 
ATOM     14  C   LIG    1       27.315 -29.124   9.989  0.00  0.00    +0.000 A 
ATOM     15  C   LIG    1       26.643 -29.096   8.762  0.00  0.00    +0.005 A 
BRANCH  11  16
ATOM     16  C   LIG    1       23.151 -30.114   9.909  0.00  0.00    +0.015 C 
ATOM     17  C   LIG    1       22.491 -30.522  11.017  0.00  0.00    +0.092 C 
BRANCH  17  18
ATOM     18  C   LIG    1       21.048 -30.842  11.016  0.00  0.00    +0.332 C 
ATOM     19  O   LIG    1       20.311 -30.586  10.061  0.00  0.00    -0.246 OA
BRANCH  18  20
ATOM     20  O   LIG    1       20.712 -31.393  12.195  0.00  0.00    -0.456 OA
BRANCH  20  21
ATOM     21  C   LIG    1       20.173 -30.600  13.273  0.00  0.00    +0.105 C 
ATOM     22  C   LIG    1       20.655 -31.146  14.619  0.00  0.00    +0.055 C 
ATOM     23  C   LIG    1       18.656 -30.819  13.179  0.00  0.00    +0.055 C 
ATOM     24  C   LIG    1       20.495 -29.116  13.099  0.00  0.00    +0.055 C 
ENDBRANCH  20  21
ENDBRANCH  18  20
ENDBRANCH  17  18
ENDBRANCH  11  16
ENDBRANCH   2  10
BRANCH   1  25
ATOM     25  C   LIG    1       23.726 -31.741   6.877  0.00  0.00    +0.338 C 
ATOM     26  O   LIG    1       22.796 -32.082   6.167  0.00  0.00    -0.245 OA
BRANCH  25  27
ATOM     27  O   LIG    1       24.053 -32.318   8.063  0.00  0.00    -0.462 OA
BRANCH  27  29
ATOM     28  C   LIG    1       26.193 -33.016   8.947  0.00  0.00    +0.048 C 
ATOM     29  C   LIG    1       25.032 -33.364   8.033  0.00  0.00    +0.229 C 
ENDBRANCH  27  29
ENDBRANCH  25  27
ENDBRANCH   1  25
BRANCH   3  30
ATOM     30  C   LIG    1       24.582 -26.849   6.523  0.00  0.00    +0.338 C 
ATOM     31  O   LIG    1       23.488 -26.485   6.108  0.00  0.00    -0.245 OA
BRANCH  30  32
ATOM     32  O   LIG    1       25.454 -26.084   7.221  0.00  0.00    -0.462 OA
BRANCH  32  33
ATOM     33  C   LIG    1       25.946 -24.888   6.597  0.00  0.00    +0.229 C 
ATOM     34  C   LIG    1       25.161 -23.671   7.054  0.00  0.00    +0.048 C 
ENDBRANCH  32  33
ENDBRANCH  30  32
ENDBRANCH   3  30
TORSDOF 11
ENDMDL
