MODEL 1
REMARK VINA RESULT:      -4.1      0.000      0.000
REMARK  Name = *****
REMARK                            x       y       z     vdW  Elec       q    Type
REMARK                         _______ _______ _______ _____ _____    ______ ____
ROOT
ATOM      1  C   LIG    1       25.509 -18.872   4.599  0.00  0.00    +0.098 C 
ENDROOT
BRANCH   1   2
ATOM      2  C   LIG    1       23.995 -19.101   4.503  0.00  0.00    -0.014 A 
ATOM      3  C   LIG    1       23.371 -20.285   4.946  0.00  0.00    +0.047 A 
ATOM      4 CL   LIG    1       24.240 -21.539   5.757  0.00  0.00    -0.083 Cl
ATOM      5  C   LIG    1       22.003 -20.501   4.737  0.00  0.00    +0.040 A 
ATOM      6  C   LIG    1       21.231 -19.525   4.114  0.00  0.00    +0.042 A 
ATOM      7 CL   LIG    1       19.551 -19.791   3.860  0.00  0.00    -0.084 Cl
ATOM      8  C   LIG    1       21.811 -18.333   3.698  0.00  0.00    +0.020 A 
ATOM      9  C   LIG    1       23.180 -18.124   3.887  0.00  0.00    +0.007 A 
ENDBRANCH   1   2
BRANCH   1  10
ATOM     10  S   LIG    1       26.059 -17.977   3.048  0.00  0.00    -0.146 S 
BRANCH  10  11
ATOM     11  C   LIG    1       26.855 -16.499   3.754  0.00  0.00    +0.104 C 
BRANCH  11  16
ATOM     12 CL   LIG    1       23.712 -11.469   2.618  0.00  0.00    -0.084 Cl
ATOM     13  C   LIG    1       24.607 -12.903   2.942  0.00  0.00    +0.041 A 
ATOM     14  C   LIG    1       24.061 -13.891   3.757  0.00  0.00    +0.020 A 
ATOM     15  C   LIG    1       24.791 -15.054   4.023  0.00  0.00    +0.006 A 
ATOM     16  C   LIG    1       26.072 -15.236   3.475  0.00  0.00    -0.037 A 
ATOM     17  C   LIG    1       26.607 -14.230   2.657  0.00  0.00    +0.006 A 
ATOM     18  C   LIG    1       25.874 -13.069   2.388  0.00  0.00    +0.020 A 
ENDBRANCH  11  16
ENDBRANCH  10  11
ENDBRANCH   1  10
BRANCH   1  19
ATOM     19  C   LIG    1       26.303 -20.186   4.811  0.00  0.00    +0.141 C 
BRANCH  19  20
ATOM     20  N   LIG    1       27.532 -20.072   5.575  0.00  0.00    -0.336 N 
ATOM     21  C   LIG    1       28.436 -19.043   5.530  0.00  0.00    +0.199 A 
ATOM     22  N   LIG    1       29.406 -19.223   6.400  0.00  0.00    -0.244 NA
ATOM     23  C   LIG    1       29.105 -20.383   7.062  0.00  0.00    +0.130 A 
ATOM     24  C   LIG    1       27.933 -20.919   6.576  0.00  0.00    +0.107 A 
ENDBRANCH  19  20
ENDBRANCH   1  19
TORSDOF 6
ENDMDL
