MODEL 1
REMARK VINA RESULT:       5.6      0.000      0.000
REMARK  Name = *****
REMARK                            x       y       z     vdW  Elec       q    Type
REMARK                         _______ _______ _______ _____ _____    ______ ____
ROOT
ATOM      1  C   LIG    1       23.979 -17.711   4.097  0.00  0.00    -0.007 A 
ATOM      2  C   LIG    1       25.260 -17.691   3.537  0.00  0.00    +0.010 A 
ATOM      3  C   LIG    1       25.939 -16.476   3.399  0.00  0.00    +0.010 A 
ATOM      4  C   LIG    1       25.333 -15.292   3.833  0.00  0.00    -0.007 A 
ATOM      5  C   LIG    1       24.055 -15.316   4.402  0.00  0.00    +0.010 A 
ATOM      6  C   LIG    1       23.375 -16.526   4.528  0.00  0.00    +0.010 A 
ENDROOT
BRANCH   1   8
ATOM      7  N   LIG    1       23.775 -20.127   4.087  0.00  0.00    -0.276 NA
ATOM      8  C   LIG    1       23.226 -18.972   4.259  0.00  0.00    +0.113 C 
BRANCH   7  11
ATOM      9  O   LIG    1       23.018 -21.220   6.773  0.00  0.00    -0.271 OA
ATOM     10  C   LIG    1       22.355 -21.316   5.747  0.00  0.00    +0.263 C 
ATOM     11  C   LIG    1       22.869 -21.268   4.332  0.00  0.00    +0.220 C 
ATOM     12  C   LIG    1       21.566 -21.066   3.569  0.00  0.00    +0.226 C 
ATOM     13  O   LIG    1       20.492 -21.536   4.396  0.00  0.00    -0.277 OA
ATOM     14  N   LIG    1       21.010 -21.560   5.707  0.00  0.00    -0.193 N 
ATOM     15  H   LIG    1       20.390 -21.495   6.504  0.00  0.00    +0.182 HD
ENDBRANCH   7  11
ENDBRANCH   1   8
BRANCH   4  16
ATOM     16  C   LIG    1       26.062 -14.019   3.688  0.00  0.00    +0.113 C 
ATOM     17  N   LIG    1       26.511 -13.377   4.714  0.00  0.00    -0.276 NA
BRANCH  17  18
ATOM     18  C   LIG    1       27.234 -12.136   4.372  0.00  0.00    +0.220 C 
ATOM     19  C   LIG    1       27.466 -12.043   2.888  0.00  0.00    +0.263 C 
ATOM     20  O   LIG    1       26.651 -11.674   2.055  0.00  0.00    -0.271 OA
ATOM     21  N   LIG    1       28.728 -12.503   2.622  0.00  0.00    -0.193 N 
ATOM     22  H   LIG    1       29.181 -12.497   1.719  0.00  0.00    +0.182 HD
ATOM     23  O   LIG    1       29.465 -12.759   3.798  0.00  0.00    -0.277 OA
ATOM     24  C   LIG    1       28.674 -12.210   4.865  0.00  0.00    +0.226 C 
ENDBRANCH  17  18
ENDBRANCH   4  16
TORSDOF 4
ENDMDL
MODEL 2
REMARK VINA RESULT:       6.6      1.300      8.910
REMARK  Name = *****
REMARK                            x       y       z     vdW  Elec       q    Type
REMARK                         _______ _______ _______ _____ _____    ______ ____
ROOT
ATOM      1  C   LIG    1       25.889 -15.444   3.612  0.00  0.00    -0.007 A 
ATOM      2  C   LIG    1       24.573 -15.574   4.069  0.00  0.00    +0.010 A 
ATOM      3  C   LIG    1       23.978 -16.838   4.127  0.00  0.00    +0.010 A 
ATOM      4  C   LIG    1       24.711 -17.965   3.739  0.00  0.00    -0.007 A 
ATOM      5  C   LIG    1       26.030 -17.835   3.291  0.00  0.00    +0.010 A 
ATOM      6  C   LIG    1       26.617 -16.572   3.222  0.00  0.00    +0.010 A 
ENDROOT
BRANCH   1   8
ATOM      7  N   LIG    1       26.420 -13.233   4.453  0.00  0.00    -0.276 NA
ATOM      8  C   LIG    1       26.554 -14.128   3.533  0.00  0.00    +0.113 C 
BRANCH   7  11
ATOM      9  O   LIG    1       28.531 -12.105   6.256  0.00  0.00    -0.271 OA
ATOM     10  C   LIG    1       28.442 -11.913   5.049  0.00  0.00    +0.263 C 
ATOM     11  C   LIG    1       27.193 -11.997   4.211  0.00  0.00    +0.220 C 
ATOM     12  C   LIG    1       27.797 -12.032   2.813  0.00  0.00    +0.226 C 
ATOM     13  O   LIG    1       29.107 -11.453   2.883  0.00  0.00    -0.277 OA
ATOM     14  N   LIG    1       29.472 -11.513   4.243  0.00  0.00    -0.193 N 
ATOM     15  H   LIG    1       30.448 -11.518   4.513  0.00  0.00    +0.182 HD
ENDBRANCH   7  11
ENDBRANCH   1   8
BRANCH   4  16
ATOM     16  C   LIG    1       24.074 -19.292   3.811  0.00  0.00    +0.113 C 
ATOM     17  N   LIG    1       24.469 -20.185   4.657  0.00  0.00    -0.276 NA
BRANCH  17  18
ATOM     18  C   LIG    1       23.699 -21.443   4.600  0.00  0.00    +0.220 C 
ATOM     19  C   LIG    1       22.658 -21.385   3.514  0.00  0.00    +0.263 C 
ATOM     20  O   LIG    1       22.853 -21.572   2.321  0.00  0.00    -0.271 OA
ATOM     21  N   LIG    1       21.466 -21.026   4.082  0.00  0.00    -0.193 N 
ATOM     22  H   LIG    1       20.576 -20.972   3.606  0.00  0.00    +0.182 HD
ATOM     23  O   LIG    1       21.534 -20.984   5.491  0.00  0.00    -0.277 OA
ATOM     24  C   LIG    1       22.802 -21.571   5.824  0.00  0.00    +0.226 C 
ENDBRANCH  17  18
ENDBRANCH   4  16
TORSDOF 4
ENDMDL
MODEL 3
REMARK VINA RESULT:       6.9      1.168      1.976
REMARK  Name = *****
REMARK                            x       y       z     vdW  Elec       q    Type
REMARK                         _______ _______ _______ _____ _____    ______ ____
ROOT
ATOM      1  C   LIG    1       24.717 -17.946   3.988  0.00  0.00    -0.007 A 
ATOM      2  C   LIG    1       24.144 -16.673   3.895  0.00  0.00    +0.010 A 
ATOM      3  C   LIG    1       24.965 -15.549   3.767  0.00  0.00    +0.010 A 
ATOM      4  C   LIG    1       26.354 -15.709   3.721  0.00  0.00    -0.007 A 
ATOM      5  C   LIG    1       26.925 -16.983   3.805  0.00  0.00    +0.010 A 
ATOM      6  C   LIG    1       26.106 -18.102   3.945  0.00  0.00    +0.010 A 
ENDROOT
BRANCH   1   8
ATOM      7  N   LIG    1       24.402 -20.340   4.205  0.00  0.00    -0.276 NA
ATOM      8  C   LIG    1       23.886 -19.159   4.127  0.00  0.00    +0.113 C 
BRANCH   7  11
ATOM      9  O   LIG    1       23.310 -21.315   6.821  0.00  0.00    -0.271 OA
ATOM     10  C   LIG    1       22.752 -21.402   5.734  0.00  0.00    +0.263 C 
ATOM     11  C   LIG    1       23.410 -21.422   4.379  0.00  0.00    +0.220 C 
ATOM     12  C   LIG    1       22.207 -21.168   3.480  0.00  0.00    +0.226 C 
ATOM     13  O   LIG    1       21.028 -21.554   4.200  0.00  0.00    -0.277 OA
ATOM     14  N   LIG    1       21.406 -21.571   5.559  0.00  0.00    -0.193 N 
ATOM     15  H   LIG    1       20.712 -21.450   6.285  0.00  0.00    +0.182 HD
ENDBRANCH   7  11
ENDBRANCH   1   8
BRANCH   4  16
ATOM     16  C   LIG    1       27.208 -14.516   3.579  0.00  0.00    +0.113 C 
ATOM     17  N   LIG    1       28.452 -14.532   3.925  0.00  0.00    -0.276 NA
BRANCH  17  18
ATOM     18  C   LIG    1       29.154 -13.255   3.689  0.00  0.00    +0.220 C 
ATOM     19  C   LIG    1       28.780 -12.238   4.734  0.00  0.00    +0.263 C 
ATOM     20  O   LIG    1       29.244 -12.164   5.863  0.00  0.00    -0.271 OA
ATOM     21  N   LIG    1       27.786 -11.447   4.226  0.00  0.00    -0.193 N 
ATOM     22  H   LIG    1       27.384 -10.638   4.679  0.00  0.00    +0.182 HD
ATOM     23  O   LIG    1       27.537 -11.707   2.861  0.00  0.00    -0.277 OA
ATOM     24  C   LIG    1       28.605 -12.572   2.443  0.00  0.00    +0.226 C 
ENDBRANCH  17  18
ENDBRANCH   4  16
TORSDOF 4
ENDMDL
