MODEL 1
REMARK VINA RESULT:     -10.2      0.000      0.000
REMARK  Name = *****
REMARK                            x       y       z     vdW  Elec       q    Type
REMARK                         _______ _______ _______ _____ _____    ______ ____
ROOT
ATOM      1  C   LIG    1       30.482 -20.245   7.816  0.00  0.00    +0.111 C 
ENDROOT
BRANCH   1   3
ATOM      2  O   LIG    1       32.276 -20.842   9.370  0.00  0.00    -0.251 OA
ATOM      3  C   LIG    1       31.104 -20.981   9.004  0.00  0.00    +0.309 C 
BRANCH   3   4
ATOM      4  O   LIG    1       30.333 -21.908   9.596  0.00  0.00    -0.480 OA
ATOM      5  H   LIG    1       29.357 -21.822   9.398  0.00  0.00    +0.295 HD
ENDBRANCH   3   4
ENDBRANCH   1   3
BRANCH   1   6
ATOM      6  C   LIG    1       29.721 -18.982   8.365  0.00  0.00    +0.050 C 
BRANCH   6   7
ATOM      7  C   LIG    1       30.538 -17.998   9.188  0.00  0.00    -0.047 A 
ATOM      8  C   LIG    1       30.112 -17.620  10.468  0.00  0.00    +0.003 A 
ATOM      9  C   LIG    1       30.901 -16.796  11.277  0.00  0.00    +0.000 A 
ATOM     10  C   LIG    1       32.082 -16.253  10.782  0.00  0.00    +0.000 A 
ATOM     11  C   LIG    1       32.477 -16.544   9.477  0.00  0.00    +0.000 A 
ATOM     12  C   LIG    1       31.721 -17.428   8.692  0.00  0.00    +0.003 A 
ENDBRANCH   6   7
ENDBRANCH   1   6
BRANCH   1  13
ATOM     13  C   LIG    1       29.586 -21.118   6.902  0.00  0.00    +0.110 C 
BRANCH  13  14
ATOM     14  C   LIG    1       28.287 -20.456   6.422  0.00  0.00    +0.216 C 
ATOM     15  N   LIG    1       27.097 -20.912   6.936  0.00  0.00    -0.301 N 
ATOM     16  C   LIG    1       25.815 -20.355   6.506  0.00  0.00    +0.111 C 
ATOM     17  C   LIG    1       24.832 -20.839   7.570  0.00  0.00    +0.011 C 
ATOM     18  C   LIG    1       25.392 -22.222   7.942  0.00  0.00    +0.011 C 
ATOM     19  C   LIG    1       24.943 -23.340   6.988  0.00  0.00    +0.005 C 
ATOM     20  C   LIG    1       23.432 -23.335   6.789  0.00  0.00    +0.000 C 
ATOM     21  C   LIG    1       22.963 -21.993   6.239  0.00  0.00    +0.000 C 
ATOM     22  C   LIG    1       23.361 -20.841   7.156  0.00  0.00    +0.005 C 
ATOM     23  C   LIG    1       26.909 -21.998   7.885  0.00  0.00    +0.111 C 
ATOM     24  O   LIG    1       28.300 -19.552   5.589  0.00  0.00    -0.276 OA
ENDBRANCH  13  14
ENDBRANCH   1  13
TORSDOF 6
ENDMDL
MODEL 2
REMARK VINA RESULT:      -9.7      1.821      2.808
REMARK  Name = *****
REMARK                            x       y       z     vdW  Elec       q    Type
REMARK                         _______ _______ _______ _____ _____    ______ ____
ROOT
ATOM      1  C   LIG    1       29.175 -19.552   7.615  0.00  0.00    +0.111 C 
ENDROOT
BRANCH   1   3
ATOM      2  O   LIG    1       30.734 -18.773   5.896  0.00  0.00    -0.251 OA
ATOM      3  C   LIG    1       29.580 -19.071   6.220  0.00  0.00    +0.309 C 
BRANCH   3   4
ATOM      4  O   LIG    1       28.576 -18.868   5.350  0.00  0.00    -0.480 OA
ATOM      5  H   LIG    1       27.945 -18.137   5.610  0.00  0.00    +0.295 HD
ENDBRANCH   3   4
ENDBRANCH   1   3
BRANCH   1   6
ATOM      6  C   LIG    1       30.478 -19.680   8.487  0.00  0.00    +0.050 C 
BRANCH   6   7
ATOM      7  C   LIG    1       30.930 -18.429   9.224  0.00  0.00    -0.047 A 
ATOM      8  C   LIG    1       30.201 -17.950  10.319  0.00  0.00    +0.003 A 
ATOM      9  C   LIG    1       30.657 -16.861  11.070  0.00  0.00    +0.000 A 
ATOM     10  C   LIG    1       31.797 -16.168  10.677  0.00  0.00    +0.000 A 
ATOM     11  C   LIG    1       32.486 -16.574   9.535  0.00  0.00    +0.000 A 
ATOM     12  C   LIG    1       32.068 -17.709   8.824  0.00  0.00    +0.003 A 
ENDBRANCH   6   7
ENDBRANCH   1   6
BRANCH   1  13
ATOM     13  C   LIG    1       28.324 -20.847   7.639  0.00  0.00    +0.110 C 
BRANCH  13  14
ATOM     14  C   LIG    1       26.830 -20.649   7.931  0.00  0.00    +0.216 C 
ATOM     15  N   LIG    1       25.943 -20.755   6.887  0.00  0.00    -0.301 N 
ATOM     16  C   LIG    1       24.509 -20.550   7.077  0.00  0.00    +0.111 C 
ATOM     17  C   LIG    1       23.884 -21.133   5.811  0.00  0.00    +0.011 C 
ATOM     18  C   LIG    1       24.937 -20.810   4.737  0.00  0.00    +0.011 C 
ATOM     19  C   LIG    1       24.812 -19.388   4.169  0.00  0.00    +0.005 C 
ATOM     20  C   LIG    1       23.386 -19.082   3.726  0.00  0.00    +0.000 C 
ATOM     21  C   LIG    1       22.414 -19.241   4.890  0.00  0.00    +0.000 C 
ATOM     22  C   LIG    1       22.475 -20.643   5.485  0.00  0.00    +0.005 C 
ATOM     23  C   LIG    1       26.259 -21.010   5.489  0.00  0.00    +0.111 C 
ATOM     24  O   LIG    1       26.429 -20.388   9.063  0.00  0.00    -0.276 OA
ENDBRANCH  13  14
ENDBRANCH   1  13
TORSDOF 6
ENDMDL
MODEL 3
REMARK VINA RESULT:      -9.6      2.953      7.455
REMARK  Name = *****
REMARK                            x       y       z     vdW  Elec       q    Type
REMARK                         _______ _______ _______ _____ _____    ______ ____
ROOT
ATOM      1  C   LIG    1       24.282 -22.749   6.834  0.00  0.00    +0.111 C 
ENDROOT
BRANCH   1   3
ATOM      2  O   LIG    1       24.100 -25.167   6.503  0.00  0.00    -0.251 OA
ATOM      3  C   LIG    1       23.543 -24.082   6.700  0.00  0.00    +0.309 C 
BRANCH   3   4
ATOM      4  O   LIG    1       22.202 -24.016   6.694  0.00  0.00    -0.480 OA
ATOM      5  H   LIG    1       21.762 -24.608   6.018  0.00  0.00    +0.295 HD
ENDBRANCH   3   4
ENDBRANCH   1   3
BRANCH   1   6
ATOM      6  C   LIG    1       24.699 -22.272   5.394  0.00  0.00    +0.050 C 
BRANCH   6   7
ATOM      7  C   LIG    1       24.089 -20.968   4.905  0.00  0.00    -0.047 A 
ATOM      8  C   LIG    1       22.863 -20.524   5.414  0.00  0.00    +0.003 A 
ATOM      9  C   LIG    1       22.338 -19.279   5.050  0.00  0.00    +0.000 A 
ATOM     10  C   LIG    1       22.980 -18.501   4.092  0.00  0.00    +0.000 A 
ATOM     11  C   LIG    1       24.154 -18.969   3.505  0.00  0.00    +0.000 A 
ATOM     12  C   LIG    1       24.718 -20.184   3.922  0.00  0.00    +0.003 A 
ENDBRANCH   6   7
ENDBRANCH   1   6
BRANCH   1  13
ATOM     13  C   LIG    1       25.480 -22.760   7.817  0.00  0.00    +0.110 C 
BRANCH  13  14
ATOM     14  C   LIG    1       25.975 -21.380   8.271  0.00  0.00    +0.216 C 
ATOM     15  N   LIG    1       27.253 -21.004   7.935  0.00  0.00    -0.301 N 
ATOM     16  C   LIG    1       27.809 -19.720   8.356  0.00  0.00    +0.111 C 
ATOM     17  C   LIG    1       29.041 -19.547   7.469  0.00  0.00    +0.011 C 
ATOM     18  C   LIG    1       29.541 -20.992   7.301  0.00  0.00    +0.011 C 
ATOM     19  C   LIG    1       30.421 -21.472   8.466  0.00  0.00    +0.005 C 
ATOM     20  C   LIG    1       31.536 -20.479   8.774  0.00  0.00    +0.000 C 
ATOM     21  C   LIG    1       30.961 -19.109   9.117  0.00  0.00    +0.000 C 
ATOM     22  C   LIG    1       30.093 -18.567   7.986  0.00  0.00    +0.005 C 
ATOM     23  C   LIG    1       28.236 -21.792   7.205  0.00  0.00    +0.111 C 
ATOM     24  O   LIG    1       25.259 -20.629   8.931  0.00  0.00    -0.276 OA
ENDBRANCH  13  14
ENDBRANCH   1  13
TORSDOF 6
ENDMDL
MODEL 4
REMARK VINA RESULT:      -9.3      2.174      7.418
REMARK  Name = *****
REMARK                            x       y       z     vdW  Elec       q    Type
REMARK                         _______ _______ _______ _____ _____    ______ ____
ROOT
ATOM      1  C   LIG    1       26.661 -20.710   7.145  0.00  0.00    +0.111 C 
ENDROOT
BRANCH   1   3
ATOM      2  O   LIG    1       25.995 -20.348   9.472  0.00  0.00    -0.251 OA
ATOM      3  C   LIG    1       26.145 -21.126   8.524  0.00  0.00    +0.309 C 
BRANCH   3   4
ATOM      4  O   LIG    1       25.957 -22.443   8.713  0.00  0.00    -0.480 OA
ATOM      5  H   LIG    1       25.723 -22.950   7.885  0.00  0.00    +0.295 HD
ENDBRANCH   3   4
ENDBRANCH   1   3
BRANCH   1   6
ATOM      6  C   LIG    1       25.770 -21.413   6.055  0.00  0.00    +0.050 C 
BRANCH   6   7
ATOM      7  C   LIG    1       24.714 -20.551   5.380  0.00  0.00    -0.047 A 
ATOM      8  C   LIG    1       23.425 -20.458   5.919  0.00  0.00    +0.003 A 
ATOM      9  C   LIG    1       22.473 -19.593   5.368  0.00  0.00    +0.000 A 
ATOM     10  C   LIG    1       22.760 -18.883   4.208  0.00  0.00    +0.000 A 
ATOM     11  C   LIG    1       24.007 -19.034   3.604  0.00  0.00    +0.000 A 
ATOM     12  C   LIG    1       24.986 -19.846   4.196  0.00  0.00    +0.003 A 
ENDBRANCH   6   7
ENDBRANCH   1   6
BRANCH   1  13
ATOM     13  C   LIG    1       28.174 -20.953   6.912  0.00  0.00    +0.110 C 
BRANCH  13  14
ATOM     14  C   LIG    1       29.014 -19.693   6.664  0.00  0.00    +0.216 C 
ATOM     15  N   LIG    1       29.890 -19.292   7.644  0.00  0.00    -0.301 N 
ATOM     16  C   LIG    1       30.702 -18.086   7.498  0.00  0.00    +0.111 C 
ATOM     17  C   LIG    1       31.771 -18.231   8.580  0.00  0.00    +0.011 C 
ATOM     18  C   LIG    1       31.012 -18.949   9.708  0.00  0.00    +0.011 C 
ATOM     19  C   LIG    1       30.205 -17.996  10.604  0.00  0.00    +0.005 C 
ATOM     20  C   LIG    1       31.056 -16.831  11.096  0.00  0.00    +0.000 C 
ATOM     21  C   LIG    1       31.628 -16.046   9.921  0.00  0.00    +0.000 C 
ATOM     22  C   LIG    1       32.461 -16.936   9.003  0.00  0.00    +0.005 C 
ATOM     23  C   LIG    1       30.103 -19.917   8.941  0.00  0.00    +0.111 C 
ATOM     24  O   LIG    1       28.903 -19.044   5.626  0.00  0.00    -0.276 OA
ENDBRANCH  13  14
ENDBRANCH   1  13
TORSDOF 6
ENDMDL
MODEL 5
REMARK VINA RESULT:      -8.9      1.263      2.245
REMARK  Name = *****
REMARK                            x       y       z     vdW  Elec       q    Type
REMARK                         _______ _______ _______ _____ _____    ______ ____
ROOT
ATOM      1  C   LIG    1       30.204 -18.619   7.928  0.00  0.00    +0.111 C 
ENDROOT
BRANCH   1   3
ATOM      2  O   LIG    1       31.777 -20.069   9.116  0.00  0.00    -0.251 OA
ATOM      3  C   LIG    1       31.321 -19.658   8.044  0.00  0.00    +0.309 C 
BRANCH   3   4
ATOM      4  O   LIG    1       31.893 -20.044   6.891  0.00  0.00    -0.480 OA
ATOM      5  H   LIG    1       31.612 -20.948   6.573  0.00  0.00    +0.295 HD
ENDBRANCH   3   4
ENDBRANCH   1   3
BRANCH   1   6
ATOM      6  C   LIG    1       29.849 -18.115   9.375  0.00  0.00    +0.050 C 
BRANCH   6   7
ATOM      7  C   LIG    1       30.921 -17.314  10.099  0.00  0.00    -0.047 A 
ATOM      8  C   LIG    1       31.866 -16.577   9.375  0.00  0.00    +0.003 A 
ATOM      9  C   LIG    1       32.794 -15.757  10.025  0.00  0.00    +0.000 A 
ATOM     10  C   LIG    1       32.860 -15.739  11.414  0.00  0.00    +0.000 A 
ATOM     11  C   LIG    1       31.988 -16.537  12.152  0.00  0.00    +0.000 A 
ATOM     12  C   LIG    1       31.011 -17.304  11.501  0.00  0.00    +0.003 A 
ENDBRANCH   6   7
ENDBRANCH   1   6
BRANCH   1  13
ATOM     13  C   LIG    1       28.951 -19.091   7.147  0.00  0.00    +0.110 C 
BRANCH  13  14
ATOM     14  C   LIG    1       28.358 -20.433   7.598  0.00  0.00    +0.216 C 
ATOM     15  N   LIG    1       27.257 -20.915   6.932  0.00  0.00    -0.301 N 
ATOM     16  C   LIG    1       26.616 -22.169   7.321  0.00  0.00    +0.111 C 
ATOM     17  C   LIG    1       25.730 -22.513   6.124  0.00  0.00    +0.011 C 
ATOM     18  C   LIG    1       25.287 -21.127   5.624  0.00  0.00    +0.011 C 
ATOM     19  C   LIG    1       24.077 -20.562   6.384  0.00  0.00    +0.005 C 
ATOM     20  C   LIG    1       22.937 -21.571   6.455  0.00  0.00    +0.000 C 
ATOM     21  C   LIG    1       23.394 -22.858   7.133  0.00  0.00    +0.000 C 
ATOM     22  C   LIG    1       24.584 -23.481   6.410  0.00  0.00    +0.005 C 
ATOM     23  C   LIG    1       26.544 -20.274   5.837  0.00  0.00    +0.111 C 
ATOM     24  O   LIG    1       28.840 -21.060   8.539  0.00  0.00    -0.276 OA
ENDBRANCH  13  14
ENDBRANCH   1  13
TORSDOF 6
ENDMDL
MODEL 6
REMARK VINA RESULT:      -8.8      1.423      2.019
REMARK  Name = *****
REMARK                            x       y       z     vdW  Elec       q    Type
REMARK                         _______ _______ _______ _____ _____    ______ ____
ROOT
ATOM      1  C   LIG    1       29.631 -19.325   7.793  0.00  0.00    +0.111 C 
ENDROOT
BRANCH   1   3
ATOM      2  O   LIG    1       31.674 -19.563   6.467  0.00  0.00    -0.251 OA
ATOM      3  C   LIG    1       30.546 -19.075   6.593  0.00  0.00    +0.309 C 
BRANCH   3   4
ATOM      4  O   LIG    1       30.109 -18.180   5.691  0.00  0.00    -0.480 OA
ATOM      5  H   LIG    1       29.445 -18.541   5.038  0.00  0.00    +0.295 HD
ENDBRANCH   3   4
ENDBRANCH   1   3
BRANCH   1   6
ATOM      6  C   LIG    1       30.534 -19.532   9.064  0.00  0.00    +0.050 C 
BRANCH   6   7
ATOM      7  C   LIG    1       31.104 -18.277   9.708  0.00  0.00    -0.047 A 
ATOM      8  C   LIG    1       32.173 -17.597   9.111  0.00  0.00    +0.003 A 
ATOM      9  C   LIG    1       32.641 -16.388   9.635  0.00  0.00    +0.000 A 
ATOM     10  C   LIG    1       32.117 -15.889  10.823  0.00  0.00    +0.000 A 
ATOM     11  C   LIG    1       31.116 -16.600  11.481  0.00  0.00    +0.000 A 
ATOM     12  C   LIG    1       30.596 -17.775  10.918  0.00  0.00    +0.003 A 
ENDBRANCH   6   7
ENDBRANCH   1   6
BRANCH   1  13
ATOM     13  C   LIG    1       28.607 -20.473   7.607  0.00  0.00    +0.110 C 
BRANCH  13  14
ATOM     14  C   LIG    1       27.573 -20.261   6.493  0.00  0.00    +0.216 C 
ATOM     15  N   LIG    1       26.254 -20.528   6.771  0.00  0.00    -0.301 N 
ATOM     16  C   LIG    1       25.213 -20.382   5.754  0.00  0.00    +0.111 C 
ATOM     17  C   LIG    1       23.914 -20.386   6.558  0.00  0.00    +0.011 C 
ATOM     18  C   LIG    1       24.236 -21.350   7.713  0.00  0.00    +0.011 C 
ATOM     19  C   LIG    1       24.037 -22.829   7.346  0.00  0.00    +0.005 C 
ATOM     20  C   LIG    1       22.670 -23.074   6.718  0.00  0.00    +0.000 C 
ATOM     21  C   LIG    1       22.489 -22.222   5.467  0.00  0.00    +0.000 C 
ATOM     22  C   LIG    1       22.653 -20.736   5.771  0.00  0.00    +0.005 C 
ATOM     23  C   LIG    1       25.704 -21.030   8.021  0.00  0.00    +0.111 C 
ATOM     24  O   LIG    1       27.908 -19.879   5.374  0.00  0.00    -0.276 OA
ENDBRANCH  13  14
ENDBRANCH   1  13
TORSDOF 6
ENDMDL
MODEL 7
REMARK VINA RESULT:      -8.7      1.793      7.558
REMARK  Name = *****
REMARK                            x       y       z     vdW  Elec       q    Type
REMARK                         _______ _______ _______ _____ _____    ______ ____
ROOT
ATOM      1  C   LIG    1       26.622 -20.311   7.173  0.00  0.00    +0.111 C 
ENDROOT
BRANCH   1   3
ATOM      2  O   LIG    1       25.633 -20.541   9.400  0.00  0.00    -0.251 OA
ATOM      3  C   LIG    1       26.378 -20.989   8.523  0.00  0.00    +0.309 C 
BRANCH   3   4
ATOM      4  O   LIG    1       27.120 -22.080   8.779  0.00  0.00    -0.480 OA
ATOM      5  H   LIG    1       27.849 -22.250   8.117  0.00  0.00    +0.295 HD
ENDBRANCH   3   4
ENDBRANCH   1   3
BRANCH   1   6
ATOM      6  C   LIG    1       25.410 -20.647   6.229  0.00  0.00    +0.050 C 
BRANCH   6   7
ATOM      7  C   LIG    1       24.784 -22.025   6.386  0.00  0.00    -0.047 A 
ATOM      8  C   LIG    1       23.457 -22.156   6.812  0.00  0.00    +0.003 A 
ATOM      9  C   LIG    1       22.836 -23.409   6.865  0.00  0.00    +0.000 A 
ATOM     10  C   LIG    1       23.563 -24.562   6.592  0.00  0.00    +0.000 A 
ATOM     11  C   LIG    1       24.912 -24.459   6.256  0.00  0.00    +0.000 A 
ATOM     12  C   LIG    1       25.515 -23.198   6.133  0.00  0.00    +0.003 A 
ENDBRANCH   6   7
ENDBRANCH   1   6
BRANCH   1  13
ATOM     13  C   LIG    1       27.986 -20.636   6.515  0.00  0.00    +0.110 C 
BRANCH  13  14
ATOM     14  C   LIG    1       28.946 -19.448   6.363  0.00  0.00    +0.216 C 
ATOM     15  N   LIG    1       29.799 -19.164   7.403  0.00  0.00    -0.301 N 
ATOM     16  C   LIG    1       30.720 -18.031   7.349  0.00  0.00    +0.111 C 
ATOM     17  C   LIG    1       31.711 -18.312   8.477  0.00  0.00    +0.011 C 
ATOM     18  C   LIG    1       30.831 -19.001   9.534  0.00  0.00    +0.011 C 
ATOM     19  C   LIG    1       30.064 -18.012  10.426  0.00  0.00    +0.005 C 
ATOM     20  C   LIG    1       30.986 -16.948  11.010  0.00  0.00    +0.000 C 
ATOM     21  C   LIG    1       31.688 -16.174   9.899  0.00  0.00    +0.000 C 
ATOM     22  C   LIG    1       32.488 -17.100   8.990  0.00  0.00    +0.005 C 
ATOM     23  C   LIG    1       29.885 -19.854   8.681  0.00  0.00    +0.111 C 
ATOM     24  O   LIG    1       28.950 -18.754   5.349  0.00  0.00    -0.276 OA
ENDBRANCH  13  14
ENDBRANCH   1  13
TORSDOF 6
ENDMDL
MODEL 8
REMARK VINA RESULT:      -8.6      2.691      8.084
REMARK  Name = *****
REMARK                            x       y       z     vdW  Elec       q    Type
REMARK                         _______ _______ _______ _____ _____    ______ ____
ROOT
ATOM      1  C   LIG    1       23.886 -21.691   5.929  0.00  0.00    +0.111 C 
ENDROOT
BRANCH   1   3
ATOM      2  O   LIG    1       22.478 -19.744   5.464  0.00  0.00    -0.251 OA
ATOM      3  C   LIG    1       22.650 -20.965   5.395  0.00  0.00    +0.309 C 
BRANCH   3   4
ATOM      4  O   LIG    1       21.662 -21.746   4.925  0.00  0.00    -0.480 OA
ATOM      5  H   LIG    1       21.916 -22.306   4.138  0.00  0.00    +0.295 HD
ENDBRANCH   3   4
ENDBRANCH   1   3
BRANCH   1   6
ATOM      6  C   LIG    1       23.404 -22.954   6.733  0.00  0.00    +0.050 C 
BRANCH   6   7
ATOM      7  C   LIG    1       24.218 -24.227   6.556  0.00  0.00    -0.047 A 
ATOM      8  C   LIG    1       23.599 -25.413   6.142  0.00  0.00    +0.003 A 
ATOM      9  C   LIG    1       24.349 -26.564   5.878  0.00  0.00    +0.000 A 
ATOM     10  C   LIG    1       25.718 -26.579   6.121  0.00  0.00    +0.000 A 
ATOM     11  C   LIG    1       26.338 -25.435   6.622  0.00  0.00    +0.000 A 
ATOM     12  C   LIG    1       25.598 -24.260   6.819  0.00  0.00    +0.003 A 
ENDBRANCH   6   7
ENDBRANCH   1   6
BRANCH   1  13
ATOM     13  C   LIG    1       24.858 -20.808   6.752  0.00  0.00    +0.110 C 
BRANCH  13  14
ATOM     14  C   LIG    1       26.080 -20.282   5.986  0.00  0.00    +0.216 C 
ATOM     15  N   LIG    1       27.299 -20.294   6.620  0.00  0.00    -0.301 N 
ATOM     16  C   LIG    1       28.504 -19.781   5.971  0.00  0.00    +0.111 C 
ATOM     17  C   LIG    1       29.643 -20.331   6.827  0.00  0.00    +0.011 C 
ATOM     18  C   LIG    1       29.035 -20.328   8.240  0.00  0.00    +0.011 C 
ATOM     19  C   LIG    1       29.136 -18.965   8.944  0.00  0.00    +0.005 C 
ATOM     20  C   LIG    1       30.555 -18.412   8.897  0.00  0.00    +0.000 C 
ATOM     21  C   LIG    1       31.030 -18.264   7.456  0.00  0.00    +0.000 C 
ATOM     22  C   LIG    1       30.974 -19.592   6.707  0.00  0.00    +0.005 C 
ATOM     23  C   LIG    1       27.577 -20.729   7.980  0.00  0.00    +0.111 C 
ATOM     24  O   LIG    1       25.978 -19.845   4.842  0.00  0.00    -0.276 OA
ENDBRANCH  13  14
ENDBRANCH   1  13
TORSDOF 6
ENDMDL
MODEL 9
REMARK VINA RESULT:      -8.5      3.883      6.288
REMARK  Name = *****
REMARK                            x       y       z     vdW  Elec       q    Type
REMARK                         _______ _______ _______ _____ _____    ______ ____
ROOT
ATOM      1  C   LIG    1       23.928 -20.146   5.298  0.00  0.00    +0.111 C 
ENDROOT
BRANCH   1   3
ATOM      2  O   LIG    1       22.029 -18.879   4.415  0.00  0.00    -0.251 OA
ATOM      3  C   LIG    1       23.244 -19.104   4.411  0.00  0.00    +0.309 C 
BRANCH   3   4
ATOM      4  O   LIG    1       24.027 -18.491   3.507  0.00  0.00    -0.480 OA
ATOM      5  H   LIG    1       23.887 -18.794   2.565  0.00  0.00    +0.295 HD
ENDBRANCH   3   4
ENDBRANCH   1   3
BRANCH   1   6
ATOM      6  C   LIG    1       25.389 -20.366   4.760  0.00  0.00    +0.050 C 
BRANCH   6   7
ATOM      7  C   LIG    1       26.518 -20.207   5.767  0.00  0.00    -0.047 A 
ATOM      8  C   LIG    1       26.295 -20.460   7.127  0.00  0.00    +0.003 A 
ATOM      9  C   LIG    1       27.345 -20.417   8.050  0.00  0.00    +0.000 A 
ATOM     10  C   LIG    1       28.615 -20.019   7.648  0.00  0.00    +0.000 A 
ATOM     11  C   LIG    1       28.835 -19.674   6.316  0.00  0.00    +0.000 A 
ATOM     12  C   LIG    1       27.800 -19.787   5.376  0.00  0.00    +0.003 A 
ENDBRANCH   6   7
ENDBRANCH   1   6
BRANCH   1  13
ATOM     13  C   LIG    1       23.154 -21.479   5.457  0.00  0.00    +0.110 C 
BRANCH  13  14
ATOM     14  C   LIG    1       23.655 -22.405   6.574  0.00  0.00    +0.216 C 
ATOM     15  N   LIG    1       24.375 -23.520   6.221  0.00  0.00    -0.301 N 
ATOM     16  C   LIG    1       24.860 -24.467   7.223  0.00  0.00    +0.111 C 
ATOM     17  C   LIG    1       25.902 -25.293   6.472  0.00  0.00    +0.011 C 
ATOM     18  C   LIG    1       25.321 -25.356   5.049  0.00  0.00    +0.011 C 
ATOM     19  C   LIG    1       24.277 -26.468   4.866  0.00  0.00    +0.005 C 
ATOM     20  C   LIG    1       24.793 -27.812   5.366  0.00  0.00    +0.000 C 
ATOM     21  C   LIG    1       25.178 -27.729   6.839  0.00  0.00    +0.000 C 
ATOM     22  C   LIG    1       26.231 -26.653   7.083  0.00  0.00    +0.005 C 
ATOM     23  C   LIG    1       24.706 -23.961   4.874  0.00  0.00    +0.111 C 
ATOM     24  O   LIG    1       23.409 -22.171   7.756  0.00  0.00    -0.276 OA
ENDBRANCH  13  14
ENDBRANCH   1  13
TORSDOF 6
ENDMDL
