MODEL 1
REMARK VINA RESULT:     -10.4      0.000      0.000
REMARK  Name = *****
REMARK                            x       y       z     vdW  Elec       q    Type
REMARK                         _______ _______ _______ _____ _____    ______ ____
ROOT
ATOM      1  C   UNK A  0       24.680 -22.696   7.016  0.00  0.00    +0.037 C 
ENDROOT
BRANCH   1   2
ATOM      2  C   UNK A  0       24.799 -24.200   6.749  0.00  0.00    -0.043 A 
ATOM      3  C   UNK A  0       23.767 -24.907   6.109  0.00  0.00    +0.005 A 
ATOM      4  C   UNK A  0       23.888 -26.275   5.843  0.00  0.00    +0.013 A 
ATOM      5  C   UNK A  0       25.057 -26.956   6.192  0.00  0.00    +0.037 A 
ATOM      6  C   UNK A  0       26.103 -26.259   6.808  0.00  0.00    +0.013 A 
ATOM      7  C   UNK A  0       25.970 -24.896   7.096  0.00  0.00    +0.005 A 
BRANCH   5   8
ATOM      8  C   UNK A  0       25.145 -28.412   5.887  0.00  0.00    +0.245 C 
ATOM      9  N   GLU A  1       25.230 -29.247   6.977  0.00  0.00    -0.298 N 
ATOM     10  H   GLU A  1       25.125 -28.852   7.904  0.00  0.00    +0.150 HD
ATOM     11  O   UNK A  0       25.045 -28.829   4.741  0.00  0.00    -0.270 OA
BRANCH   9  12
ATOM     12  CA  GLU A  1       25.293 -30.712   6.882  0.00  0.00    +0.182 C 
BRANCH  12  13
ATOM     13  C   GLU A  1       23.871 -31.294   6.805  0.00  0.00    +0.325 C 
ATOM     14  O   GLU A  1       23.338 -31.958   7.681  0.00  0.00    -0.249 OA
BRANCH  13  15
ATOM     15  OXT GLU A  1       23.276 -31.079   5.603  0.00  0.00    -0.479 OA
ATOM     16  HXT GLU A  1       23.364 -31.865   5.025  0.00  0.00    +0.295 HD
ENDBRANCH  13  15
ENDBRANCH  12  13
BRANCH  12  17
ATOM     17  CB  GLU A  1       26.166 -31.299   8.001  0.00  0.00    +0.045 C 
BRANCH  17  18
ATOM     18  CG  GLU A  1       25.968 -30.655   9.373  0.00  0.00    +0.123 C 
BRANCH  18  19
ATOM     19  CD  GLU A  1       27.162 -29.847   9.807  0.00  0.00    +0.305 C 
ATOM     20  OE1 GLU A  1       27.989 -30.158  10.646  0.00  0.00    -0.251 OA
BRANCH  19  21
ATOM     21  OE2 GLU A  1       27.215 -28.645   9.199  0.00  0.00    -0.481 OA
ATOM     22  HE2 GLU A  1       28.180 -28.449   9.135  0.00  0.00    +0.295 HD
ENDBRANCH  19  21
ENDBRANCH  18  19
ENDBRANCH  17  18
ENDBRANCH  12  17
ENDBRANCH   9  12
ENDBRANCH   5   8
ENDBRANCH   1   2
BRANCH   1  23
ATOM     23  C   UNK A  0       23.189 -22.276   6.950  0.00  0.00    +0.097 C 
BRANCH  23  25
ATOM     24  C   UNK A  0       22.771 -19.957   5.661  0.00  0.00    +0.004 C 
ATOM     25  C   UNK A  0       22.985 -20.970   6.245  0.00  0.00    -0.105 C 
ENDBRANCH  23  25
ENDBRANCH   1  23
BRANCH   1  26
ATOM     26  C   UNK A  0       25.543 -21.839   6.047  0.00  0.00    +0.066 C 
BRANCH  26  27
ATOM     27  C   UNK A  0       26.770 -21.246   6.689  0.00  0.00    +0.061 A 
ATOM     28  N   UNK A  0       27.375 -20.205   6.085  0.00  0.00    -0.243 NA
ATOM     29  C   UNK A  0       28.545 -19.763   6.634  0.00  0.00    +0.148 A 
ATOM     30  C   UNK A  0       29.069 -20.290   7.819  0.00  0.00    +0.185 A 
ATOM     31  N   UNK A  0       30.212 -19.876   8.353  0.00  0.00    -0.193 NA
ATOM     32  C   UNK A  0       30.892 -18.937   7.705  0.00  0.00    +0.216 A 
ATOM     33  N   UNK A  0       30.494 -18.344   6.583  0.00  0.00    -0.198 NA
ATOM     34  N   UNK A  0       28.410 -21.271   8.447  0.00  0.00    -0.233 NA
ATOM     35  C   UNK A  0       29.331 -18.765   6.065  0.00  0.00    +0.149 A 
ATOM     36  C   UNK A  0       27.281 -21.749   7.872  0.00  0.00    +0.136 A 
BRANCH  32  37
ATOM     37  N   UNK A  0       32.084 -18.524   8.257  0.00  0.00    -0.327 N 
ATOM     38  H   UNK A  0       32.059 -18.600   9.264  0.00  0.00    +0.145 HD
ATOM     39  H   UNK A  0       32.861 -18.953   7.774  0.00  0.00    +0.145 HD
ENDBRANCH  32  37
BRANCH  35  40
ATOM     40  N   UNK A  0       28.986 -18.201   4.825  0.00  0.00    -0.341 N 
ATOM     41  H   UNK A  0       29.367 -17.264   4.724  0.00  0.00    +0.144 HD
ATOM     42  H   UNK A  0       29.235 -18.845   4.082  0.00  0.00    +0.144 HD
ENDBRANCH  35  40
ENDBRANCH  26  27
ENDBRANCH   1  26
TORSDOF 15
ENDMDL
MODEL 2
REMARK VINA RESULT:      -9.3      1.411      2.617
REMARK  Name = *****
REMARK                            x       y       z     vdW  Elec       q    Type
REMARK                         _______ _______ _______ _____ _____    ______ ____
ROOT
ATOM      1  C   UNK A  0       24.688 -22.563   7.038  0.00  0.00    +0.037 C 
ENDROOT
BRANCH   1   2
ATOM      2  C   UNK A  0       24.738 -24.064   6.734  0.00  0.00    -0.043 A 
ATOM      3  C   UNK A  0       23.602 -24.748   6.268  0.00  0.00    +0.005 A 
ATOM      4  C   UNK A  0       23.656 -26.113   5.966  0.00  0.00    +0.013 A 
ATOM      5  C   UNK A  0       24.857 -26.814   6.103  0.00  0.00    +0.037 A 
ATOM      6  C   UNK A  0       26.002 -26.140   6.542  0.00  0.00    +0.013 A 
ATOM      7  C   UNK A  0       25.940 -24.780   6.868  0.00  0.00    +0.005 A 
BRANCH   5   8
ATOM      8  C   UNK A  0       24.870 -28.266   5.768  0.00  0.00    +0.245 C 
ATOM      9  N   GLU A  1       25.156 -29.117   6.809  0.00  0.00    -0.298 N 
ATOM     10  H   GLU A  1       25.236 -28.736   7.744  0.00  0.00    +0.150 HD
ATOM     11  O   UNK A  0       24.547 -28.664   4.657  0.00  0.00    -0.270 OA
BRANCH   9  12
ATOM     12  CA  GLU A  1       25.186 -30.582   6.684  0.00  0.00    +0.182 C 
BRANCH  12  13
ATOM     13  C   GLU A  1       25.738 -31.206   7.977  0.00  0.00    +0.325 C 
ATOM     14  O   GLU A  1       25.179 -32.075   8.629  0.00  0.00    -0.249 OA
BRANCH  13  15
ATOM     15  OXT GLU A  1       26.890 -30.621   8.397  0.00  0.00    -0.479 OA
ATOM     16  HXT GLU A  1       27.058 -30.819   9.341  0.00  0.00    +0.295 HD
ENDBRANCH  13  15
ENDBRANCH  12  13
BRANCH  12  17
ATOM     17  CB  GLU A  1       25.917 -31.010   5.402  0.00  0.00    +0.045 C 
BRANCH  17  18
ATOM     18  CG  GLU A  1       25.827 -32.501   5.081  0.00  0.00    +0.123 C 
BRANCH  18  19
ATOM     19  CD  GLU A  1       25.927 -32.778   3.605  0.00  0.00    +0.305 C 
ATOM     20  OE1 GLU A  1       26.927 -32.697   2.912  0.00  0.00    -0.251 OA
BRANCH  19  21
ATOM     21  OE2 GLU A  1       24.733 -33.084   3.059  0.00  0.00    -0.481 OA
ATOM     22  HE2 GLU A  1       24.750 -34.067   2.977  0.00  0.00    +0.295 HD
ENDBRANCH  19  21
ENDBRANCH  18  19
ENDBRANCH  17  18
ENDBRANCH  12  17
ENDBRANCH   9  12
ENDBRANCH   5   8
ENDBRANCH   1   2
BRANCH   1  23
ATOM     23  C   UNK A  0       23.216 -22.080   7.012  0.00  0.00    +0.097 C 
BRANCH  23  25
ATOM     24  C   UNK A  0       22.824 -19.962   5.407  0.00  0.00    +0.004 C 
ATOM     25  C   UNK A  0       23.003 -20.918   6.089  0.00  0.00    -0.105 C 
ENDBRANCH  23  25
ENDBRANCH   1  23
BRANCH   1  26
ATOM     26  C   UNK A  0       25.569 -21.721   6.073  0.00  0.00    +0.066 C 
BRANCH  26  27
ATOM     27  C   UNK A  0       26.815 -21.166   6.714  0.00  0.00    +0.061 A 
ATOM     28  N   UNK A  0       27.436 -20.126   6.124  0.00  0.00    -0.243 NA
ATOM     29  C   UNK A  0       28.619 -19.720   6.670  0.00  0.00    +0.148 A 
ATOM     30  C   UNK A  0       29.144 -20.282   7.839  0.00  0.00    +0.185 A 
ATOM     31  N   UNK A  0       30.301 -19.903   8.370  0.00  0.00    -0.193 NA
ATOM     32  C   UNK A  0       30.994 -18.965   7.733  0.00  0.00    +0.216 A 
ATOM     33  N   UNK A  0       30.598 -18.342   6.628  0.00  0.00    -0.198 NA
ATOM     34  N   UNK A  0       28.471 -21.260   8.454  0.00  0.00    -0.233 NA
ATOM     35  C   UNK A  0       29.421 -18.728   6.113  0.00  0.00    +0.149 A 
ATOM     36  C   UNK A  0       27.326 -21.703   7.882  0.00  0.00    +0.136 A 
BRANCH  32  37
ATOM     37  N   UNK A  0       32.200 -18.588   8.281  0.00  0.00    -0.327 N 
ATOM     38  H   UNK A  0       32.967 -18.865   7.685  0.00  0.00    +0.145 HD
ATOM     39  H   UNK A  0       32.163 -17.623   8.579  0.00  0.00    +0.145 HD
ENDBRANCH  32  37
BRANCH  35  40
ATOM     40  N   UNK A  0       29.077 -18.133   4.887  0.00  0.00    -0.341 N 
ATOM     41  H   UNK A  0       29.895 -17.761   4.412  0.00  0.00    +0.144 HD
ATOM     42  H   UNK A  0       28.525 -18.785   4.341  0.00  0.00    +0.144 HD
ENDBRANCH  35  40
ENDBRANCH  26  27
ENDBRANCH   1  26
TORSDOF 15
ENDMDL
MODEL 3
REMARK VINA RESULT:      -9.0      1.249      2.092
REMARK  Name = *****
REMARK                            x       y       z     vdW  Elec       q    Type
REMARK                         _______ _______ _______ _____ _____    ______ ____
ROOT
ATOM      1  C   UNK A  0       24.683 -21.271   6.144  0.00  0.00    +0.037 C 
ENDROOT
BRANCH   1   2
ATOM      2  C   UNK A  0       24.965 -22.777   6.105  0.00  0.00    -0.043 A 
ATOM      3  C   UNK A  0       24.718 -23.530   4.945  0.00  0.00    +0.005 A 
ATOM      4  C   UNK A  0       25.001 -24.900   4.902  0.00  0.00    +0.013 A 
ATOM      5  C   UNK A  0       25.558 -25.536   6.014  0.00  0.00    +0.037 A 
ATOM      6  C   UNK A  0       25.832 -24.792   7.168  0.00  0.00    +0.013 A 
ATOM      7  C   UNK A  0       25.525 -23.427   7.217  0.00  0.00    +0.005 A 
BRANCH   5   8
ATOM      8  C   UNK A  0       25.846 -26.995   5.924  0.00  0.00    +0.245 C 
ATOM      9  N   GLU A  1       25.175 -27.793   6.820  0.00  0.00    -0.298 N 
ATOM     10  H   GLU A  1       24.462 -27.376   7.407  0.00  0.00    +0.150 HD
ATOM     11  O   UNK A  0       26.559 -27.449   5.039  0.00  0.00    -0.270 OA
BRANCH   9  12
ATOM     12  CA  GLU A  1       25.301 -29.257   6.867  0.00  0.00    +0.182 C 
BRANCH  12  13
ATOM     13  C   GLU A  1       24.515 -29.888   5.705  0.00  0.00    +0.325 C 
ATOM     14  O   GLU A  1       24.956 -30.729   4.937  0.00  0.00    -0.249 OA
BRANCH  13  15
ATOM     15  OXT GLU A  1       23.282 -29.341   5.542  0.00  0.00    -0.479 OA
ATOM     16  HXT GLU A  1       23.152 -28.587   6.153  0.00  0.00    +0.295 HD
ENDBRANCH  13  15
ENDBRANCH  12  13
BRANCH  12  17
ATOM     17  CB  GLU A  1       24.934 -29.797   8.257  0.00  0.00    +0.045 C 
BRANCH  17  18
ATOM     18  CG  GLU A  1       25.994 -30.692   8.898  0.00  0.00    +0.123 C 
BRANCH  18  19
ATOM     19  CD  GLU A  1       27.068 -29.902   9.596  0.00  0.00    +0.305 C 
ATOM     20  OE1 GLU A  1       27.826 -30.305  10.461  0.00  0.00    -0.251 OA
BRANCH  19  21
ATOM     21  OE2 GLU A  1       27.089 -28.611   9.208  0.00  0.00    -0.481 OA
ATOM     22  HE2 GLU A  1       27.301 -28.653   8.245  0.00  0.00    +0.295 HD
ENDBRANCH  19  21
ENDBRANCH  18  19
ENDBRANCH  17  18
ENDBRANCH  12  17
ENDBRANCH   9  12
ENDBRANCH   5   8
ENDBRANCH   1   2
BRANCH   1  23
ATOM     23  C   UNK A  0       23.153 -21.031   6.097  0.00  0.00    +0.097 C 
BRANCH  23  25
ATOM     24  C   UNK A  0       22.429 -18.918   4.604  0.00  0.00    +0.004 C 
ATOM     25  C   UNK A  0       22.778 -19.836   5.274  0.00  0.00    -0.105 C 
ENDBRANCH  23  25
ENDBRANCH   1  23
BRANCH   1  26
ATOM     26  C   UNK A  0       25.405 -20.490   5.010  0.00  0.00    +0.066 C 
BRANCH  26  27
ATOM     27  C   UNK A  0       26.787 -20.018   5.382  0.00  0.00    +0.061 A 
ATOM     28  N   UNK A  0       27.455 -20.676   6.348  0.00  0.00    -0.243 NA
ATOM     29  C   UNK A  0       28.657 -20.156   6.736  0.00  0.00    +0.148 A 
ATOM     30  C   UNK A  0       29.233 -19.043   6.115  0.00  0.00    +0.185 A 
ATOM     31  N   UNK A  0       30.395 -18.521   6.493  0.00  0.00    -0.193 NA
ATOM     32  C   UNK A  0       31.012 -19.077   7.530  0.00  0.00    +0.216 A 
ATOM     33  N   UNK A  0       30.580 -20.146   8.192  0.00  0.00    -0.198 NA
ATOM     34  N   UNK A  0       28.589 -18.451   5.103  0.00  0.00    -0.233 NA
ATOM     35  C   UNK A  0       29.412 -20.668   7.787  0.00  0.00    +0.149 A 
ATOM     36  C   UNK A  0       27.371 -18.931   4.757  0.00  0.00    +0.136 A 
BRANCH  32  37
ATOM     37  N   UNK A  0       32.208 -18.522   7.926  0.00  0.00    -0.327 N 
ATOM     38  H   UNK A  0       32.060 -17.623   8.363  0.00  0.00    +0.145 HD
ATOM     39  H   UNK A  0       32.760 -19.202   8.430  0.00  0.00    +0.145 HD
ENDBRANCH  32  37
BRANCH  35  40
ATOM     40  N   UNK A  0       28.924 -21.728   8.570  0.00  0.00    -0.341 N 
ATOM     41  H   UNK A  0       29.461 -21.836   9.427  0.00  0.00    +0.144 HD
ATOM     42  H   UNK A  0       27.925 -21.615   8.704  0.00  0.00    +0.144 HD
ENDBRANCH  35  40
ENDBRANCH  26  27
ENDBRANCH   1  26
TORSDOF 15
ENDMDL
MODEL 4
REMARK VINA RESULT:      -8.8      5.125     10.618
REMARK  Name = *****
REMARK                            x       y       z     vdW  Elec       q    Type
REMARK                         _______ _______ _______ _____ _____    ______ ____
ROOT
ATOM      1  C   UNK A  0       25.288 -23.114   6.683  0.00  0.00    +0.037 C 
ENDROOT
BRANCH   1   2
ATOM      2  C   UNK A  0       26.314 -21.984   6.805  0.00  0.00    -0.043 A 
ATOM      3  C   UNK A  0       27.224 -21.942   7.876  0.00  0.00    +0.005 A 
ATOM      4  C   UNK A  0       28.178 -20.924   7.972  0.00  0.00    +0.013 A 
ATOM      5  C   UNK A  0       28.254 -19.939   6.983  0.00  0.00    +0.037 A 
ATOM      6  C   UNK A  0       27.371 -19.983   5.897  0.00  0.00    +0.013 A 
ATOM      7  C   UNK A  0       26.401 -20.989   5.817  0.00  0.00    +0.005 A 
BRANCH   5   8
ATOM      8  C   UNK A  0       29.288 -18.875   7.123  0.00  0.00    +0.245 C 
ATOM      9  N   GLU A  1       29.603 -18.514   8.411  0.00  0.00    -0.298 N 
ATOM     10  H   GLU A  1       29.207 -19.046   9.178  0.00  0.00    +0.150 HD
ATOM     11  O   UNK A  0       29.880 -18.432   6.148  0.00  0.00    -0.270 OA
BRANCH   9  12
ATOM     12  CA  GLU A  1       30.617 -17.507   8.754  0.00  0.00    +0.182 C 
BRANCH  12  13
ATOM     13  C   GLU A  1       31.996 -18.176   8.882  0.00  0.00    +0.325 C 
ATOM     14  O   GLU A  1       32.181 -19.349   9.170  0.00  0.00    -0.249 OA
BRANCH  13  15
ATOM     15  OXT GLU A  1       33.025 -17.301   8.738  0.00  0.00    -0.479 OA
ATOM     16  HXT GLU A  1       33.153 -17.065   7.796  0.00  0.00    +0.295 HD
ENDBRANCH  13  15
ENDBRANCH  12  13
BRANCH  12  17
ATOM     17  CB  GLU A  1       30.186 -16.687   9.980  0.00  0.00    +0.045 C 
BRANCH  17  18
ATOM     18  CG  GLU A  1       30.828 -17.118  11.298  0.00  0.00    +0.123 C 
BRANCH  18  19
ATOM     19  CD  GLU A  1       31.815 -16.105  11.814  0.00  0.00    +0.305 C 
ATOM     20  OE1 GLU A  1       32.886 -15.807  11.315  0.00  0.00    -0.251 OA
BRANCH  19  21
ATOM     21  OE2 GLU A  1       31.425 -15.559  12.984  0.00  0.00    -0.481 OA
ATOM     22  HE2 GLU A  1       30.746 -14.892  12.724  0.00  0.00    +0.295 HD
ENDBRANCH  19  21
ENDBRANCH  18  19
ENDBRANCH  17  18
ENDBRANCH  12  17
ENDBRANCH   9  12
ENDBRANCH   5   8
ENDBRANCH   1   2
BRANCH   1  23
ATOM     23  C   UNK A  0       23.896 -22.599   7.132  0.00  0.00    +0.097 C 
BRANCH  23  25
ATOM     24  C   UNK A  0       22.724 -21.002   5.318  0.00  0.00    +0.004 C 
ATOM     25  C   UNK A  0       23.237 -21.736   6.100  0.00  0.00    -0.105 C 
ENDBRANCH  23  25
ENDBRANCH   1  23
BRANCH   1  26
ATOM     26  C   UNK A  0       25.693 -24.388   7.477  0.00  0.00    +0.066 C 
BRANCH  26  27
ATOM     27  C   UNK A  0       25.524 -25.668   6.700  0.00  0.00    +0.061 A 
ATOM     28  N   UNK A  0       25.343 -26.817   7.381  0.00  0.00    -0.243 NA
ATOM     29  C   UNK A  0       25.304 -27.970   6.652  0.00  0.00    +0.148 A 
ATOM     30  C   UNK A  0       25.358 -27.982   5.254  0.00  0.00    +0.185 A 
ATOM     31  N   UNK A  0       25.334 -29.099   4.536  0.00  0.00    -0.193 NA
ATOM     32  C   UNK A  0       25.285 -30.253   5.193  0.00  0.00    +0.216 A 
ATOM     33  N   UNK A  0       25.211 -30.376   6.515  0.00  0.00    -0.198 NA
ATOM     34  N   UNK A  0       25.457 -26.823   4.593  0.00  0.00    -0.233 NA
ATOM     35  C   UNK A  0       25.223 -29.237   7.222  0.00  0.00    +0.149 A 
ATOM     36  C   UNK A  0       25.555 -25.683   5.318  0.00  0.00    +0.136 A 
BRANCH  32  37
ATOM     37  N   UNK A  0       25.275 -31.408   4.443  0.00  0.00    -0.327 N 
ATOM     38  H   UNK A  0       24.332 -31.742   4.311  0.00  0.00    +0.145 HD
ATOM     39  H   UNK A  0       25.853 -31.296   3.621  0.00  0.00    +0.145 HD
ENDBRANCH  32  37
BRANCH  35  40
ATOM     40  N   UNK A  0       25.255 -29.397   8.618  0.00  0.00    -0.341 N 
ATOM     41  H   UNK A  0       26.209 -29.400   8.971  0.00  0.00    +0.144 HD
ATOM     42  H   UNK A  0       24.643 -28.712   9.049  0.00  0.00    +0.144 HD
ENDBRANCH  35  40
ENDBRANCH  26  27
ENDBRANCH   1  26
TORSDOF 15
ENDMDL
MODEL 5
REMARK VINA RESULT:      -8.7      1.527      2.781
REMARK  Name = *****
REMARK                            x       y       z     vdW  Elec       q    Type
REMARK                         _______ _______ _______ _____ _____    ______ ____
ROOT
ATOM      1  C   UNK A  0       25.337 -21.989   7.018  0.00  0.00    +0.037 C 
ENDROOT
BRANCH   1   2
ATOM      2  C   UNK A  0       25.123 -23.490   6.799  0.00  0.00    -0.043 A 
ATOM      3  C   UNK A  0       23.847 -24.008   6.518  0.00  0.00    +0.005 A 
ATOM      4  C   UNK A  0       23.658 -25.375   6.292  0.00  0.00    +0.013 A 
ATOM      5  C   UNK A  0       24.749 -26.248   6.321  0.00  0.00    +0.037 A 
ATOM      6  C   UNK A  0       26.029 -25.743   6.575  0.00  0.00    +0.013 A 
ATOM      7  C   UNK A  0       26.212 -24.377   6.825  0.00  0.00    +0.005 A 
BRANCH   5   8
ATOM      8  C   UNK A  0       24.502 -27.697   6.072  0.00  0.00    +0.245 C 
ATOM      9  N   GLU A  1       24.638 -28.522   7.163  0.00  0.00    -0.298 N 
ATOM     10  H   GLU A  1       24.789 -28.105   8.075  0.00  0.00    +0.150 HD
ATOM     11  O   UNK A  0       24.108 -28.097   4.985  0.00  0.00    -0.270 OA
BRANCH   9  12
ATOM     12  CA  GLU A  1       24.407 -29.973   7.126  0.00  0.00    +0.182 C 
BRANCH  12  13
ATOM     13  C   GLU A  1       23.886 -30.455   8.491  0.00  0.00    +0.325 C 
ATOM     14  O   GLU A  1       24.163 -29.945   9.566  0.00  0.00    -0.249 OA
BRANCH  13  15
ATOM     15  OXT GLU A  1       23.147 -31.592   8.404  0.00  0.00    -0.479 OA
ATOM     16  HXT GLU A  1       23.143 -32.072   9.258  0.00  0.00    +0.295 HD
ENDBRANCH  13  15
ENDBRANCH  12  13
BRANCH  12  17
ATOM     17  CB  GLU A  1       25.650 -30.715   6.615  0.00  0.00    +0.045 C 
BRANCH  17  18
ATOM     18  CG  GLU A  1       25.522 -31.286   5.203  0.00  0.00    +0.123 C 
BRANCH  18  19
ATOM     19  CD  GLU A  1       24.796 -32.604   5.180  0.00  0.00    +0.305 C 
ATOM     20  OE1 GLU A  1       24.415 -33.246   6.143  0.00  0.00    -0.251 OA
BRANCH  19  21
ATOM     21  OE2 GLU A  1       24.643 -33.083   3.929  0.00  0.00    -0.481 OA
ATOM     22  HE2 GLU A  1       24.653 -34.063   4.043  0.00  0.00    +0.295 HD
ENDBRANCH  19  21
ENDBRANCH  18  19
ENDBRANCH  17  18
ENDBRANCH  12  17
ENDBRANCH   9  12
ENDBRANCH   5   8
ENDBRANCH   1   2
BRANCH   1  23
ATOM     23  C   UNK A  0       24.004 -21.338   7.468  0.00  0.00    +0.097 C 
BRANCH  23  25
ATOM     24  C   UNK A  0       22.765 -19.943   5.536  0.00  0.00    +0.004 C 
ATOM     25  C   UNK A  0       23.327 -20.581   6.367  0.00  0.00    -0.105 C 
ENDBRANCH  23  25
ENDBRANCH   1  23
BRANCH   1  26
ATOM     26  C   UNK A  0       25.913 -21.271   5.765  0.00  0.00    +0.066 C 
BRANCH  26  27
ATOM     27  C   UNK A  0       27.221 -20.567   6.016  0.00  0.00    +0.061 A 
ATOM     28  N   UNK A  0       28.073 -21.091   6.918  0.00  0.00    -0.243 NA
ATOM     29  C   UNK A  0       29.198 -20.370   7.201  0.00  0.00    +0.148 A 
ATOM     30  C   UNK A  0       29.521 -19.183   6.535  0.00  0.00    +0.185 A 
ATOM     31  N   UNK A  0       30.605 -18.468   6.812  0.00  0.00    -0.193 NA
ATOM     32  C   UNK A  0       31.395 -18.899   7.789  0.00  0.00    +0.216 A 
ATOM     33  N   UNK A  0       31.210 -20.018   8.482  0.00  0.00    -0.198 NA
ATOM     34  N   UNK A  0       28.700 -18.721   5.585  0.00  0.00    -0.233 NA
ATOM     35  C   UNK A  0       30.117 -20.734   8.180  0.00  0.00    +0.149 A 
ATOM     36  C   UNK A  0       27.555 -19.404   5.345  0.00  0.00    +0.136 A 
BRANCH  32  37
ATOM     37  N   UNK A  0       32.510 -18.145   8.080  0.00  0.00    -0.327 N 
ATOM     38  H   UNK A  0       33.330 -18.526   7.630  0.00  0.00    +0.145 HD
ATOM     39  H   UNK A  0       32.314 -17.163   7.944  0.00  0.00    +0.145 HD
ENDBRANCH  32  37
BRANCH  35  40
ATOM     40  N   UNK A  0       29.886 -21.853   8.999  0.00  0.00    -0.341 N 
ATOM     41  H   UNK A  0       29.821 -21.589   9.979  0.00  0.00    +0.144 HD
ATOM     42  H   UNK A  0       29.090 -22.371   8.644  0.00  0.00    +0.144 HD
ENDBRANCH  35  40
ENDBRANCH  26  27
ENDBRANCH   1  26
TORSDOF 15
ENDMDL
MODEL 6
REMARK VINA RESULT:      -8.4      4.376      9.509
REMARK  Name = *****
REMARK                            x       y       z     vdW  Elec       q    Type
REMARK                         _______ _______ _______ _____ _____    ______ ____
ROOT
ATOM      1  C   UNK A  0       25.289 -29.329   6.904  0.00  0.00    +0.037 C 
ENDROOT
BRANCH   1   2
ATOM      2  C   UNK A  0       25.158 -27.821   6.667  0.00  0.00    -0.043 A 
ATOM      3  C   UNK A  0       26.046 -26.912   7.267  0.00  0.00    +0.005 A 
ATOM      4  C   UNK A  0       25.941 -25.538   7.028  0.00  0.00    +0.013 A 
ATOM      5  C   UNK A  0       24.957 -25.049   6.165  0.00  0.00    +0.037 A 
ATOM      6  C   UNK A  0       24.081 -25.945   5.541  0.00  0.00    +0.013 A 
ATOM      7  C   UNK A  0       24.172 -27.318   5.801  0.00  0.00    +0.005 A 
BRANCH   5   8
ATOM      8  C   UNK A  0       24.883 -23.578   5.937  0.00  0.00    +0.245 C 
ATOM      9  N   GLU A  1       24.946 -22.795   7.065  0.00  0.00    -0.298 N 
ATOM     10  H   GLU A  1       25.141 -23.237   7.957  0.00  0.00    +0.150 HD
ATOM     11  O   UNK A  0       24.868 -23.110   4.807  0.00  0.00    -0.270 OA
BRANCH   9  12
ATOM     12  CA  GLU A  1       24.920 -21.325   7.044  0.00  0.00    +0.182 C 
BRANCH  12  13
ATOM     13  C   GLU A  1       25.987 -20.769   8.003  0.00  0.00    +0.325 C 
ATOM     14  O   GLU A  1       26.985 -20.155   7.660  0.00  0.00    -0.249 OA
BRANCH  13  15
ATOM     15  OXT GLU A  1       25.765 -21.114   9.298  0.00  0.00    -0.479 OA
ATOM     16  HXT GLU A  1       24.809 -21.086   9.508  0.00  0.00    +0.295 HD
ENDBRANCH  13  15
ENDBRANCH  12  13
BRANCH  12  17
ATOM     17  CB  GLU A  1       23.499 -20.797   7.289  0.00  0.00    +0.045 C 
BRANCH  17  18
ATOM     18  CG  GLU A  1       22.953 -19.889   6.187  0.00  0.00    +0.123 C 
BRANCH  18  19
ATOM     19  CD  GLU A  1       23.060 -20.515   4.822  0.00  0.00    +0.305 C 
ATOM     20  OE1 GLU A  1       23.751 -20.132   3.894  0.00  0.00    -0.251 OA
BRANCH  19  21
ATOM     21  OE2 GLU A  1       22.229 -21.567   4.674  0.00  0.00    -0.481 OA
ATOM     22  HE2 GLU A  1       22.057 -21.603   3.703  0.00  0.00    +0.295 HD
ENDBRANCH  19  21
ENDBRANCH  18  19
ENDBRANCH  17  18
ENDBRANCH  12  17
ENDBRANCH   9  12
ENDBRANCH   5   8
ENDBRANCH   1   2
BRANCH   1  23
ATOM     23  C   UNK A  0       24.646 -30.096   5.721  0.00  0.00    +0.097 C 
BRANCH  23  25
ATOM     24  C   UNK A  0       26.173 -32.163   4.940  0.00  0.00    +0.004 C 
ATOM     25  C   UNK A  0       25.470 -31.263   5.270  0.00  0.00    -0.105 C 
ENDBRANCH  23  25
ENDBRANCH   1  23
BRANCH   1  26
ATOM     26  C   UNK A  0       24.680 -29.784   8.260  0.00  0.00    +0.066 C 
BRANCH  26  27
ATOM     27  C   UNK A  0       25.665 -29.783   9.400  0.00  0.00    +0.061 A 
ATOM     28  N   UNK A  0       25.335 -29.141  10.538  0.00  0.00    -0.243 NA
ATOM     29  C   UNK A  0       26.292 -29.066  11.508  0.00  0.00    +0.148 A 
ATOM     30  C   UNK A  0       27.537 -29.693  11.390  0.00  0.00    +0.185 A 
ATOM     31  N   UNK A  0       28.480 -29.615  12.323  0.00  0.00    -0.193 NA
ATOM     32  C   UNK A  0       28.224 -28.880  13.399  0.00  0.00    +0.216 A 
ATOM     33  N   UNK A  0       27.077 -28.251  13.638  0.00  0.00    -0.198 NA
ATOM     34  N   UNK A  0       27.816 -30.394  10.285  0.00  0.00    -0.233 NA
ATOM     35  C   UNK A  0       26.132 -28.352  12.692  0.00  0.00    +0.149 A 
ATOM     36  C   UNK A  0       26.889 -30.420   9.298  0.00  0.00    +0.136 A 
BRANCH  32  37
ATOM     37  N   UNK A  0       29.211 -28.791  14.354  0.00  0.00    -0.327 N 
ATOM     38  H   UNK A  0       29.333 -29.675  14.828  0.00  0.00    +0.145 HD
ATOM     39  H   UNK A  0       30.034 -28.350  13.968  0.00  0.00    +0.145 HD
ENDBRANCH  32  37
BRANCH  35  40
ATOM     40  N   UNK A  0       24.972 -27.591  12.917  0.00  0.00    -0.341 N 
ATOM     41  H   UNK A  0       24.219 -28.163  13.291  0.00  0.00    +0.144 HD
ATOM     42  H   UNK A  0       25.207 -26.777  13.475  0.00  0.00    +0.144 HD
ENDBRANCH  35  40
ENDBRANCH  26  27
ENDBRANCH   1  26
TORSDOF 15
ENDMDL
MODEL 7
REMARK VINA RESULT:      -8.1      4.151      9.550
REMARK  Name = *****
REMARK                            x       y       z     vdW  Elec       q    Type
REMARK                         _______ _______ _______ _____ _____    ______ ____
ROOT
ATOM      1  C   UNK A  0       25.486 -28.855   6.663  0.00  0.00    +0.037 C 
ENDROOT
BRANCH   1   2
ATOM      2  C   UNK A  0       25.263 -27.342   6.566  0.00  0.00    -0.043 A 
ATOM      3  C   UNK A  0       24.048 -26.817   6.095  0.00  0.00    +0.005 A 
ATOM      4  C   UNK A  0       23.836 -25.436   6.032  0.00  0.00    +0.013 A 
ATOM      5  C   UNK A  0       24.831 -24.554   6.462  0.00  0.00    +0.037 A 
ATOM      6  C   UNK A  0       26.037 -25.063   6.957  0.00  0.00    +0.013 A 
ATOM      7  C   UNK A  0       26.256 -26.446   6.996  0.00  0.00    +0.005 A 
BRANCH   5   8
ATOM      8  C   UNK A  0       24.562 -23.090   6.381  0.00  0.00    +0.245 C 
ATOM      9  N   GLU A  1       25.571 -22.327   5.842  0.00  0.00    -0.298 N 
ATOM     10  H   GLU A  1       26.378 -22.793   5.444  0.00  0.00    +0.150 HD
ATOM     11  O   UNK A  0       23.471 -22.626   6.684  0.00  0.00    -0.270 OA
BRANCH   9  12
ATOM     12  CA  GLU A  1       25.483 -20.872   5.650  0.00  0.00    +0.182 C 
BRANCH  12  13
ATOM     13  C   GLU A  1       25.040 -20.560   4.210  0.00  0.00    +0.325 C 
ATOM     14  O   GLU A  1       24.108 -21.099   3.632  0.00  0.00    -0.249 OA
BRANCH  13  15
ATOM     15  OXT GLU A  1       25.859 -19.676   3.584  0.00  0.00    -0.479 OA
ATOM     16  HXT GLU A  1       26.738 -19.649   4.016  0.00  0.00    +0.295 HD
ENDBRANCH  13  15
ENDBRANCH  12  13
BRANCH  12  17
ATOM     17  CB  GLU A  1       26.783 -20.180   6.085  0.00  0.00    +0.045 C 
BRANCH  17  18
ATOM     18  CG  GLU A  1       27.205 -20.455   7.528  0.00  0.00    +0.123 C 
BRANCH  18  19
ATOM     19  CD  GLU A  1       28.593 -21.031   7.621  0.00  0.00    +0.305 C 
ATOM     20  OE1 GLU A  1       29.146 -21.444   8.625  0.00  0.00    -0.251 OA
BRANCH  19  21
ATOM     21  OE2 GLU A  1       29.243 -20.996   6.440  0.00  0.00    -0.481 OA
ATOM     22  HE2 GLU A  1       28.736 -21.620   5.868  0.00  0.00    +0.295 HD
ENDBRANCH  19  21
ENDBRANCH  18  19
ENDBRANCH  17  18
ENDBRANCH  12  17
ENDBRANCH   9  12
ENDBRANCH   5   8
ENDBRANCH   1   2
BRANCH   1  23
ATOM     23  C   UNK A  0       25.197 -29.509   5.288  0.00  0.00    +0.097 C 
BRANCH  23  25
ATOM     24  C   UNK A  0       25.965 -32.076   5.113  0.00  0.00    +0.004 C 
ATOM     25  C   UNK A  0       25.645 -30.937   5.218  0.00  0.00    -0.105 C 
ENDBRANCH  23  25
ENDBRANCH   1  23
BRANCH   1  26
ATOM     26  C   UNK A  0       24.641 -29.521   7.785  0.00  0.00    +0.066 C 
BRANCH  26  27
ATOM     27  C   UNK A  0       25.402 -29.748   9.066  0.00  0.00    +0.061 A 
ATOM     28  N   UNK A  0       24.778 -29.515  10.237  0.00  0.00    -0.243 NA
ATOM     29  C   UNK A  0       25.529 -29.625  11.372  0.00  0.00    +0.148 A 
ATOM     30  C   UNK A  0       26.863 -30.044  11.357  0.00  0.00    +0.185 A 
ATOM     31  N   UNK A  0       27.606 -30.142  12.454  0.00  0.00    -0.193 NA
ATOM     32  C   UNK A  0       27.048 -29.793  13.608  0.00  0.00    +0.216 A 
ATOM     33  N   UNK A  0       25.788 -29.398  13.759  0.00  0.00    -0.198 NA
ATOM     34  N   UNK A  0       27.441 -30.348  10.189  0.00  0.00    -0.233 NA
ATOM     35  C   UNK A  0       25.050 -29.319  12.643  0.00  0.00    +0.149 A 
ATOM     36  C   UNK A  0       26.715 -30.184   9.058  0.00  0.00    +0.136 A 
BRANCH  32  37
ATOM     37  N   UNK A  0       27.828 -29.882  14.740  0.00  0.00    -0.327 N 
ATOM     38  H   UNK A  0       27.282 -29.695  15.569  0.00  0.00    +0.145 HD
ATOM     39  H   UNK A  0       28.376 -30.731  14.722  0.00  0.00    +0.145 HD
ENDBRANCH  32  37
BRANCH  35  40
ATOM     40  N   UNK A  0       23.757 -28.795  12.813  0.00  0.00    -0.341 N 
ATOM     41  H   UNK A  0       23.638 -27.924  12.300  0.00  0.00    +0.144 HD
ATOM     42  H   UNK A  0       23.072 -29.512  12.600  0.00  0.00    +0.144 HD
ENDBRANCH  35  40
ENDBRANCH  26  27
ENDBRANCH   1  26
TORSDOF 15
ENDMDL
MODEL 8
REMARK VINA RESULT:      -7.9      4.277     10.057
REMARK  Name = *****
REMARK                            x       y       z     vdW  Elec       q    Type
REMARK                         _______ _______ _______ _____ _____    ______ ____
ROOT
ATOM      1  C   UNK A  0       25.201 -29.545   6.738  0.00  0.00    +0.037 C 
ENDROOT
BRANCH   1   2
ATOM      2  C   UNK A  0       25.205 -28.024   6.552  0.00  0.00    -0.043 A 
ATOM      3  C   UNK A  0       24.274 -27.394   5.708  0.00  0.00    +0.005 A 
ATOM      4  C   UNK A  0       24.262 -26.004   5.559  0.00  0.00    +0.013 A 
ATOM      5  C   UNK A  0       25.169 -25.214   6.271  0.00  0.00    +0.037 A 
ATOM      6  C   UNK A  0       26.085 -25.826   7.135  0.00  0.00    +0.013 A 
ATOM      7  C   UNK A  0       26.112 -27.220   7.263  0.00  0.00    +0.005 A 
BRANCH   5   8
ATOM      8  C   UNK A  0       25.119 -23.736   6.085  0.00  0.00    +0.245 C 
ATOM      9  N   GLU A  1       25.350 -22.984   7.212  0.00  0.00    -0.298 N 
ATOM     10  H   GLU A  1       25.638 -23.454   8.063  0.00  0.00    +0.150 HD
ATOM     11  O   UNK A  0       24.979 -23.240   4.975  0.00  0.00    -0.270 OA
BRANCH   9  12
ATOM     12  CA  GLU A  1       25.372 -21.514   7.225  0.00  0.00    +0.182 C 
BRANCH  12  13
ATOM     13  C   GLU A  1       26.373 -21.016   8.282  0.00  0.00    +0.325 C 
ATOM     14  O   GLU A  1       27.588 -21.030   8.157  0.00  0.00    -0.249 OA
BRANCH  13  15
ATOM     15  OXT GLU A  1       25.773 -20.636   9.440  0.00  0.00    -0.479 OA
ATOM     16  HXT GLU A  1       25.727 -19.660   9.505  0.00  0.00    +0.295 HD
ENDBRANCH  13  15
ENDBRANCH  12  13
BRANCH  12  17
ATOM     17  CB  GLU A  1       23.954 -20.943   7.365  0.00  0.00    +0.045 C 
BRANCH  17  18
ATOM     18  CG  GLU A  1       23.399 -20.287   6.101  0.00  0.00    +0.123 C 
BRANCH  18  19
ATOM     19  CD  GLU A  1       22.345 -21.128   5.431  0.00  0.00    +0.305 C 
ATOM     20  OE1 GLU A  1       21.535 -20.759   4.600  0.00  0.00    -0.251 OA
BRANCH  19  21
ATOM     21  OE2 GLU A  1       22.326 -22.392   5.899  0.00  0.00    -0.481 OA
ATOM     22  HE2 GLU A  1       22.353 -22.950   5.085  0.00  0.00    +0.295 HD
ENDBRANCH  19  21
ENDBRANCH  18  19
ENDBRANCH  17  18
ENDBRANCH  12  17
ENDBRANCH   9  12
ENDBRANCH   5   8
ENDBRANCH   1   2
BRANCH   1  23
ATOM     23  C   UNK A  0       24.987 -30.233   5.366  0.00  0.00    +0.097 C 
BRANCH  23  25
ATOM     24  C   UNK A  0       26.321 -32.557   5.193  0.00  0.00    +0.004 C 
ATOM     25  C   UNK A  0       25.743 -31.520   5.238  0.00  0.00    -0.105 C 
ENDBRANCH  23  25
ENDBRANCH   1  23
BRANCH   1  26
ATOM     26  C   UNK A  0       24.146 -30.025   7.774  0.00  0.00    +0.066 C 
BRANCH  26  27
ATOM     27  C   UNK A  0       24.717 -30.306   9.139  0.00  0.00    +0.061 A 
ATOM     28  N   UNK A  0       24.027 -29.901  10.223  0.00  0.00    -0.243 NA
ATOM     29  C   UNK A  0       24.624 -30.073  11.439  0.00  0.00    +0.148 A 
ATOM     30  C   UNK A  0       25.856 -30.718  11.590  0.00  0.00    +0.185 A 
ATOM     31  N   UNK A  0       26.452 -30.878  12.766  0.00  0.00    -0.193 NA
ATOM     32  C   UNK A  0       25.849 -30.372  13.836  0.00  0.00    +0.216 A 
ATOM     33  N   UNK A  0       24.672 -29.756  13.829  0.00  0.00    -0.198 NA
ATOM     34  N   UNK A  0       26.488 -31.184  10.507  0.00  0.00    -0.233 NA
ATOM     35  C   UNK A  0       24.079 -29.615  12.634  0.00  0.00    +0.149 A 
ATOM     36  C   UNK A  0       25.924 -30.962   9.296  0.00  0.00    +0.136 A 
BRANCH  32  37
ATOM     37  N   UNK A  0       26.480 -30.529  15.050  0.00  0.00    -0.327 N 
ATOM     38  H   UNK A  0       26.923 -29.668  15.339  0.00  0.00    +0.145 HD
ATOM     39  H   UNK A  0       25.862 -30.982  15.710  0.00  0.00    +0.145 HD
ENDBRANCH  32  37
BRANCH  35  40
ATOM     40  N   UNK A  0       22.890 -28.865  12.638  0.00  0.00    -0.341 N 
ATOM     41  H   UNK A  0       22.985 -28.014  12.089  0.00  0.00    +0.144 HD
ATOM     42  H   UNK A  0       22.115 -29.462  12.368  0.00  0.00    +0.144 HD
ENDBRANCH  35  40
ENDBRANCH  26  27
ENDBRANCH   1  26
TORSDOF 15
ENDMDL
MODEL 9
REMARK VINA RESULT:      -7.8      4.366     10.200
REMARK  Name = *****
REMARK                            x       y       z     vdW  Elec       q    Type
REMARK                         _______ _______ _______ _____ _____    ______ ____
ROOT
ATOM      1  C   UNK A  0       25.242 -29.182   6.770  0.00  0.00    +0.037 C 
ENDROOT
BRANCH   1   2
ATOM      2  C   UNK A  0       25.142 -27.667   6.563  0.00  0.00    -0.043 A 
ATOM      3  C   UNK A  0       26.052 -26.790   7.177  0.00  0.00    +0.005 A 
ATOM      4  C   UNK A  0       25.977 -25.409   6.966  0.00  0.00    +0.013 A 
ATOM      5  C   UNK A  0       25.001 -24.882   6.116  0.00  0.00    +0.037 A 
ATOM      6  C   UNK A  0       24.103 -25.747   5.478  0.00  0.00    +0.013 A 
ATOM      7  C   UNK A  0       24.165 -27.126   5.710  0.00  0.00    +0.005 A 
BRANCH   5   8
ATOM      8  C   UNK A  0       24.958 -23.406   5.918  0.00  0.00    +0.245 C 
ATOM      9  N   GLU A  1       25.087 -22.646   7.056  0.00  0.00    -0.298 N 
ATOM     10  H   GLU A  1       25.304 -23.110   7.931  0.00  0.00    +0.150 HD
ATOM     11  O   UNK A  0       24.911 -22.916   4.797  0.00  0.00    -0.270 OA
BRANCH   9  12
ATOM     12  CA  GLU A  1       25.100 -21.176   7.062  0.00  0.00    +0.182 C 
BRANCH  12  13
ATOM     13  C   GLU A  1       26.147 -20.666   8.067  0.00  0.00    +0.325 C 
ATOM     14  O   GLU A  1       27.244 -20.218   7.770  0.00  0.00    -0.249 OA
BRANCH  13  15
ATOM     15  OXT GLU A  1       25.774 -20.853   9.360  0.00  0.00    -0.479 OA
ATOM     16  HXT GLU A  1       26.401 -20.414   9.971  0.00  0.00    +0.295 HD
ENDBRANCH  13  15
ENDBRANCH  12  13
BRANCH  12  17
ATOM     17  CB  GLU A  1       23.686 -20.614   7.269  0.00  0.00    +0.045 C 
BRANCH  17  18
ATOM     18  CG  GLU A  1       22.732 -20.830   6.094  0.00  0.00    +0.123 C 
BRANCH  18  19
ATOM     19  CD  GLU A  1       22.910 -19.797   5.013  0.00  0.00    +0.305 C 
ATOM     20  OE1 GLU A  1       22.358 -18.713   4.939  0.00  0.00    -0.251 OA
BRANCH  19  21
ATOM     21  OE2 GLU A  1       23.735 -20.218   4.033  0.00  0.00    -0.481 OA
ATOM     22  HE2 GLU A  1       23.131 -20.422   3.280  0.00  0.00    +0.295 HD
ENDBRANCH  19  21
ENDBRANCH  18  19
ENDBRANCH  17  18
ENDBRANCH  12  17
ENDBRANCH   9  12
ENDBRANCH   5   8
ENDBRANCH   1   2
BRANCH   1  23
ATOM     23  C   UNK A  0       25.502 -29.873   5.407  0.00  0.00    +0.097 C 
BRANCH  23  25
ATOM     24  C   UNK A  0       26.241 -32.437   5.720  0.00  0.00    +0.004 C 
ATOM     25  C   UNK A  0       25.897 -31.311   5.552  0.00  0.00    -0.105 C 
ENDBRANCH  23  25
ENDBRANCH   1  23
BRANCH   1  26
ATOM     26  C   UNK A  0       23.988 -29.781   7.468  0.00  0.00    +0.066 C 
BRANCH  26  27
ATOM     27  C   UNK A  0       24.221 -30.169   8.905  0.00  0.00    +0.061 A 
ATOM     28  N   UNK A  0       25.317 -29.699   9.532  0.00  0.00    -0.243 NA
ATOM     29  C   UNK A  0       25.554 -30.157  10.796  0.00  0.00    +0.148 A 
ATOM     30  C   UNK A  0       24.670 -31.008  11.468  0.00  0.00    +0.185 A 
ATOM     31  N   UNK A  0       24.898 -31.470  12.692  0.00  0.00    -0.193 NA
ATOM     32  C   UNK A  0       26.037 -31.122  13.280  0.00  0.00    +0.216 A 
ATOM     33  N   UNK A  0       26.948 -30.307  12.758  0.00  0.00    -0.198 NA
ATOM     34  N   UNK A  0       23.546 -31.400  10.857  0.00  0.00    -0.233 NA
ATOM     35  C   UNK A  0       26.695 -29.839  11.527  0.00  0.00    +0.149 A 
ATOM     36  C   UNK A  0       23.339 -30.992   9.582  0.00  0.00    +0.136 A 
BRANCH  32  37
ATOM     37  N   UNK A  0       26.274 -31.617  14.543  0.00  0.00    -0.327 N 
ATOM     38  H   UNK A  0       25.491 -32.168  14.866  0.00  0.00    +0.145 HD
ATOM     39  H   UNK A  0       27.192 -32.037  14.589  0.00  0.00    +0.145 HD
ENDBRANCH  32  37
BRANCH  35  40
ATOM     40  N   UNK A  0       27.721 -29.070  10.953  0.00  0.00    -0.341 N 
ATOM     41  H   UNK A  0       28.616 -29.550  10.999  0.00  0.00    +0.144 HD
ATOM     42  H   UNK A  0       27.442 -28.776  10.023  0.00  0.00    +0.144 HD
ENDBRANCH  35  40
ENDBRANCH  26  27
ENDBRANCH   1  26
TORSDOF 15
ENDMDL
