MODEL 1
REMARK VINA RESULT:      -7.2      0.000      0.000
REMARK  Name = *****
REMARK                            x       y       z     vdW  Elec       q    Type
REMARK                         _______ _______ _______ _____ _____    ______ ____
ROOT
ATOM      1  C   LIG    1       30.813 -18.060   8.767  0.00  0.00    +0.286 A 
ATOM      2  C   LIG    1       29.967 -18.034   7.655  0.00  0.00    +0.172 A 
ATOM      3  C   LIG    1       29.575 -19.252   7.085  0.00  0.00    +0.327 A 
ATOM      4  C   LIG    1       29.989 -20.490   7.595  0.00  0.00    +0.274 A 
ATOM      5  C   LIG    1       30.838 -20.490   8.715  0.00  0.00    +0.327 A 
ATOM      6  C   LIG    1       31.255 -19.279   9.302  0.00  0.00    +0.172 A 
ENDROOT
BRANCH   1   8
ATOM      7  O   LIG    1       32.232 -16.232   8.896  0.00  0.00    +0.041 OA
ATOM      8  N   LIG    1       31.245 -16.796   9.382  0.00  0.00    +0.080 N 
ATOM      9  O   LIG    1       30.591 -16.378  10.346  0.00  0.00    -0.576 OA
ENDBRANCH   1   8
BRANCH   3  10
ATOM     10  N   LIG    1       28.700 -19.197   5.928  0.00  0.00    +0.084 N 
ATOM     11  O   LIG    1       27.696 -19.921   5.962  0.00  0.00    -0.576 OA
ATOM     12  O   LIG    1       28.978 -18.377   5.046  0.00  0.00    +0.042 OA
ENDBRANCH   3  10
BRANCH   5  13
ATOM     13  N   LIG    1       31.303 -21.749   9.313  0.00  0.00    +0.084 N 
ATOM     14  O   LIG    1       32.205 -22.360   8.720  0.00  0.00    -0.576 OA
ATOM     15  O   LIG    1       30.771 -22.122  10.364  0.00  0.00    +0.042 OA
ENDBRANCH   5  13
BRANCH   4  16
ATOM     16  O   LIG    1       29.525 -21.624   6.989  0.00  0.00    -0.497 OA
ATOM     17  H   LIG    1       30.252 -22.143   6.578  0.00  0.00    +0.293 HD
ENDBRANCH   4  16
TORSDOF 4
ENDMDL
MODEL 2
REMARK VINA RESULT:      -7.2      0.153      3.703
REMARK  Name = *****
REMARK                            x       y       z     vdW  Elec       q    Type
REMARK                         _______ _______ _______ _____ _____    ______ ____
ROOT
ATOM      1  C   LIG    1       30.969 -18.106   8.769  0.00  0.00    +0.286 A 
ATOM      2  C   LIG    1       31.378 -19.328   9.308  0.00  0.00    +0.172 A 
ATOM      3  C   LIG    1       30.877 -20.509   8.744  0.00  0.00    +0.327 A 
ATOM      4  C   LIG    1       29.994 -20.508   7.656  0.00  0.00    +0.274 A 
ATOM      5  C   LIG    1       29.600 -19.266   7.129  0.00  0.00    +0.327 A 
ATOM      6  C   LIG    1       30.081 -18.063   7.684  0.00  0.00    +0.172 A 
ENDROOT
BRANCH   1   8
ATOM      7  O   LIG    1       32.401 -16.283   8.755  0.00  0.00    +0.041 OA
ATOM      8  N   LIG    1       31.474 -16.850   9.345  0.00  0.00    +0.080 N 
ATOM      9  O   LIG    1       30.936 -16.442  10.382  0.00  0.00    -0.576 OA
ENDBRANCH   1   8
BRANCH   3  10
ATOM     10  N   LIG    1       31.314 -21.765   9.326  0.00  0.00    +0.084 N 
ATOM     11  O   LIG    1       30.660 -22.182  10.290  0.00  0.00    -0.576 OA
ATOM     12  O   LIG    1       32.244 -22.355   8.765  0.00  0.00    +0.042 OA
ENDBRANCH   3  10
BRANCH   5  13
ATOM     13  N   LIG    1       28.687 -19.186   5.981  0.00  0.00    +0.084 N 
ATOM     14  O   LIG    1       28.945 -18.344   5.107  0.00  0.00    -0.576 OA
ATOM     15  O   LIG    1       27.721 -19.957   5.954  0.00  0.00    +0.042 OA
ENDBRANCH   5  13
BRANCH   4  16
ATOM     16  O   LIG    1       29.588 -21.714   7.154  0.00  0.00    -0.497 OA
ATOM     17  H   LIG    1       29.179 -21.620   6.266  0.00  0.00    +0.293 HD
ENDBRANCH   4  16
TORSDOF 4
ENDMDL
MODEL 3
REMARK VINA RESULT:      -6.9      4.976      6.529
REMARK  Name = *****
REMARK                            x       y       z     vdW  Elec       q    Type
REMARK                         _______ _______ _______ _____ _____    ______ ____
ROOT
ATOM      1  C   LIG    1       25.900 -21.470   7.313  0.00  0.00    +0.286 A 
ATOM      2  C   LIG    1       25.632 -20.456   6.390  0.00  0.00    +0.172 A 
ATOM      3  C   LIG    1       24.999 -20.797   5.187  0.00  0.00    +0.327 A 
ATOM      4  C   LIG    1       24.618 -22.111   4.883  0.00  0.00    +0.274 A 
ATOM      5  C   LIG    1       24.896 -23.113   5.830  0.00  0.00    +0.327 A 
ATOM      6  C   LIG    1       25.539 -22.798   7.043  0.00  0.00    +0.172 A 
ENDROOT
BRANCH   1   8
ATOM      7  O   LIG    1       27.755 -21.465   8.703  0.00  0.00    +0.041 OA
ATOM      8  N   LIG    1       26.568 -21.141   8.582  0.00  0.00    +0.080 N 
ATOM      9  O   LIG    1       25.897 -20.560   9.445  0.00  0.00    -0.576 OA
ENDBRANCH   1   8
BRANCH   3  10
ATOM     10  N   LIG    1       24.737 -19.726   4.244  0.00  0.00    +0.084 N 
ATOM     11  O   LIG    1       23.547 -19.493   3.993  0.00  0.00    -0.576 OA
ATOM     12  O   LIG    1       25.709 -19.081   3.834  0.00  0.00    +0.042 OA
ENDBRANCH   3  10
BRANCH   5  13
ATOM     13  N   LIG    1       24.514 -24.510   5.587  0.00  0.00    +0.084 N 
ATOM     14  O   LIG    1       23.669 -25.008   6.346  0.00  0.00    -0.576 OA
ATOM     15  O   LIG    1       25.054 -25.103   4.646  0.00  0.00    +0.042 OA
ENDBRANCH   5  13
BRANCH   4  16
ATOM     16  O   LIG    1       23.975 -22.337   3.698  0.00  0.00    -0.497 OA
ATOM     17  H   LIG    1       23.328 -21.627   3.492  0.00  0.00    +0.293 HD
ENDBRANCH   4  16
TORSDOF 4
ENDMDL
MODEL 4
REMARK VINA RESULT:      -6.9      2.461      5.387
REMARK  Name = *****
REMARK                            x       y       z     vdW  Elec       q    Type
REMARK                         _______ _______ _______ _____ _____    ______ ____
ROOT
ATOM      1  C   LIG    1       27.777 -21.252   8.016  0.00  0.00    +0.286 A 
ATOM      2  C   LIG    1       28.937 -21.685   8.665  0.00  0.00    +0.172 A 
ATOM      3  C   LIG    1       30.167 -21.144   8.267  0.00  0.00    +0.327 A 
ATOM      4  C   LIG    1       30.274 -20.180   7.256  0.00  0.00    +0.274 A 
ATOM      5  C   LIG    1       29.093 -19.758   6.620  0.00  0.00    +0.327 A 
ATOM      6  C   LIG    1       27.844 -20.293   6.994  0.00  0.00    +0.172 A 
ENDROOT
BRANCH   1   8
ATOM      7  O   LIG    1       26.064 -22.797   7.790  0.00  0.00    +0.041 OA
ATOM      8  N   LIG    1       26.473 -21.807   8.409  0.00  0.00    +0.080 N 
ATOM      9  O   LIG    1       25.871 -21.248   9.335  0.00  0.00    -0.576 OA
ENDBRANCH   1   8
BRANCH   3  10
ATOM     10  N   LIG    1       31.356 -21.614   8.953  0.00  0.00    +0.084 N 
ATOM     11  O   LIG    1       32.132 -20.744   9.370  0.00  0.00    -0.576 OA
ATOM     12  O   LIG    1       31.457 -22.832   9.141  0.00  0.00    +0.042 OA
ENDBRANCH   3  10
BRANCH   5  13
ATOM     13  N   LIG    1       29.125 -18.742   5.560  0.00  0.00    +0.084 N 
ATOM     14  O   LIG    1       28.114 -18.630   4.850  0.00  0.00    -0.576 OA
ATOM     15  O   LIG    1       30.151 -18.063   5.440  0.00  0.00    +0.042 OA
ENDBRANCH   5  13
BRANCH   4  16
ATOM     16  O   LIG    1       31.515 -19.688   6.964  0.00  0.00    -0.497 OA
ATOM     17  H   LIG    1       32.168 -20.408   6.815  0.00  0.00    +0.293 HD
ENDBRANCH   4  16
TORSDOF 4
ENDMDL
MODEL 5
REMARK VINA RESULT:      -6.8      4.959      7.152
REMARK  Name = *****
REMARK                            x       y       z     vdW  Elec       q    Type
REMARK                         _______ _______ _______ _____ _____    ______ ____
ROOT
ATOM      1  C   LIG    1       25.919 -21.470   7.312  0.00  0.00    +0.286 A 
ATOM      2  C   LIG    1       25.545 -22.793   7.063  0.00  0.00    +0.172 A 
ATOM      3  C   LIG    1       24.901 -23.089   5.853  0.00  0.00    +0.327 A 
ATOM      4  C   LIG    1       24.631 -22.113   4.886  0.00  0.00    +0.274 A 
ATOM      5  C   LIG    1       25.019 -20.790   5.159  0.00  0.00    +0.327 A 
ATOM      6  C   LIG    1       25.660 -20.462   6.370  0.00  0.00    +0.172 A 
ENDROOT
BRANCH   1   8
ATOM      7  O   LIG    1       27.774 -21.469   8.702  0.00  0.00    +0.041 OA
ATOM      8  N   LIG    1       26.592 -21.129   8.575  0.00  0.00    +0.080 N 
ATOM      9  O   LIG    1       25.930 -20.522   9.427  0.00  0.00    -0.576 OA
ENDBRANCH   1   8
BRANCH   3  10
ATOM     10  N   LIG    1       24.519 -24.470   5.621  0.00  0.00    +0.084 N 
ATOM     11  O   LIG    1       23.608 -24.916   6.331  0.00  0.00    -0.576 OA
ATOM     12  O   LIG    1       25.071 -25.060   4.685  0.00  0.00    +0.042 OA
ENDBRANCH   3  10
BRANCH   5  13
ATOM     13  N   LIG    1       24.781 -19.715   4.186  0.00  0.00    +0.084 N 
ATOM     14  O   LIG    1       23.617 -19.559   3.786  0.00  0.00    -0.576 OA
ATOM     15  O   LIG    1       25.748 -19.034   3.826  0.00  0.00    +0.042 OA
ENDBRANCH   5  13
BRANCH   4  16
ATOM     16  O   LIG    1       24.029 -22.507   3.723  0.00  0.00    -0.497 OA
ATOM     17  H   LIG    1       24.153 -23.468   3.555  0.00  0.00    +0.293 HD
ENDBRANCH   4  16
TORSDOF 4
ENDMDL
MODEL 6
REMARK VINA RESULT:      -6.8      2.467      3.937
REMARK  Name = *****
REMARK                            x       y       z     vdW  Elec       q    Type
REMARK                         _______ _______ _______ _____ _____    ______ ____
ROOT
ATOM      1  C   LIG    1       27.748 -21.268   8.010  0.00  0.00    +0.286 A 
ATOM      2  C   LIG    1       27.825 -20.312   6.993  0.00  0.00    +0.172 A 
ATOM      3  C   LIG    1       29.082 -19.789   6.661  0.00  0.00    +0.327 A 
ATOM      4  C   LIG    1       30.260 -20.198   7.300  0.00  0.00    +0.274 A 
ATOM      5  C   LIG    1       30.157 -21.162   8.318  0.00  0.00    +0.327 A 
ATOM      6  C   LIG    1       28.904 -21.697   8.679  0.00  0.00    +0.172 A 
ENDROOT
BRANCH   1   8
ATOM      7  O   LIG    1       25.853 -21.317   9.344  0.00  0.00    +0.041 OA
ATOM      8  N   LIG    1       26.441 -21.829   8.384  0.00  0.00    +0.080 N 
ATOM      9  O   LIG    1       26.014 -22.776   7.711  0.00  0.00    -0.576 OA
ENDBRANCH   1   8
BRANCH   3  10
ATOM     10  N   LIG    1       29.134 -18.796   5.605  0.00  0.00    +0.084 N 
ATOM     11  O   LIG    1       28.144 -18.727   4.864  0.00  0.00    -0.576 OA
ATOM     12  O   LIG    1       30.116 -18.045   5.580  0.00  0.00    +0.042 OA
ENDBRANCH   3  10
BRANCH   5  13
ATOM     13  N   LIG    1       31.350 -21.648   9.024  0.00  0.00    +0.084 N 
ATOM     14  O   LIG    1       31.404 -22.860   9.281  0.00  0.00    -0.576 OA
ATOM     15  O   LIG    1       32.223 -20.825   9.319  0.00  0.00    +0.042 OA
ENDBRANCH   5  13
BRANCH   4  16
ATOM     16  O   LIG    1       31.442 -19.654   6.881  0.00  0.00    -0.497 OA
ATOM     17  H   LIG    1       31.946 -20.273   6.306  0.00  0.00    +0.293 HD
ENDBRANCH   4  16
TORSDOF 4
ENDMDL
MODEL 7
REMARK VINA RESULT:      -6.6      4.970      6.629
REMARK  Name = *****
REMARK                            x       y       z     vdW  Elec       q    Type
REMARK                         _______ _______ _______ _____ _____    ______ ____
ROOT
ATOM      1  C   LIG    1       26.428 -21.550   6.795  0.00  0.00    +0.286 A 
ATOM      2  C   LIG    1       26.026 -20.529   5.930  0.00  0.00    +0.172 A 
ATOM      3  C   LIG    1       24.794 -20.656   5.273  0.00  0.00    +0.327 A 
ATOM      4  C   LIG    1       23.951 -21.758   5.462  0.00  0.00    +0.274 A 
ATOM      5  C   LIG    1       24.376 -22.771   6.339  0.00  0.00    +0.327 A 
ATOM      6  C   LIG    1       25.614 -22.673   7.005  0.00  0.00    +0.172 A 
ENDROOT
BRANCH   1   8
ATOM      7  O   LIG    1       28.734 -21.310   6.800  0.00  0.00    +0.041 OA
ATOM      8  N   LIG    1       27.719 -21.447   7.493  0.00  0.00    +0.080 N 
ATOM      9  O   LIG    1       27.704 -21.501   8.730  0.00  0.00    -0.576 OA
ENDBRANCH   1   8
BRANCH   3  10
ATOM     10  N   LIG    1       24.403 -19.584   4.377  0.00  0.00    +0.084 N 
ATOM     11  O   LIG    1       23.262 -19.128   4.529  0.00  0.00    -0.576 OA
ATOM     12  O   LIG    1       25.261 -19.157   3.595  0.00  0.00    +0.042 OA
ENDBRANCH   3  10
BRANCH   5  13
ATOM     13  N   LIG    1       23.539 -23.950   6.597  0.00  0.00    +0.084 N 
ATOM     14  O   LIG    1       22.335 -23.754   6.821  0.00  0.00    -0.576 OA
ATOM     15  O   LIG    1       24.082 -25.061   6.576  0.00  0.00    +0.042 OA
ENDBRANCH   5  13
BRANCH   4  16
ATOM     16  O   LIG    1       22.753 -21.773   4.802  0.00  0.00    -0.497 OA
ATOM     17  H   LIG    1       22.226 -22.574   5.020  0.00  0.00    +0.293 HD
ENDBRANCH   4  16
TORSDOF 4
ENDMDL
MODEL 8
REMARK VINA RESULT:      -6.6      3.313      5.791
REMARK  Name = *****
REMARK                            x       y       z     vdW  Elec       q    Type
REMARK                         _______ _______ _______ _____ _____    ______ ____
ROOT
ATOM      1  C   LIG    1       26.167 -20.053   5.084  0.00  0.00    +0.286 A 
ATOM      2  C   LIG    1       25.656 -20.912   6.061  0.00  0.00    +0.172 A 
ATOM      3  C   LIG    1       26.476 -21.255   7.144  0.00  0.00    +0.327 A 
ATOM      4  C   LIG    1       27.779 -20.760   7.289  0.00  0.00    +0.274 A 
ATOM      5  C   LIG    1       28.269 -19.896   6.294  0.00  0.00    +0.327 A 
ATOM      6  C   LIG    1       27.469 -19.542   5.189  0.00  0.00    +0.172 A 
ENDROOT
BRANCH   1   8
ATOM      7  O   LIG    1       24.531 -20.524   3.511  0.00  0.00    +0.041 OA
ATOM      8  N   LIG    1       25.331 -19.680   3.933  0.00  0.00    +0.080 N 
ATOM      9  O   LIG    1       25.481 -18.545   3.463  0.00  0.00    -0.576 OA
ENDBRANCH   1   8
BRANCH   3  10
ATOM     10  N   LIG    1       25.923 -22.152   8.141  0.00  0.00    +0.084 N 
ATOM     11  O   LIG    1       25.815 -23.341   7.814  0.00  0.00    -0.576 OA
ATOM     12  O   LIG    1       25.684 -21.679   9.259  0.00  0.00    +0.042 OA
ENDBRANCH   3  10
BRANCH   5  13
ATOM     13  N   LIG    1       29.621 -19.327   6.385  0.00  0.00    +0.084 N 
ATOM     14  O   LIG    1       29.811 -18.226   5.846  0.00  0.00    -0.576 OA
ATOM     15  O   LIG    1       30.483 -19.976   6.988  0.00  0.00    +0.042 OA
ENDBRANCH   5  13
BRANCH   4  16
ATOM     16  O   LIG    1       28.488 -21.127   8.399  0.00  0.00    -0.497 OA
ATOM     17  H   LIG    1       29.234 -20.513   8.575  0.00  0.00    +0.293 HD
ENDBRANCH   4  16
TORSDOF 4
ENDMDL
MODEL 9
REMARK VINA RESULT:      -6.5      5.037      6.973
REMARK  Name = *****
REMARK                            x       y       z     vdW  Elec       q    Type
REMARK                         _______ _______ _______ _____ _____    ______ ____
ROOT
ATOM      1  C   LIG    1       24.755 -20.888   5.181  0.00  0.00    +0.286 A 
ATOM      2  C   LIG    1       24.433 -22.221   4.912  0.00  0.00    +0.172 A 
ATOM      3  C   LIG    1       24.860 -23.206   5.813  0.00  0.00    +0.327 A 
ATOM      4  C   LIG    1       25.585 -22.902   6.973  0.00  0.00    +0.274 A 
ATOM      5  C   LIG    1       25.894 -21.553   7.222  0.00  0.00    +0.327 A 
ATOM      6  C   LIG    1       25.485 -20.544   6.328  0.00  0.00    +0.172 A 
ENDROOT
BRANCH   1   8
ATOM      7  O   LIG    1       23.137 -19.489   4.287  0.00  0.00    +0.041 OA
ATOM      8  N   LIG    1       24.324 -19.834   4.250  0.00  0.00    +0.080 N 
ATOM      9  O   LIG    1       25.179 -19.359   3.491  0.00  0.00    -0.576 OA
ENDBRANCH   1   8
BRANCH   3  10
ATOM     10  N   LIG    1       24.517 -24.583   5.509  0.00  0.00    +0.084 N 
ATOM     11  O   LIG    1       25.137 -25.113   4.578  0.00  0.00    -0.576 OA
ATOM     12  O   LIG    1       23.699 -25.140   6.251  0.00  0.00    +0.042 OA
ENDBRANCH   3  10
BRANCH   5  13
ATOM     13  N   LIG    1       26.640 -21.157   8.424  0.00  0.00    +0.084 N 
ATOM     14  O   LIG    1       27.842 -21.461   8.472  0.00  0.00    -0.576 OA
ATOM     15  O   LIG    1       26.030 -20.549   9.310  0.00  0.00    +0.042 OA
ENDBRANCH   5  13
BRANCH   4  16
ATOM     16  O   LIG    1       25.927 -23.930   7.806  0.00  0.00    -0.497 OA
ATOM     17  H   LIG    1       26.853 -24.227   7.660  0.00  0.00    +0.293 HD
ENDBRANCH   4  16
TORSDOF 4
ENDMDL
