MODEL 1
REMARK VINA RESULT:      -6.3      0.000      0.000
REMARK  Name = *****
REMARK                            x       y       z     vdW  Elec       q    Type
REMARK                         _______ _______ _______ _____ _____    ______ ____
ROOT
ATOM      1  C   LIG    1       24.830 -14.500   3.690  0.00  0.00    -0.031 A 
ATOM      2  C   LIG    1       25.702 -15.529   3.314  0.00  0.00    +0.043 A 
ATOM      3  C   LIG    1       25.337 -16.875   3.456  0.00  0.00    +0.131 A 
ATOM      4  F   LIG    1       26.231 -17.792   3.054  0.00  0.00    -0.205 F 
ATOM      5  C   LIG    1       24.098 -17.265   3.986  0.00  0.00    +0.017 A 
ATOM      6  C   LIG    1       23.225 -16.218   4.346  0.00  0.00    +0.012 A 
ATOM      7  C   LIG    1       23.580 -14.865   4.201  0.00  0.00    +0.005 A 
ENDROOT
BRANCH   5   8
ATOM      8  C   LIG    1       23.717 -18.690   4.176  0.00  0.00    -0.015 A 
ATOM      9  C   LIG    1       24.601 -19.742   3.866  0.00  0.00    +0.008 A 
ATOM     10  C   LIG    1       24.246 -21.084   4.054  0.00  0.00    +0.001 A 
ATOM     11  C   LIG    1       22.998 -21.412   4.570  0.00  0.00    +0.000 A 
ATOM     12  C   LIG    1       22.103 -20.397   4.892  0.00  0.00    +0.001 A 
ATOM     13  C   LIG    1       22.458 -19.057   4.691  0.00  0.00    +0.008 A 
ENDBRANCH   5   8
BRANCH   1  15
ATOM     14  C   LIG    1       26.476 -12.869   2.631  0.00  0.00    +0.024 C 
ATOM     15  C   LIG    1       25.272 -13.046   3.564  0.00  0.00    +0.124 C 
BRANCH  15  16
ATOM     16  C   LIG    1       24.145 -12.108   3.141  0.00  0.00    +0.312 C 
ATOM     17  O   LIG    1       23.462 -11.447   3.917  0.00  0.00    -0.250 OA
BRANCH  16  18
ATOM     18  O   LIG    1       23.893 -12.104   1.812  0.00  0.00    -0.480 OA
ATOM     19  H   LIG    1       24.670 -11.892   1.259  0.00  0.00    +0.295 HD
ENDBRANCH  16  18
ENDBRANCH  15  16
ENDBRANCH   1  15
TORSDOF 4
ENDMDL
MODEL 2
REMARK VINA RESULT:      -6.0      2.141      2.611
REMARK  Name = *****
REMARK                            x       y       z     vdW  Elec       q    Type
REMARK                         _______ _______ _______ _____ _____    ______ ____
ROOT
ATOM      1  C   LIG    1       26.136 -14.986   3.236  0.00  0.00    -0.031 A 
ATOM      2  C   LIG    1       24.807 -14.935   3.677  0.00  0.00    +0.043 A 
ATOM      3  C   LIG    1       24.099 -16.107   3.975  0.00  0.00    +0.131 A 
ATOM      4  F   LIG    1       22.836 -15.959   4.407  0.00  0.00    -0.205 F 
ATOM      5  C   LIG    1       24.666 -17.383   3.841  0.00  0.00    +0.017 A 
ATOM      6  C   LIG    1       26.008 -17.418   3.411  0.00  0.00    +0.012 A 
ATOM      7  C   LIG    1       26.730 -16.247   3.116  0.00  0.00    +0.005 A 
ENDROOT
BRANCH   5   8
ATOM      8  C   LIG    1       23.910 -18.633   4.119  0.00  0.00    -0.015 A 
ATOM      9  C   LIG    1       24.520 -19.900   4.053  0.00  0.00    +0.008 A 
ATOM     10  C   LIG    1       23.810 -21.077   4.325  0.00  0.00    +0.001 A 
ATOM     11  C   LIG    1       22.469 -21.017   4.683  0.00  0.00    +0.000 A 
ATOM     12  C   LIG    1       21.837 -19.781   4.764  0.00  0.00    +0.001 A 
ATOM     13  C   LIG    1       22.548 -18.608   4.480  0.00  0.00    +0.008 A 
ENDBRANCH   5   8
BRANCH   1  15
ATOM     14  C   LIG    1       25.920 -12.505   2.701  0.00  0.00    +0.024 C 
ATOM     15  C   LIG    1       26.867 -13.698   2.878  0.00  0.00    +0.124 C 
BRANCH  15  16
ATOM     16  C   LIG    1       27.975 -13.339   3.866  0.00  0.00    +0.312 C 
ATOM     17  O   LIG    1       27.786 -13.015   5.034  0.00  0.00    -0.250 OA
BRANCH  16  18
ATOM     18  O   LIG    1       29.217 -13.334   3.332  0.00  0.00    -0.480 OA
ATOM     19  H   LIG    1       29.687 -14.187   3.404  0.00  0.00    +0.295 HD
ENDBRANCH  16  18
ENDBRANCH  15  16
ENDBRANCH   1  15
TORSDOF 4
ENDMDL
MODEL 3
REMARK VINA RESULT:      -6.0      1.123      1.590
REMARK  Name = *****
REMARK                            x       y       z     vdW  Elec       q    Type
REMARK                         _______ _______ _______ _____ _____    ______ ____
ROOT
ATOM      1  C   LIG    1       24.964 -14.489   3.695  0.00  0.00    -0.031 A 
ATOM      2  C   LIG    1       23.729 -14.818   4.268  0.00  0.00    +0.043 A 
ATOM      3  C   LIG    1       23.341 -16.154   4.432  0.00  0.00    +0.131 A 
ATOM      4  F   LIG    1       22.147 -16.374   5.007  0.00  0.00    -0.205 F 
ATOM      5  C   LIG    1       24.150 -17.228   4.027  0.00  0.00    +0.017 A 
ATOM      6  C   LIG    1       25.395 -16.881   3.465  0.00  0.00    +0.012 A 
ATOM      7  C   LIG    1       25.798 -15.542   3.303  0.00  0.00    +0.005 A 
ENDROOT
BRANCH   5   8
ATOM      8  C   LIG    1       23.730 -18.647   4.162  0.00  0.00    -0.015 A 
ATOM      9  C   LIG    1       24.578 -19.710   3.797  0.00  0.00    +0.008 A 
ATOM     10  C   LIG    1       24.186 -21.049   3.933  0.00  0.00    +0.001 A 
ATOM     11  C   LIG    1       22.936 -21.361   4.453  0.00  0.00    +0.000 A 
ATOM     12  C   LIG    1       22.076 -20.335   4.831  0.00  0.00    +0.001 A 
ATOM     13  C   LIG    1       22.467 -18.999   4.681  0.00  0.00    +0.008 A 
ENDBRANCH   5   8
BRANCH   1  15
ATOM     14  C   LIG    1       26.461 -12.837   2.460  0.00  0.00    +0.024 C 
ATOM     15  C   LIG    1       25.340 -13.026   3.490  0.00  0.00    +0.124 C 
BRANCH  15  16
ATOM     16  C   LIG    1       24.149 -12.142   3.128  0.00  0.00    +0.312 C 
ATOM     17  O   LIG    1       23.468 -11.526   3.942  0.00  0.00    -0.250 OA
BRANCH  16  18
ATOM     18  O   LIG    1       23.839 -12.137   1.812  0.00  0.00    -0.480 OA
ATOM     19  H   LIG    1       24.613 -12.075   1.220  0.00  0.00    +0.295 HD
ENDBRANCH  16  18
ENDBRANCH  15  16
ENDBRANCH   1  15
TORSDOF 4
ENDMDL
MODEL 4
REMARK VINA RESULT:      -5.7      1.474      1.837
REMARK  Name = *****
REMARK                            x       y       z     vdW  Elec       q    Type
REMARK                         _______ _______ _______ _____ _____    ______ ____
ROOT
ATOM      1  C   LIG    1       24.793 -14.679   3.777  0.00  0.00    -0.031 A 
ATOM      2  C   LIG    1       25.635 -15.717   3.357  0.00  0.00    +0.043 A 
ATOM      3  C   LIG    1       25.240 -17.057   3.467  0.00  0.00    +0.131 A 
ATOM      4  F   LIG    1       26.105 -17.983   3.022  0.00  0.00    -0.205 F 
ATOM      5  C   LIG    1       24.001 -17.435   4.007  0.00  0.00    +0.017 A 
ATOM      6  C   LIG    1       23.160 -16.379   4.412  0.00  0.00    +0.012 A 
ATOM      7  C   LIG    1       23.543 -15.030   4.299  0.00  0.00    +0.005 A 
ENDROOT
BRANCH   5   8
ATOM      8  C   LIG    1       23.590 -18.855   4.162  0.00  0.00    -0.015 A 
ATOM      9  C   LIG    1       24.412 -19.916   3.735  0.00  0.00    +0.008 A 
ATOM     10  C   LIG    1       24.029 -21.255   3.890  0.00  0.00    +0.001 A 
ATOM     11  C   LIG    1       22.816 -21.571   4.490  0.00  0.00    +0.000 A 
ATOM     12  C   LIG    1       21.983 -20.546   4.928  0.00  0.00    +0.001 A 
ATOM     13  C   LIG    1       22.364 -19.209   4.760  0.00  0.00    +0.008 A 
ENDBRANCH   5   8
BRANCH   1  15
ATOM     14  C   LIG    1       24.324 -12.251   4.391  0.00  0.00    +0.024 C 
ATOM     15  C   LIG    1       25.268 -13.233   3.686  0.00  0.00    +0.124 C 
BRANCH  15  16
ATOM     16  C   LIG    1       26.695 -13.034   4.189  0.00  0.00    +0.312 C 
ATOM     17  O   LIG    1       27.675 -12.894   3.464  0.00  0.00    -0.250 OA
BRANCH  16  18
ATOM     18  O   LIG    1       26.824 -13.092   5.534  0.00  0.00    -0.480 OA
ATOM     19  H   LIG    1       26.737 -12.229   5.982  0.00  0.00    +0.295 HD
ENDBRANCH  16  18
ENDBRANCH  15  16
ENDBRANCH   1  15
TORSDOF 4
ENDMDL
MODEL 5
REMARK VINA RESULT:      -5.7      3.553      6.736
REMARK  Name = *****
REMARK                            x       y       z     vdW  Elec       q    Type
REMARK                         _______ _______ _______ _____ _____    ______ ____
ROOT
ATOM      1  C   LIG    1       24.131 -19.331   4.084  0.00  0.00    -0.031 A 
ATOM      2  C   LIG    1       23.172 -18.353   4.379  0.00  0.00    +0.043 A 
ATOM      3  C   LIG    1       23.432 -16.994   4.159  0.00  0.00    +0.131 A 
ATOM      4  F   LIG    1       22.447 -16.131   4.456  0.00  0.00    -0.205 F 
ATOM      5  C   LIG    1       24.656 -16.536   3.647  0.00  0.00    +0.017 A 
ATOM      6  C   LIG    1       25.606 -17.532   3.341  0.00  0.00    +0.012 A 
ATOM      7  C   LIG    1       25.352 -18.900   3.552  0.00  0.00    +0.005 A 
ENDROOT
BRANCH   5   8
ATOM      8  C   LIG    1       24.955 -15.094   3.446  0.00  0.00    -0.015 A 
ATOM      9  C   LIG    1       26.194 -14.656   2.941  0.00  0.00    +0.008 A 
ATOM     10  C   LIG    1       26.473 -13.297   2.742  0.00  0.00    +0.001 A 
ATOM     11  C   LIG    1       25.511 -12.337   3.032  0.00  0.00    +0.000 A 
ATOM     12  C   LIG    1       24.274 -12.736   3.527  0.00  0.00    +0.001 A 
ATOM     13  C   LIG    1       24.004 -14.095   3.736  0.00  0.00    +0.008 A 
ENDBRANCH   5   8
BRANCH   1  15
ATOM     14  C   LIG    1       25.071 -21.572   4.849  0.00  0.00    +0.024 C 
ATOM     15  C   LIG    1       23.835 -20.797   4.374  0.00  0.00    +0.124 C 
BRANCH  15  16
ATOM     16  C   LIG    1       22.687 -20.996   5.361  0.00  0.00    +0.312 C 
ATOM     17  O   LIG    1       22.768 -20.803   6.570  0.00  0.00    -0.250 OA
BRANCH  16  18
ATOM     18  O   LIG    1       21.554 -21.482   4.806  0.00  0.00    -0.480 OA
ATOM     19  H   LIG    1       21.452 -22.450   4.887  0.00  0.00    +0.295 HD
ENDBRANCH  16  18
ENDBRANCH  15  16
ENDBRANCH   1  15
TORSDOF 4
ENDMDL
MODEL 6
REMARK VINA RESULT:      -5.6      3.435      6.579
REMARK  Name = *****
REMARK                            x       y       z     vdW  Elec       q    Type
REMARK                         _______ _______ _______ _____ _____    ______ ____
ROOT
ATOM      1  C   LIG    1       23.856 -19.239   4.062  0.00  0.00    -0.031 A 
ATOM      2  C   LIG    1       25.142 -18.812   3.705  0.00  0.00    +0.043 A 
ATOM      3  C   LIG    1       25.434 -17.451   3.544  0.00  0.00    +0.131 A 
ATOM      4  F   LIG    1       26.697 -17.136   3.217  0.00  0.00    -0.205 F 
ATOM      5  C   LIG    1       24.466 -16.449   3.717  0.00  0.00    +0.017 A 
ATOM      6  C   LIG    1       23.182 -16.893   4.090  0.00  0.00    +0.012 A 
ATOM      7  C   LIG    1       22.880 -18.256   4.262  0.00  0.00    +0.005 A 
ENDROOT
BRANCH   5   8
ATOM      8  C   LIG    1       24.758 -15.006   3.511  0.00  0.00    -0.015 A 
ATOM      9  C   LIG    1       25.952 -14.569   2.906  0.00  0.00    +0.008 A 
ATOM     10  C   LIG    1       26.223 -13.209   2.703  0.00  0.00    +0.001 A 
ATOM     11  C   LIG    1       25.297 -12.247   3.089  0.00  0.00    +0.000 A 
ATOM     12  C   LIG    1       24.105 -12.645   3.684  0.00  0.00    +0.001 A 
ATOM     13  C   LIG    1       23.844 -14.005   3.896  0.00  0.00    +0.008 A 
ENDBRANCH   5   8
BRANCH   1  15
ATOM     14  C   LIG    1       24.820 -21.572   4.408  0.00  0.00    +0.024 C 
ATOM     15  C   LIG    1       23.558 -20.728   4.188  0.00  0.00    +0.124 C 
BRANCH  15  16
ATOM     16  C   LIG    1       22.526 -21.048   5.267  0.00  0.00    +0.312 C 
ATOM     17  O   LIG    1       22.732 -20.959   6.474  0.00  0.00    -0.250 OA
BRANCH  16  18
ATOM     18  O   LIG    1       21.351 -21.517   4.792  0.00  0.00    -0.480 OA
ATOM     19  H   LIG    1       20.565 -21.180   5.266  0.00  0.00    +0.295 HD
ENDBRANCH  16  18
ENDBRANCH  15  16
ENDBRANCH   1  15
TORSDOF 4
ENDMDL
MODEL 7
REMARK VINA RESULT:      -5.6      3.409      6.584
REMARK  Name = *****
REMARK                            x       y       z     vdW  Elec       q    Type
REMARK                         _______ _______ _______ _____ _____    ______ ____
ROOT
ATOM      1  C   LIG    1       23.652 -18.620   4.095  0.00  0.00    -0.031 A 
ATOM      2  C   LIG    1       24.834 -18.010   3.656  0.00  0.00    +0.043 A 
ATOM      3  C   LIG    1       24.945 -16.615   3.586  0.00  0.00    +0.131 A 
ATOM      4  F   LIG    1       26.121 -16.119   3.169  0.00  0.00    -0.205 F 
ATOM      5  C   LIG    1       23.889 -15.758   3.937  0.00  0.00    +0.017 A 
ATOM      6  C   LIG    1       22.712 -16.387   4.390  0.00  0.00    +0.012 A 
ATOM      7  C   LIG    1       22.594 -17.786   4.471  0.00  0.00    +0.005 A 
ENDROOT
BRANCH   5   8
ATOM      8  C   LIG    1       23.985 -14.278   3.829  0.00  0.00    -0.015 A 
ATOM      9  C   LIG    1       24.117 -13.631   2.585  0.00  0.00    +0.008 A 
ATOM     10  C   LIG    1       24.198 -12.236   2.483  0.00  0.00    +0.001 A 
ATOM     11  C   LIG    1       24.134 -11.447   3.625  0.00  0.00    +0.000 A 
ATOM     12  C   LIG    1       23.998 -12.054   4.869  0.00  0.00    +0.001 A 
ATOM     13  C   LIG    1       23.930 -13.449   4.968  0.00  0.00    +0.008 A 
ENDBRANCH   5   8
BRANCH   1  15
ATOM     14  C   LIG    1       24.916 -20.832   4.146  0.00  0.00    +0.024 C 
ATOM     15  C   LIG    1       23.547 -20.141   4.120  0.00  0.00    +0.124 C 
BRANCH  15  16
ATOM     16  C   LIG    1       22.679 -20.667   5.260  0.00  0.00    +0.312 C 
ATOM     17  O   LIG    1       22.938 -20.531   6.451  0.00  0.00    -0.250 OA
BRANCH  16  18
ATOM     18  O   LIG    1       21.601 -21.377   4.856  0.00  0.00    -0.480 OA
ATOM     19  H   LIG    1       21.404 -21.298   3.903  0.00  0.00    +0.295 HD
ENDBRANCH  16  18
ENDBRANCH  15  16
ENDBRANCH   1  15
TORSDOF 4
ENDMDL
MODEL 8
REMARK VINA RESULT:      -5.2      3.625      6.890
REMARK  Name = *****
REMARK                            x       y       z     vdW  Elec       q    Type
REMARK                         _______ _______ _______ _____ _____    ______ ____
ROOT
ATOM      1  C   LIG    1       24.116 -19.142   3.979  0.00  0.00    -0.031 A 
ATOM      2  C   LIG    1       23.418 -17.950   4.212  0.00  0.00    +0.043 A 
ATOM      3  C   LIG    1       24.022 -16.704   3.993  0.00  0.00    +0.131 A 
ATOM      4  F   LIG    1       23.270 -15.616   4.227  0.00  0.00    -0.205 F 
ATOM      5  C   LIG    1       25.346 -16.578   3.545  0.00  0.00    +0.017 A 
ATOM      6  C   LIG    1       26.030 -17.786   3.301  0.00  0.00    +0.012 A 
ATOM      7  C   LIG    1       25.431 -19.042   3.511  0.00  0.00    +0.005 A 
ENDROOT
BRANCH   5   8
ATOM      8  C   LIG    1       26.006 -15.261   3.346  0.00  0.00    -0.015 A 
ATOM      9  C   LIG    1       25.330 -14.173   2.759  0.00  0.00    +0.008 A 
ATOM     10  C   LIG    1       25.949 -12.929   2.581  0.00  0.00    +0.001 A 
ATOM     11  C   LIG    1       27.260 -12.734   2.998  0.00  0.00    +0.000 A 
ATOM     12  C   LIG    1       27.954 -13.786   3.587  0.00  0.00    +0.001 A 
ATOM     13  C   LIG    1       27.336 -15.031   3.752  0.00  0.00    +0.008 A 
ENDBRANCH   5   8
BRANCH   1  15
ATOM     14  C   LIG    1       23.839 -21.571   3.262  0.00  0.00    +0.024 C 
ATOM     15  C   LIG    1       23.448 -20.481   4.268  0.00  0.00    +0.124 C 
BRANCH  15  16
ATOM     16  C   LIG    1       23.685 -20.979   5.692  0.00  0.00    +0.312 C 
ATOM     17  O   LIG    1       22.832 -20.996   6.573  0.00  0.00    -0.250 OA
BRANCH  16  18
ATOM     18  O   LIG    1       24.961 -21.349   5.946  0.00  0.00    -0.480 OA
ATOM     19  H   LIG    1       25.570 -21.227   5.193  0.00  0.00    +0.295 HD
ENDBRANCH  16  18
ENDBRANCH  15  16
ENDBRANCH   1  15
TORSDOF 4
ENDMDL
MODEL 9
REMARK VINA RESULT:      -4.0      3.516      6.607
REMARK  Name = *****
REMARK                            x       y       z     vdW  Elec       q    Type
REMARK                         _______ _______ _______ _____ _____    ______ ____
ROOT
ATOM      1  C   LIG    1       22.824 -17.594   4.271  0.00  0.00    -0.031 A 
ATOM      2  C   LIG    1       22.642 -16.241   4.587  0.00  0.00    +0.043 A 
ATOM      3  C   LIG    1       23.682 -15.316   4.432  0.00  0.00    +0.131 A 
ATOM      4  F   LIG    1       23.410 -14.038   4.744  0.00  0.00    -0.205 F 
ATOM      5  C   LIG    1       24.954 -15.685   3.967  0.00  0.00    +0.017 A 
ATOM      6  C   LIG    1       25.118 -17.046   3.640  0.00  0.00    +0.012 A 
ATOM      7  C   LIG    1       24.077 -17.982   3.785  0.00  0.00    +0.005 A 
ENDROOT
BRANCH   5   8
ATOM      8  C   LIG    1       26.075 -14.717   3.835  0.00  0.00    -0.015 A 
ATOM      9  C   LIG    1       26.621 -14.381   2.582  0.00  0.00    +0.008 A 
ATOM     10  C   LIG    1       27.671 -13.461   2.456  0.00  0.00    +0.001 A 
ATOM     11  C   LIG    1       28.195 -12.840   3.584  0.00  0.00    +0.000 A 
ATOM     12  C   LIG    1       27.673 -13.145   4.837  0.00  0.00    +0.001 A 
ATOM     13  C   LIG    1       26.633 -14.074   4.959  0.00  0.00    +0.008 A 
ENDBRANCH   5   8
BRANCH   1  15
ATOM     14  C   LIG    1       20.800 -18.759   3.252  0.00  0.00    +0.024 C 
ATOM     15  C   LIG    1       21.687 -18.584   4.491  0.00  0.00    +0.124 C 
BRANCH  15  16
ATOM     16  C   LIG    1       22.163 -19.949   4.985  0.00  0.00    +0.312 C 
ATOM     17  O   LIG    1       21.884 -21.017   4.449  0.00  0.00    -0.250 OA
BRANCH  16  18
ATOM     18  O   LIG    1       22.881 -19.907   6.130  0.00  0.00    -0.480 OA
ATOM     19  H   LIG    1       23.840 -19.778   5.996  0.00  0.00    +0.295 HD
ENDBRANCH  16  18
ENDBRANCH  15  16
ENDBRANCH   1  15
TORSDOF 4
ENDMDL
