MODEL 1
REMARK VINA RESULT:      -7.6      0.000      0.000
REMARK  Name = *****
REMARK                            x       y       z     vdW  Elec       q    Type
REMARK                         _______ _______ _______ _____ _____    ______ ____
ROOT
ATOM      1  C   LIG    1       27.872 -20.315   7.694  0.00  0.00    +0.181 C 
ATOM      2  O   LIG    1       26.766 -20.845   8.446  0.00  0.00    -0.340 OA
ATOM      3  C   LIG    1       25.880 -21.437   7.480  0.00  0.00    +0.171 C 
ATOM      4  C   LIG    1       24.505 -20.764   7.596  0.00  0.00    +0.065 C 
ATOM      5  C   LIG    1       23.472 -21.418   6.681  0.00  0.00    +0.005 C 
ATOM      6  C   LIG    1       23.372 -22.920   6.933  0.00  0.00    +0.000 C 
ATOM      7  C   LIG    1       24.732 -23.606   6.836  0.00  0.00    +0.005 C 
ATOM      8  C   LIG    1       25.764 -22.941   7.745  0.00  0.00    +0.065 C 
ATOM      9  O   LIG    1       26.412 -21.222   6.161  0.00  0.00    -0.346 OA
ATOM     10  C   LIG    1       27.302 -20.118   6.310  0.00  0.00    +0.198 C 
ENDROOT
BRANCH   1  11
ATOM     11  C   LIG    1       29.046 -21.308   7.693  0.00  0.00    +0.229 C 
BRANCH  11  12
ATOM     12  N   LIG    1       30.310 -20.580   7.704  0.00  0.00    -0.274 N 
ATOM     13  H   LIG    1       30.167 -19.574   7.611  0.00  0.00    +0.258 HD
BRANCH  12  16
ATOM     14  N   LIG    1       31.845 -19.841   9.221  0.00  0.00    -0.130 NA
ATOM     15  H   LIG    1       32.569 -20.197   9.844  0.00  0.00    +0.306 HD
ATOM     16  C   LIG    1       31.307 -20.812   8.582  0.00  0.00    +0.376 C 
BRANCH  16  17
ATOM     17  N   LIG    1       31.692 -22.095   8.717  0.00  0.00    -0.289 N 
ATOM     18  H   LIG    1       30.910 -22.733   8.796  0.00  0.00    +0.255 HD
ATOM     19  H   LIG    1       32.354 -22.415   8.023  0.00  0.00    +0.255 HD
ENDBRANCH  16  17
ENDBRANCH  12  16
ENDBRANCH  11  12
ENDBRANCH   1  11
TORSDOF 4
ENDMDL
MODEL 2
REMARK VINA RESULT:      -7.4      1.275      1.571
REMARK  Name = *****
REMARK                            x       y       z     vdW  Elec       q    Type
REMARK                         _______ _______ _______ _____ _____    ______ ____
ROOT
ATOM      1  C   LIG    1       27.237 -20.705   7.808  0.00  0.00    +0.181 C 
ATOM      2  O   LIG    1       26.341 -21.619   8.465  0.00  0.00    -0.340 OA
ATOM      3  C   LIG    1       25.556 -22.220   7.420  0.00  0.00    +0.171 C 
ATOM      4  C   LIG    1       24.073 -21.938   7.694  0.00  0.00    +0.065 C 
ATOM      5  C   LIG    1       23.163 -22.643   6.690  0.00  0.00    +0.005 C 
ATOM      6  C   LIG    1       23.437 -24.145   6.645  0.00  0.00    +0.000 C 
ATOM      7  C   LIG    1       24.911 -24.447   6.388  0.00  0.00    +0.005 C 
ATOM      8  C   LIG    1       25.816 -23.729   7.387  0.00  0.00    +0.065 C 
ATOM      9  O   LIG    1       25.932 -21.643   6.158  0.00  0.00    -0.346 OA
ATOM     10  C   LIG    1       26.544 -20.402   6.502  0.00  0.00    +0.198 C 
ENDROOT
BRANCH   1  11
ATOM     11  C   LIG    1       28.609 -21.364   7.589  0.00  0.00    +0.229 C 
BRANCH  11  12
ATOM     12  N   LIG    1       29.344 -20.645   6.554  0.00  0.00    -0.274 N 
ATOM     13  H   LIG    1       28.734 -20.363   5.786  0.00  0.00    +0.258 HD
BRANCH  12  16
ATOM     14  N   LIG    1       30.043 -18.484   6.338  0.00  0.00    -0.130 NA
ATOM     15  H   LIG    1       30.804 -17.871   6.631  0.00  0.00    +0.306 HD
ATOM     16  C   LIG    1       30.233 -19.662   6.803  0.00  0.00    +0.376 C 
BRANCH  16  17
ATOM     17  N   LIG    1       31.308 -20.008   7.537  0.00  0.00    -0.289 N 
ATOM     18  H   LIG    1       31.769 -20.839   7.191  0.00  0.00    +0.255 HD
ATOM     19  H   LIG    1       31.972 -19.262   7.694  0.00  0.00    +0.255 HD
ENDBRANCH  16  17
ENDBRANCH  12  16
ENDBRANCH  11  12
ENDBRANCH   1  11
TORSDOF 4
ENDMDL
MODEL 3
REMARK VINA RESULT:      -7.3      4.111      5.289
REMARK  Name = *****
REMARK                            x       y       z     vdW  Elec       q    Type
REMARK                         _______ _______ _______ _____ _____    ______ ____
ROOT
ATOM      1  C   LIG    1       24.398 -22.920   7.084  0.00  0.00    +0.181 C 
ATOM      2  O   LIG    1       23.733 -22.683   5.831  0.00  0.00    -0.340 OA
ATOM      3  C   LIG    1       23.884 -21.279   5.563  0.00  0.00    +0.171 C 
ATOM      4  C   LIG    1       22.491 -20.651   5.422  0.00  0.00    +0.065 C 
ATOM      5  C   LIG    1       22.566 -19.179   5.021  0.00  0.00    +0.005 C 
ATOM      6  C   LIG    1       23.386 -18.988   3.747  0.00  0.00    +0.000 C 
ATOM      7  C   LIG    1       24.771 -19.618   3.862  0.00  0.00    +0.005 C 
ATOM      8  C   LIG    1       24.690 -21.086   4.275  0.00  0.00    +0.065 C 
ATOM      9  O   LIG    1       24.582 -20.664   6.660  0.00  0.00    -0.346 OA
ATOM     10  C   LIG    1       24.399 -21.565   7.750  0.00  0.00    +0.198 C 
ENDROOT
BRANCH   1  11
ATOM     11  C   LIG    1       25.825 -23.441   6.845  0.00  0.00    +0.229 C 
BRANCH  11  12
ATOM     12  N   LIG    1       25.820 -24.899   6.811  0.00  0.00    -0.274 N 
ATOM     13  H   LIG    1       25.109 -25.288   7.431  0.00  0.00    +0.258 HD
BRANCH  12  16
ATOM     14  N   LIG    1       26.707 -26.595   5.570  0.00  0.00    -0.130 NA
ATOM     15  H   LIG    1       26.604 -27.039   4.657  0.00  0.00    +0.306 HD
ATOM     16  C   LIG    1       25.875 -25.628   5.678  0.00  0.00    +0.376 C 
BRANCH  16  17
ATOM     17  N   LIG    1       25.029 -25.261   4.696  0.00  0.00    -0.289 N 
ATOM     18  H   LIG    1       25.037 -24.264   4.524  0.00  0.00    +0.255 HD
ATOM     19  H   LIG    1       25.129 -25.780   3.834  0.00  0.00    +0.255 HD
ENDBRANCH  16  17
ENDBRANCH  12  16
ENDBRANCH  11  12
ENDBRANCH   1  11
TORSDOF 4
ENDMDL
MODEL 4
REMARK VINA RESULT:      -7.2      2.361      3.709
REMARK  Name = *****
REMARK                            x       y       z     vdW  Elec       q    Type
REMARK                         _______ _______ _______ _____ _____    ______ ____
ROOT
ATOM      1  C   LIG    1       24.878 -22.662   7.207  0.00  0.00    +0.181 C 
ATOM      2  O   LIG    1       24.198 -22.569   5.943  0.00  0.00    -0.340 OA
ATOM      3  C   LIG    1       24.136 -21.166   5.631  0.00  0.00    +0.171 C 
ATOM      4  C   LIG    1       22.665 -20.763   5.462  0.00  0.00    +0.065 C 
ATOM      5  C   LIG    1       22.519 -19.310   5.014  0.00  0.00    +0.005 C 
ATOM      6  C   LIG    1       23.313 -19.036   3.739  0.00  0.00    +0.000 C 
ATOM      7  C   LIG    1       24.777 -19.443   3.882  0.00  0.00    +0.005 C 
ATOM      8  C   LIG    1       24.916 -20.893   4.341  0.00  0.00    +0.065 C 
ATOM      9  O   LIG    1       24.721 -20.418   6.711  0.00  0.00    -0.346 OA
ATOM     10  C   LIG    1       24.666 -21.302   7.828  0.00  0.00    +0.198 C 
ENDROOT
BRANCH   1  11
ATOM     11  C   LIG    1       26.370 -22.967   6.992  0.00  0.00    +0.229 C 
BRANCH  11  12
ATOM     12  N   LIG    1       27.183 -21.943   7.640  0.00  0.00    -0.274 N 
ATOM     13  H   LIG    1       27.487 -22.236   8.569  0.00  0.00    +0.258 HD
BRANCH  12  16
ATOM     14  N   LIG    1       29.390 -21.400   7.442  0.00  0.00    -0.130 NA
ATOM     15  H   LIG    1       30.012 -20.837   6.863  0.00  0.00    +0.306 HD
ATOM     16  C   LIG    1       28.184 -21.276   7.030  0.00  0.00    +0.376 C 
BRANCH  16  17
ATOM     17  N   LIG    1       27.827 -20.483   6.002  0.00  0.00    -0.289 N 
ATOM     18  H   LIG    1       26.840 -20.540   5.785  0.00  0.00    +0.255 HD
ATOM     19  H   LIG    1       28.127 -19.521   6.084  0.00  0.00    +0.255 HD
ENDBRANCH  16  17
ENDBRANCH  12  16
ENDBRANCH  11  12
ENDBRANCH   1  11
TORSDOF 4
ENDMDL
MODEL 5
REMARK VINA RESULT:      -7.0      1.356      2.024
REMARK  Name = *****
REMARK                            x       y       z     vdW  Elec       q    Type
REMARK                         _______ _______ _______ _____ _____    ______ ____
ROOT
ATOM      1  C   LIG    1       27.560 -21.462   7.842  0.00  0.00    +0.181 C 
ATOM      2  O   LIG    1       26.728 -22.198   6.929  0.00  0.00    -0.340 OA
ATOM      3  C   LIG    1       25.513 -21.438   6.803  0.00  0.00    +0.171 C 
ATOM      4  C   LIG    1       24.332 -22.323   7.223  0.00  0.00    +0.065 C 
ATOM      5  C   LIG    1       22.991 -21.624   7.007  0.00  0.00    +0.005 C 
ATOM      6  C   LIG    1       22.835 -21.148   5.565  0.00  0.00    +0.000 C 
ATOM      7  C   LIG    1       24.007 -20.277   5.123  0.00  0.00    +0.005 C 
ATOM      8  C   LIG    1       25.346 -20.976   5.352  0.00  0.00    +0.065 C 
ATOM      9  O   LIG    1       25.587 -20.289   7.665  0.00  0.00    -0.346 OA
ATOM     10  C   LIG    1       26.578 -20.631   8.631  0.00  0.00    +0.198 C 
ENDROOT
BRANCH   1  11
ATOM     11  C   LIG    1       28.562 -20.587   7.069  0.00  0.00    +0.229 C 
BRANCH  11  12
ATOM     12  N   LIG    1       29.925 -20.971   7.415  0.00  0.00    -0.274 N 
ATOM     13  H   LIG    1       30.405 -21.408   6.627  0.00  0.00    +0.258 HD
BRANCH  12  16
ATOM     14  N   LIG    1       30.783 -20.146   9.361  0.00  0.00    -0.130 NA
ATOM     15  H   LIG    1       31.502 -19.503   9.693  0.00  0.00    +0.306 HD
ATOM     16  C   LIG    1       30.788 -20.177   8.081  0.00  0.00    +0.376 C 
BRANCH  16  17
ATOM     17  N   LIG    1       31.613 -19.431   7.322  0.00  0.00    -0.289 N 
ATOM     18  H   LIG    1       31.873 -18.559   7.765  0.00  0.00    +0.255 HD
ATOM     19  H   LIG    1       32.427 -19.919   6.974  0.00  0.00    +0.255 HD
ENDBRANCH  16  17
ENDBRANCH  12  16
ENDBRANCH  11  12
ENDBRANCH   1  11
TORSDOF 4
ENDMDL
MODEL 6
REMARK VINA RESULT:      -6.8      2.397      3.600
REMARK  Name = *****
REMARK                            x       y       z     vdW  Elec       q    Type
REMARK                         _______ _______ _______ _____ _____    ______ ____
ROOT
ATOM      1  C   LIG    1       24.552 -21.101   6.804  0.00  0.00    +0.181 C 
ATOM      2  O   LIG    1       24.345 -22.290   7.585  0.00  0.00    -0.340 OA
ATOM      3  C   LIG    1       24.673 -23.392   6.720  0.00  0.00    +0.171 C 
ATOM      4  C   LIG    1       23.446 -24.307   6.603  0.00  0.00    +0.065 C 
ATOM      5  C   LIG    1       23.749 -25.566   5.792  0.00  0.00    +0.005 C 
ATOM      6  C   LIG    1       24.948 -26.322   6.361  0.00  0.00    +0.000 C 
ATOM      7  C   LIG    1       26.174 -25.425   6.498  0.00  0.00    +0.005 C 
ATOM      8  C   LIG    1       25.862 -24.163   7.300  0.00  0.00    +0.065 C 
ATOM      9  O   LIG    1       25.020 -22.882   5.421  0.00  0.00    -0.346 OA
ATOM     10  C   LIG    1       24.433 -21.584   5.379  0.00  0.00    +0.198 C 
ENDROOT
BRANCH   1  11
ATOM     11  C   LIG    1       25.940 -20.503   7.092  0.00  0.00    +0.229 C 
BRANCH  11  12
ATOM     12  N   LIG    1       26.722 -20.453   5.862  0.00  0.00    -0.274 N 
ATOM     13  H   LIG    1       26.239 -19.935   5.128  0.00  0.00    +0.258 HD
BRANCH  12  16
ATOM     14  N   LIG    1       28.888 -20.944   6.383  0.00  0.00    -0.130 NA
ATOM     15  H   LIG    1       29.832 -20.584   6.241  0.00  0.00    +0.306 HD
ATOM     16  C   LIG    1       28.040 -20.170   5.816  0.00  0.00    +0.376 C 
BRANCH  16  17
ATOM     17  N   LIG    1       28.381 -19.040   5.168  0.00  0.00    -0.289 N 
ATOM     18  H   LIG    1       28.516 -18.255   5.792  0.00  0.00    +0.255 HD
ATOM     19  H   LIG    1       29.160 -19.135   4.530  0.00  0.00    +0.255 HD
ENDBRANCH  16  17
ENDBRANCH  12  16
ENDBRANCH  11  12
ENDBRANCH   1  11
TORSDOF 4
ENDMDL
MODEL 7
REMARK VINA RESULT:      -6.8      5.037      6.618
REMARK  Name = *****
REMARK                            x       y       z     vdW  Elec       q    Type
REMARK                         _______ _______ _______ _____ _____    ______ ____
ROOT
ATOM      1  C   LIG    1       24.415 -25.222   5.595  0.00  0.00    +0.181 C 
ATOM      2  O   LIG    1       25.314 -24.127   5.343  0.00  0.00    -0.340 OA
ATOM      3  C   LIG    1       25.084 -23.178   6.398  0.00  0.00    +0.171 C 
ATOM      4  C   LIG    1       24.670 -21.838   5.774  0.00  0.00    +0.065 C 
ATOM      5  C   LIG    1       24.519 -20.741   6.827  0.00  0.00    +0.005 C 
ATOM      6  C   LIG    1       25.788 -20.589   7.661  0.00  0.00    +0.000 C 
ATOM      7  C   LIG    1       26.225 -21.914   8.280  0.00  0.00    +0.005 C 
ATOM      8  C   LIG    1       26.363 -23.010   7.224  0.00  0.00    +0.065 C 
ATOM      9  O   LIG    1       24.028 -23.663   7.245  0.00  0.00    -0.346 OA
ATOM     10  C   LIG    1       23.325 -24.604   6.436  0.00  0.00    +0.198 C 
ENDROOT
BRANCH   1  11
ATOM     11  C   LIG    1       25.143 -26.353   6.341  0.00  0.00    +0.229 C 
BRANCH  11  12
ATOM     12  N   LIG    1       24.268 -27.514   6.455  0.00  0.00    -0.274 N 
ATOM     13  H   LIG    1       23.283 -27.249   6.416  0.00  0.00    +0.258 HD
BRANCH  12  16
ATOM     14  N   LIG    1       23.444 -29.384   5.442  0.00  0.00    -0.130 NA
ATOM     15  H   LIG    1       23.764 -30.207   4.931  0.00  0.00    +0.306 HD
ATOM     16  C   LIG    1       24.449 -28.666   5.778  0.00  0.00    +0.376 C 
BRANCH  16  17
ATOM     17  N   LIG    1       25.726 -28.999   5.508  0.00  0.00    -0.289 N 
ATOM     18  H   LIG    1       26.217 -29.361   6.315  0.00  0.00    +0.255 HD
ATOM     19  H   LIG    1       25.846 -29.606   4.708  0.00  0.00    +0.255 HD
ENDBRANCH  16  17
ENDBRANCH  12  16
ENDBRANCH  11  12
ENDBRANCH   1  11
TORSDOF 4
ENDMDL
MODEL 8
REMARK VINA RESULT:      -6.5      5.326      6.708
REMARK  Name = *****
REMARK                            x       y       z     vdW  Elec       q    Type
REMARK                         _______ _______ _______ _____ _____    ______ ____
ROOT
ATOM      1  C   LIG    1       25.477 -25.648   6.315  0.00  0.00    +0.181 C 
ATOM      2  O   LIG    1       25.385 -24.504   7.180  0.00  0.00    -0.340 OA
ATOM      3  C   LIG    1       24.780 -23.462   6.394  0.00  0.00    +0.171 C 
ATOM      4  C   LIG    1       25.734 -22.261   6.352  0.00  0.00    +0.065 C 
ATOM      5  C   LIG    1       25.114 -21.065   5.631  0.00  0.00    +0.005 C 
ATOM      6  C   LIG    1       23.770 -20.679   6.243  0.00  0.00    +0.000 C 
ATOM      7  C   LIG    1       22.811 -21.865   6.307  0.00  0.00    +0.005 C 
ATOM      8  C   LIG    1       23.441 -23.060   7.019  0.00  0.00    +0.065 C 
ATOM      9  O   LIG    1       24.559 -23.950   5.060  0.00  0.00    -0.346 OA
ATOM     10  C   LIG    1       25.455 -25.051   4.928  0.00  0.00    +0.198 C 
ENDROOT
BRANCH   1  11
ATOM     11  C   LIG    1       24.288 -26.596   6.549  0.00  0.00    +0.229 C 
BRANCH  11  12
ATOM     12  N   LIG    1       24.148 -27.504   5.416  0.00  0.00    -0.274 N 
ATOM     13  H   LIG    1       24.614 -27.143   4.583  0.00  0.00    +0.258 HD
BRANCH  12  16
ATOM     14  N   LIG    1       23.330 -29.632   5.507  0.00  0.00    -0.130 NA
ATOM     15  H   LIG    1       23.654 -30.598   5.555  0.00  0.00    +0.306 HD
ATOM     16  C   LIG    1       24.335 -28.838   5.490  0.00  0.00    +0.376 C 
BRANCH  16  17
ATOM     17  N   LIG    1       25.613 -29.254   5.563  0.00  0.00    -0.289 N 
ATOM     18  H   LIG    1       26.148 -29.028   4.733  0.00  0.00    +0.255 HD
ATOM     19  H   LIG    1       26.105 -28.973   6.400  0.00  0.00    +0.255 HD
ENDBRANCH  16  17
ENDBRANCH  12  16
ENDBRANCH  11  12
ENDBRANCH   1  11
TORSDOF 4
ENDMDL
MODEL 9
REMARK VINA RESULT:      -6.4      3.555      6.581
REMARK  Name = *****
REMARK                            x       y       z     vdW  Elec       q    Type
REMARK                         _______ _______ _______ _____ _____    ______ ____
ROOT
ATOM      1  C   LIG    1       30.424 -20.038   7.296  0.00  0.00    +0.181 C 
ATOM      2  O   LIG    1       31.335 -19.818   8.387  0.00  0.00    -0.340 OA
ATOM      3  C   LIG    1       31.059 -18.492   8.870  0.00  0.00    +0.171 C 
ATOM      4  C   LIG    1       32.342 -17.656   8.776  0.00  0.00    +0.065 C 
ATOM      5  C   LIG    1       32.162 -16.264   9.379  0.00  0.00    +0.005 C 
ATOM      6  C   LIG    1       31.659 -16.340  10.819  0.00  0.00    +0.000 C 
ATOM      7  C   LIG    1       30.390 -17.179  10.936  0.00  0.00    +0.005 C 
ATOM      8  C   LIG    1       30.573 -18.565  10.320  0.00  0.00    +0.065 C 
ATOM      9  O   LIG    1       30.035 -17.898   8.052  0.00  0.00    -0.346 OA
ATOM     10  C   LIG    1       30.071 -18.644   6.838  0.00  0.00    +0.198 C 
ENDROOT
BRANCH   1  11
ATOM     11  C   LIG    1       29.186 -20.813   7.778  0.00  0.00    +0.229 C 
BRANCH  11  12
ATOM     12  N   LIG    1       27.975 -20.169   7.283  0.00  0.00    -0.274 N 
ATOM     13  H   LIG    1       27.955 -20.135   6.264  0.00  0.00    +0.258 HD
BRANCH  12  16
ATOM     14  N   LIG    1       26.529 -20.558   9.004  0.00  0.00    -0.130 NA
ATOM     15  H   LIG    1       25.541 -20.744   9.174  0.00  0.00    +0.306 HD
ATOM     16  C   LIG    1       26.736 -20.433   7.747  0.00  0.00    +0.376 C 
BRANCH  16  17
ATOM     17  N   LIG    1       25.772 -20.569   6.817  0.00  0.00    -0.289 N 
ATOM     18  H   LIG    1       24.867 -20.252   7.140  0.00  0.00    +0.255 HD
ATOM     19  H   LIG    1       25.995 -20.173   5.913  0.00  0.00    +0.255 HD
ENDBRANCH  16  17
ENDBRANCH  12  16
ENDBRANCH  11  12
ENDBRANCH   1  11
TORSDOF 4
ENDMDL
