MODEL 1
REMARK VINA RESULT:      -7.7      0.000      0.000
REMARK  Name = *****
REMARK                            x       y       z     vdW  Elec       q    Type
REMARK                         _______ _______ _______ _____ _____    ______ ____
ROOT
ATOM      1  C   LIG    1       25.717 -25.234   6.885  0.00  0.00    +0.065 C 
ATOM      2  C   LIG    1       25.560 -23.750   6.909  0.00  0.00    +0.038 C 
ATOM      3  N   LIG    1       24.485 -23.112   6.279  0.00  0.00    -0.284 N 
ATOM      4  C   LIG    1       23.124 -23.561   6.622  0.00  0.00    +0.171 C 
ATOM      5  N   LIG    1       24.701 -21.716   6.488  0.00  0.00    -0.217 N 
ATOM      6  C   LIG    1       25.845 -21.546   7.279  0.00  0.00    +0.272 C 
ATOM      7  O   LIG    1       26.407 -20.538   7.674  0.00  0.00    -0.266 OA
ATOM      8  C   LIG    1       26.387 -22.898   7.528  0.00  0.00    +0.094 C 
ENDROOT
BRANCH   5   9
ATOM      9  C   LIG    1       24.136 -20.735   5.632  0.00  0.00    +0.067 A 
ATOM     10  C   LIG    1       22.903 -20.133   5.926  0.00  0.00    +0.028 A 
ATOM     11  C   LIG    1       22.349 -19.168   5.079  0.00  0.00    +0.002 A 
ATOM     12  C   LIG    1       23.020 -18.790   3.920  0.00  0.00    +0.000 A 
ATOM     13  C   LIG    1       24.239 -19.382   3.606  0.00  0.00    +0.002 A 
ATOM     14  C   LIG    1       24.791 -20.348   4.454  0.00  0.00    +0.028 A 
ENDBRANCH   5   9
TORSDOF 1
ENDMDL
MODEL 2
REMARK VINA RESULT:      -7.1      1.334      4.815
REMARK  Name = *****
REMARK                            x       y       z     vdW  Elec       q    Type
REMARK                         _______ _______ _______ _____ _____    ______ ____
ROOT
ATOM      1  C   LIG    1       22.442 -19.566   5.312  0.00  0.00    +0.065 C 
ATOM      2  C   LIG    1       23.301 -20.540   6.045  0.00  0.00    +0.038 C 
ATOM      3  N   LIG    1       23.786 -21.703   5.433  0.00  0.00    -0.284 N 
ATOM      4  C   LIG    1       24.520 -21.554   4.165  0.00  0.00    +0.171 C 
ATOM      5  N   LIG    1       24.523 -22.384   6.449  0.00  0.00    -0.217 N 
ATOM      6  C   LIG    1       24.522 -21.604   7.613  0.00  0.00    +0.272 C 
ATOM      7  O   LIG    1       24.998 -21.807   8.718  0.00  0.00    -0.266 OA
ATOM      8  C   LIG    1       23.704 -20.409   7.316  0.00  0.00    +0.094 C 
ENDROOT
BRANCH   5   9
ATOM      9  C   LIG    1       24.757 -23.782   6.393  0.00  0.00    +0.067 A 
ATOM     10  C   LIG    1       23.701 -24.692   6.226  0.00  0.00    +0.028 A 
ATOM     11  C   LIG    1       23.936 -26.070   6.172  0.00  0.00    +0.002 A 
ATOM     12  C   LIG    1       25.232 -26.561   6.286  0.00  0.00    +0.000 A 
ATOM     13  C   LIG    1       26.292 -25.676   6.461  0.00  0.00    +0.002 A 
ATOM     14  C   LIG    1       26.055 -24.299   6.517  0.00  0.00    +0.028 A 
ENDBRANCH   5   9
TORSDOF 1
ENDMDL
MODEL 3
REMARK VINA RESULT:      -7.1      2.264      4.235
REMARK  Name = *****
REMARK                            x       y       z     vdW  Elec       q    Type
REMARK                         _______ _______ _______ _____ _____    ______ ____
ROOT
ATOM      1  C   LIG    1       29.133 -19.696   7.273  0.00  0.00    +0.065 C 
ATOM      2  C   LIG    1       27.851 -20.109   6.633  0.00  0.00    +0.038 C 
ATOM      3  N   LIG    1       26.923 -20.920   7.298  0.00  0.00    -0.284 N 
ATOM      4  C   LIG    1       26.465 -20.488   8.631  0.00  0.00    +0.171 C 
ATOM      5  N   LIG    1       25.862 -21.123   6.363  0.00  0.00    -0.217 N 
ATOM      6  C   LIG    1       26.136 -20.393   5.199  0.00  0.00    +0.272 C 
ATOM      7  O   LIG    1       25.526 -20.299   4.147  0.00  0.00    -0.266 OA
ATOM      8  C   LIG    1       27.450 -19.750   5.407  0.00  0.00    +0.094 C 
ENDROOT
BRANCH   5   9
ATOM      9  C   LIG    1       24.991 -22.239   6.452  0.00  0.00    +0.067 A 
ATOM     10  C   LIG    1       23.613 -22.074   6.669  0.00  0.00    +0.028 A 
ATOM     11  C   LIG    1       22.758 -23.177   6.757  0.00  0.00    +0.002 A 
ATOM     12  C   LIG    1       23.268 -24.466   6.631  0.00  0.00    +0.000 A 
ATOM     13  C   LIG    1       24.631 -24.651   6.425  0.00  0.00    +0.002 A 
ATOM     14  C   LIG    1       25.485 -23.547   6.339  0.00  0.00    +0.028 A 
ENDBRANCH   5   9
TORSDOF 1
ENDMDL
MODEL 4
REMARK VINA RESULT:      -6.8      1.728      2.894
REMARK  Name = *****
REMARK                            x       y       z     vdW  Elec       q    Type
REMARK                         _______ _______ _______ _____ _____    ______ ____
ROOT
ATOM      1  C   LIG    1       28.296 -21.455   8.281  0.00  0.00    +0.065 C 
ATOM      2  C   LIG    1       27.146 -21.664   7.354  0.00  0.00    +0.038 C 
ATOM      3  N   LIG    1       26.686 -20.646   6.509  0.00  0.00    -0.284 N 
ATOM      4  C   LIG    1       27.667 -19.993   5.625  0.00  0.00    +0.171 C 
ATOM      5  N   LIG    1       25.570 -21.208   5.817  0.00  0.00    -0.217 N 
ATOM      6  C   LIG    1       25.422 -22.546   6.203  0.00  0.00    +0.272 C 
ATOM      7  O   LIG    1       24.596 -23.387   5.889  0.00  0.00    -0.266 OA
ATOM      8  C   LIG    1       26.464 -22.808   7.218  0.00  0.00    +0.094 C 
ENDROOT
BRANCH   5   9
ATOM      9  C   LIG    1       24.555 -20.394   5.251  0.00  0.00    +0.067 A 
ATOM     10  C   LIG    1       24.752 -19.720   4.036  0.00  0.00    +0.028 A 
ATOM     11  C   LIG    1       23.748 -18.919   3.482  0.00  0.00    +0.002 A 
ATOM     12  C   LIG    1       22.530 -18.776   4.139  0.00  0.00    +0.000 A 
ATOM     13  C   LIG    1       22.318 -19.428   5.349  0.00  0.00    +0.002 A 
ATOM     14  C   LIG    1       23.324 -20.228   5.902  0.00  0.00    +0.028 A 
ENDBRANCH   5   9
TORSDOF 1
ENDMDL
MODEL 5
REMARK VINA RESULT:      -6.7      5.757      7.454
REMARK  Name = *****
REMARK                            x       y       z     vdW  Elec       q    Type
REMARK                         _______ _______ _______ _____ _____    ______ ____
ROOT
ATOM      1  C   LIG    1       27.553 -21.918   7.264  0.00  0.00    +0.065 C 
ATOM      2  C   LIG    1       28.459 -20.738   7.155  0.00  0.00    +0.038 C 
ATOM      3  N   LIG    1       29.354 -20.399   8.177  0.00  0.00    -0.284 N 
ATOM      4  C   LIG    1       30.280 -21.442   8.652  0.00  0.00    +0.171 C 
ATOM      5  N   LIG    1       30.007 -19.211   7.726  0.00  0.00    -0.217 N 
ATOM      6  C   LIG    1       29.548 -18.900   6.440  0.00  0.00    +0.272 C 
ATOM      7  O   LIG    1       29.810 -17.969   5.695  0.00  0.00    -0.266 OA
ATOM      8  C   LIG    1       28.528 -19.914   6.101  0.00  0.00    +0.094 C 
ENDROOT
BRANCH   5   9
ATOM      9  C   LIG    1       30.608 -18.299   8.631  0.00  0.00    +0.067 A 
ATOM     10  C   LIG    1       31.910 -17.815   8.423  0.00  0.00    +0.028 A 
ATOM     11  C   LIG    1       32.499 -16.916   9.319  0.00  0.00    +0.002 A 
ATOM     12  C   LIG    1       31.795 -16.488  10.440  0.00  0.00    +0.000 A 
ATOM     13  C   LIG    1       30.508 -16.963  10.669  0.00  0.00    +0.002 A 
ATOM     14  C   LIG    1       29.921 -17.863   9.773  0.00  0.00    +0.028 A 
ENDBRANCH   5   9
TORSDOF 1
ENDMDL
MODEL 6
REMARK VINA RESULT:      -6.6      3.156      5.320
REMARK  Name = *****
REMARK                            x       y       z     vdW  Elec       q    Type
REMARK                         _______ _______ _______ _____ _____    ______ ____
ROOT
ATOM      1  C   LIG    1       24.392 -21.982   5.275  0.00  0.00    +0.065 C 
ATOM      2  C   LIG    1       25.227 -21.378   6.353  0.00  0.00    +0.038 C 
ATOM      3  N   LIG    1       26.506 -20.869   6.096  0.00  0.00    -0.284 N 
ATOM      4  C   LIG    1       26.645 -19.874   5.019  0.00  0.00    +0.171 C 
ATOM      5  N   LIG    1       26.993 -20.419   7.362  0.00  0.00    -0.217 N 
ATOM      6  C   LIG    1       25.993 -20.604   8.325  0.00  0.00    +0.272 C 
ATOM      7  O   LIG    1       25.984 -20.389   9.527  0.00  0.00    -0.266 OA
ATOM      8  C   LIG    1       24.855 -21.243   7.632  0.00  0.00    +0.094 C 
ENDROOT
BRANCH   5   9
ATOM      9  C   LIG    1       28.381 -20.291   7.626  0.00  0.00    +0.067 A 
ATOM     10  C   LIG    1       29.053 -19.074   7.429  0.00  0.00    +0.028 A 
ATOM     11  C   LIG    1       30.421 -18.953   7.690  0.00  0.00    +0.002 A 
ATOM     12  C   LIG    1       31.143 -20.049   8.152  0.00  0.00    +0.000 A 
ATOM     13  C   LIG    1       30.498 -21.267   8.345  0.00  0.00    +0.002 A 
ATOM     14  C   LIG    1       29.129 -21.386   8.081  0.00  0.00    +0.028 A 
ENDBRANCH   5   9
TORSDOF 1
ENDMDL
MODEL 7
REMARK VINA RESULT:      -6.5      2.256      4.117
REMARK  Name = *****
REMARK                            x       y       z     vdW  Elec       q    Type
REMARK                         _______ _______ _______ _____ _____    ______ ____
ROOT
ATOM      1  C   LIG    1       22.535 -23.321   6.856  0.00  0.00    +0.065 C 
ATOM      2  C   LIG    1       23.481 -22.303   6.315  0.00  0.00    +0.038 C 
ATOM      3  N   LIG    1       24.848 -22.334   6.615  0.00  0.00    -0.284 N 
ATOM      4  C   LIG    1       25.579 -23.586   6.357  0.00  0.00    +0.171 C 
ATOM      5  N   LIG    1       25.405 -21.196   5.955  0.00  0.00    -0.217 N 
ATOM      6  C   LIG    1       24.393 -20.550   5.231  0.00  0.00    +0.272 C 
ATOM      7  O   LIG    1       24.411 -19.536   4.553  0.00  0.00    -0.266 OA
ATOM      8  C   LIG    1       23.145 -21.296   5.498  0.00  0.00    +0.094 C 
ENDROOT
BRANCH   5   9
ATOM      9  C   LIG    1       26.620 -20.603   6.383  0.00  0.00    +0.067 A 
ATOM     10  C   LIG    1       27.528 -20.054   5.464  0.00  0.00    +0.028 A 
ATOM     11  C   LIG    1       28.726 -19.471   5.891  0.00  0.00    +0.002 A 
ATOM     12  C   LIG    1       29.036 -19.429   7.246  0.00  0.00    +0.000 A 
ATOM     13  C   LIG    1       28.154 -19.976   8.173  0.00  0.00    +0.002 A 
ATOM     14  C   LIG    1       26.957 -20.560   7.744  0.00  0.00    +0.028 A 
ENDBRANCH   5   9
TORSDOF 1
ENDMDL
MODEL 8
REMARK VINA RESULT:      -6.5      2.017      5.424
REMARK  Name = *****
REMARK                            x       y       z     vdW  Elec       q    Type
REMARK                         _______ _______ _______ _____ _____    ______ ____
ROOT
ATOM      1  C   LIG    1       24.181 -19.844   5.108  0.00  0.00    +0.065 C 
ATOM      2  C   LIG    1       23.981 -21.228   5.626  0.00  0.00    +0.038 C 
ATOM      3  N   LIG    1       25.037 -22.144   5.710  0.00  0.00    -0.284 N 
ATOM      4  C   LIG    1       26.250 -21.728   6.435  0.00  0.00    +0.171 C 
ATOM      5  N   LIG    1       24.452 -23.348   6.209  0.00  0.00    -0.217 N 
ATOM      6  C   LIG    1       23.095 -23.120   6.472  0.00  0.00    +0.272 C 
ATOM      7  O   LIG    1       22.218 -23.865   6.876  0.00  0.00    -0.266 OA
ATOM      8  C   LIG    1       22.819 -21.725   6.069  0.00  0.00    +0.094 C 
ENDROOT
BRANCH   5   9
ATOM      9  C   LIG    1       25.049 -24.616   5.989  0.00  0.00    +0.067 A 
ATOM     10  C   LIG    1       25.037 -25.217   4.720  0.00  0.00    +0.028 A 
ATOM     11  C   LIG    1       25.626 -26.468   4.507  0.00  0.00    +0.002 A 
ATOM     12  C   LIG    1       26.234 -27.140   5.561  0.00  0.00    +0.000 A 
ATOM     13  C   LIG    1       26.248 -26.566   6.829  0.00  0.00    +0.002 A 
ATOM     14  C   LIG    1       25.658 -25.316   7.040  0.00  0.00    +0.028 A 
ENDBRANCH   5   9
TORSDOF 1
ENDMDL
MODEL 9
REMARK VINA RESULT:      -6.5      1.757      4.844
REMARK  Name = *****
REMARK                            x       y       z     vdW  Elec       q    Type
REMARK                         _______ _______ _______ _____ _____    ______ ____
ROOT
ATOM      1  C   LIG    1       21.661 -18.314   4.135  0.00  0.00    +0.065 C 
ATOM      2  C   LIG    1       22.932 -19.066   4.345  0.00  0.00    +0.038 C 
ATOM      3  N   LIG    1       23.019 -20.128   5.254  0.00  0.00    -0.284 N 
ATOM      4  C   LIG    1       22.042 -21.223   5.126  0.00  0.00    +0.171 C 
ATOM      5  N   LIG    1       24.379 -20.560   5.200  0.00  0.00    -0.217 N 
ATOM      6  C   LIG    1       25.057 -19.807   4.231  0.00  0.00    +0.272 C 
ATOM      7  O   LIG    1       26.224 -19.819   3.876  0.00  0.00    -0.266 OA
ATOM      8  C   LIG    1       24.082 -18.833   3.699  0.00  0.00    +0.094 C 
ENDROOT
BRANCH   5   9
ATOM      9  C   LIG    1       24.985 -21.259   6.275  0.00  0.00    +0.067 A 
ATOM     10  C   LIG    1       25.260 -22.633   6.190  0.00  0.00    +0.028 A 
ATOM     11  C   LIG    1       25.857 -23.318   7.253  0.00  0.00    +0.002 A 
ATOM     12  C   LIG    1       26.187 -22.640   8.422  0.00  0.00    +0.000 A 
ATOM     13  C   LIG    1       25.914 -21.280   8.530  0.00  0.00    +0.002 A 
ATOM     14  C   LIG    1       25.316 -20.597   7.466  0.00  0.00    +0.028 A 
ENDBRANCH   5   9
TORSDOF 1
ENDMDL
