MODEL 1
REMARK VINA RESULT:      -5.0      0.000      0.000
REMARK  Name = *****
REMARK                            x       y       z     vdW  Elec       q    Type
REMARK                         _______ _______ _______ _____ _____    ______ ____
ROOT
ATOM      1  N   LIG    1       29.455 -18.188   4.919  0.00  0.00    -0.313 NA
ATOM      2  H   LIG    1       30.445 -17.923   4.875  0.00  0.00    +0.122 HD
ENDROOT
BRANCH   1   3
ATOM      3  C   LIG    1       28.673 -16.943   4.721  0.00  0.00    +0.085 C 
BRANCH   3   4
ATOM      4  C   LIG    1       27.390 -17.089   3.856  0.00  0.00    +0.050 C 
BRANCH   4   8
ATOM      5  C   LIG    1       25.163 -13.424   3.300  0.00  0.00    +0.162 A 
ATOM      6  C   LIG    1       24.532 -14.552   3.846  0.00  0.00    +0.162 A 
ATOM      7  C   LIG    1       25.258 -15.733   3.995  0.00  0.00    +0.053 A 
ATOM      8  C   LIG    1       26.617 -15.804   3.678  0.00  0.00    -0.043 A 
ATOM      9  C   LIG    1       27.257 -14.652   3.208  0.00  0.00    +0.007 A 
ATOM     10  C   LIG    1       26.528 -13.479   2.996  0.00  0.00    +0.050 A 
BRANCH   5  12
ATOM     11  C   LIG    1       24.624 -11.647   1.813  0.00  0.00    +0.277 C 
ATOM     12  O   LIG    1       24.368 -12.343   3.024  0.00  0.00    -0.491 OA
ENDBRANCH   5  12
BRANCH   6  13
ATOM     13  O   LIG    1       23.204 -14.463   4.174  0.00  0.00    -0.491 OA
ATOM     14  C   LIG    1       22.607 -15.612   4.775  0.00  0.00    +0.277 C 
ENDBRANCH   6  13
ENDBRANCH   4   8
ENDBRANCH   3   4
ENDBRANCH   1   3
BRANCH   1  15
ATOM     15  C   LIG    1       29.208 -18.671   6.273  0.00  0.00    +0.115 C 
BRANCH  15  16
ATOM     16  C   LIG    1       28.483 -19.985   6.572  0.00  0.00    +0.166 C 
BRANCH  16  17
ATOM     17  O   LIG    1       29.428 -20.960   7.036  0.00  0.00    -0.387 OA
ATOM     18  H   LIG    1       30.148 -20.484   7.487  0.00  0.00    +0.210 HD
ENDBRANCH  16  17
BRANCH  16  19
ATOM     19  C   LIG    1       27.812 -20.545   5.286  0.00  0.00    +0.261 C 
BRANCH  19  20
ATOM     20  O   LIG    1       26.645 -19.855   4.842  0.00  0.00    -0.489 OA
BRANCH  20  21
ATOM     21  C   LIG    1       25.402 -20.068   5.368  0.00  0.00    +0.121 A 
ATOM     22  C   LIG    1       24.369 -19.529   4.638  0.00  0.00    +0.049 A 
ATOM     23  C   LIG    1       23.031 -19.698   5.029  0.00  0.00    -0.047 A 
ATOM     24  C   LIG    1       21.931 -19.022   4.276  0.00  0.00    +0.044 C 
ATOM     25  C   LIG    1       22.737 -20.548   6.104  0.00  0.00    +0.003 A 
ATOM     26  C   LIG    1       23.751 -21.138   6.801  0.00  0.00    +0.004 A 
ATOM     27  C   LIG    1       25.086 -20.819   6.516  0.00  0.00    +0.045 A 
ENDBRANCH  20  21
ENDBRANCH  19  20
ENDBRANCH  16  19
ENDBRANCH  15  16
ENDBRANCH   1  15
TORSDOF 11
ENDMDL
MODEL 2
REMARK VINA RESULT:      -4.9      1.027      2.060
REMARK  Name = *****
REMARK                            x       y       z     vdW  Elec       q    Type
REMARK                         _______ _______ _______ _____ _____    ______ ____
ROOT
ATOM      1  N   LIG    1       28.791 -18.739   4.811  0.00  0.00    -0.313 NA
ATOM      2  H   LIG    1       29.761 -18.677   4.487  0.00  0.00    +0.122 HD
ENDROOT
BRANCH   1   3
ATOM      3  C   LIG    1       28.211 -17.380   4.685  0.00  0.00    +0.085 C 
BRANCH   3   4
ATOM      4  C   LIG    1       27.015 -17.250   3.702  0.00  0.00    +0.050 C 
BRANCH   4   8
ATOM      5  C   LIG    1       25.415 -13.240   3.442  0.00  0.00    +0.162 A 
ATOM      6  C   LIG    1       26.803 -13.446   3.402  0.00  0.00    +0.162 A 
ATOM      7  C   LIG    1       27.302 -14.742   3.512  0.00  0.00    +0.053 A 
ATOM      8  C   LIG    1       26.456 -15.851   3.593  0.00  0.00    -0.043 A 
ATOM      9  C   LIG    1       25.073 -15.643   3.552  0.00  0.00    +0.007 A 
ATOM     10  C   LIG    1       24.558 -14.345   3.503  0.00  0.00    +0.050 A 
BRANCH   5  12
ATOM     11  C   LIG    1       23.948 -11.571   2.593  0.00  0.00    +0.277 C 
ATOM     12  O   LIG    1       24.983 -11.941   3.492  0.00  0.00    -0.491 OA
ENDBRANCH   5  12
BRANCH   6  13
ATOM     13  O   LIG    1       27.622 -12.352   3.300  0.00  0.00    -0.491 OA
ATOM     14  C   LIG    1       28.968 -12.505   3.753  0.00  0.00    +0.277 C 
ENDBRANCH   6  13
ENDBRANCH   4   8
ENDBRANCH   3   4
ENDBRANCH   1   3
BRANCH   1  15
ATOM     15  C   LIG    1       28.841 -19.083   6.228  0.00  0.00    +0.115 C 
BRANCH  15  16
ATOM     16  C   LIG    1       28.318 -20.409   6.785  0.00  0.00    +0.166 C 
BRANCH  16  17
ATOM     17  O   LIG    1       29.421 -21.283   7.062  0.00  0.00    -0.387 OA
ATOM     18  H   LIG    1       29.090 -22.012   7.617  0.00  0.00    +0.210 HD
ENDBRANCH  16  17
BRANCH  16  19
ATOM     19  C   LIG    1       27.398 -21.114   5.748  0.00  0.00    +0.261 C 
BRANCH  19  20
ATOM     20  O   LIG    1       26.420 -20.287   5.120  0.00  0.00    -0.489 OA
BRANCH  20  21
ATOM     21  C   LIG    1       25.088 -20.343   5.417  0.00  0.00    +0.121 A 
ATOM     22  C   LIG    1       24.303 -19.466   4.705  0.00  0.00    +0.049 A 
ATOM     23  C   LIG    1       22.909 -19.433   4.869  0.00  0.00    -0.047 A 
ATOM     24  C   LIG    1       22.087 -18.407   4.159  0.00  0.00    +0.044 C 
ATOM     25  C   LIG    1       22.294 -20.408   5.668  0.00  0.00    +0.003 A 
ATOM     26  C   LIG    1       23.056 -21.323   6.333  0.00  0.00    +0.004 A 
ATOM     27  C   LIG    1       24.456 -21.233   6.305  0.00  0.00    +0.045 A 
ENDBRANCH  20  21
ENDBRANCH  19  20
ENDBRANCH  16  19
ENDBRANCH  15  16
ENDBRANCH   1  15
TORSDOF 11
ENDMDL
MODEL 3
REMARK VINA RESULT:      -4.0      2.075      4.163
REMARK  Name = *****
REMARK                            x       y       z     vdW  Elec       q    Type
REMARK                         _______ _______ _______ _____ _____    ______ ____
ROOT
ATOM      1  N   LIG    1       24.062 -19.808   3.152  0.00  0.00    -0.313 NA
ATOM      2  H   LIG    1       24.409 -20.256   2.298  0.00  0.00    +0.122 HD
ENDROOT
BRANCH   1   3
ATOM      3  C   LIG    1       24.914 -18.616   3.384  0.00  0.00    +0.085 C 
BRANCH   3   4
ATOM      4  C   LIG    1       24.171 -17.251   3.379  0.00  0.00    +0.050 C 
BRANCH   4   8
ATOM      5  C   LIG    1       26.761 -13.812   3.797  0.00  0.00    +0.162 A 
ATOM      6  C   LIG    1       25.394 -13.701   4.094  0.00  0.00    +0.162 A 
ATOM      7  C   LIG    1       24.569 -14.813   3.930  0.00  0.00    +0.053 A 
ATOM      8  C   LIG    1       25.079 -16.055   3.542  0.00  0.00    -0.043 A 
ATOM      9  C   LIG    1       26.455 -16.175   3.324  0.00  0.00    +0.007 A 
ATOM     10  C   LIG    1       27.285 -15.056   3.425  0.00  0.00    +0.050 A 
BRANCH   5  12
ATOM     11  C   LIG    1       28.530 -12.568   4.787  0.00  0.00    +0.277 C 
ATOM     12  O   LIG    1       27.494 -12.655   3.819  0.00  0.00    -0.491 OA
ENDBRANCH   5  12
BRANCH   6  13
ATOM     13  O   LIG    1       24.909 -12.484   4.496  0.00  0.00    -0.491 OA
ATOM     14  C   LIG    1       23.577 -12.154   4.104  0.00  0.00    +0.277 C 
ENDBRANCH   6  13
ENDBRANCH   4   8
ENDBRANCH   3   4
ENDBRANCH   1   3
BRANCH   1  15
ATOM     15  C   LIG    1       24.288 -20.749   4.243  0.00  0.00    +0.115 C 
BRANCH  15  16
ATOM     16  C   LIG    1       23.536 -20.683   5.574  0.00  0.00    +0.166 C 
BRANCH  16  17
ATOM     17  O   LIG    1       22.738 -19.491   5.616  0.00  0.00    -0.387 OA
ATOM     18  H   LIG    1       23.201 -18.806   5.100  0.00  0.00    +0.210 HD
ENDBRANCH  16  17
BRANCH  16  19
ATOM     19  C   LIG    1       24.533 -20.632   6.766  0.00  0.00    +0.261 C 
BRANCH  19  20
ATOM     20  O   LIG    1       25.674 -21.480   6.659  0.00  0.00    -0.489 OA
BRANCH  20  21
ATOM     21  C   LIG    1       26.949 -21.010   6.521  0.00  0.00    +0.121 A 
ATOM     22  C   LIG    1       27.054 -19.826   5.827  0.00  0.00    +0.049 A 
ATOM     23  C   LIG    1       28.294 -19.197   5.638  0.00  0.00    -0.047 A 
ATOM     24  C   LIG    1       28.397 -17.964   4.799  0.00  0.00    +0.044 C 
ATOM     25  C   LIG    1       29.426 -19.710   6.287  0.00  0.00    +0.003 A 
ATOM     26  C   LIG    1       29.325 -20.851   7.028  0.00  0.00    +0.004 A 
ATOM     27  C   LIG    1       28.121 -21.571   7.062  0.00  0.00    +0.045 A 
ENDBRANCH  20  21
ENDBRANCH  19  20
ENDBRANCH  16  19
ENDBRANCH  15  16
ENDBRANCH   1  15
TORSDOF 11
ENDMDL
MODEL 4
REMARK VINA RESULT:      -3.9      2.207      5.908
REMARK  Name = *****
REMARK                            x       y       z     vdW  Elec       q    Type
REMARK                         _______ _______ _______ _____ _____    ______ ____
ROOT
ATOM      1  N   LIG    1       28.417 -20.491   5.927  0.00  0.00    -0.313 NA
ATOM      2  H   LIG    1       27.855 -20.512   5.070  0.00  0.00    +0.122 HD
ENDROOT
BRANCH   1   3
ATOM      3  C   LIG    1       27.462 -20.488   7.062  0.00  0.00    +0.085 C 
BRANCH   3   4
ATOM      4  C   LIG    1       26.342 -21.562   6.998  0.00  0.00    +0.050 C 
BRANCH   4   8
ATOM      5  C   LIG    1       22.810 -20.242   4.879  0.00  0.00    +0.162 A 
ATOM      6  C   LIG    1       23.970 -20.583   4.166  0.00  0.00    +0.162 A 
ATOM      7  C   LIG    1       25.107 -20.983   4.866  0.00  0.00    +0.053 A 
ATOM      8  C   LIG    1       25.103 -21.118   6.257  0.00  0.00    -0.043 A 
ATOM      9  C   LIG    1       23.919 -20.851   6.953  0.00  0.00    +0.007 A 
ATOM     10  C   LIG    1       22.790 -20.391   6.270  0.00  0.00    +0.050 A 
BRANCH   5  12
ATOM     11  C   LIG    1       21.528 -18.315   4.329  0.00  0.00    +0.277 C 
ATOM     12  O   LIG    1       21.777 -19.703   4.159  0.00  0.00    -0.491 OA
ENDBRANCH   5  12
BRANCH   6  13
ATOM     13  O   LIG    1       23.954 -20.469   2.800  0.00  0.00    -0.491 OA
ATOM     14  C   LIG    1       24.906 -19.581   2.213  0.00  0.00    +0.277 C 
ENDBRANCH   6  13
ENDBRANCH   4   8
ENDBRANCH   3   4
ENDBRANCH   1   3
BRANCH   1  15
ATOM     15  C   LIG    1       29.134 -19.220   5.931  0.00  0.00    +0.115 C 
BRANCH  15  16
ATOM     16  C   LIG    1       28.995 -18.180   4.817  0.00  0.00    +0.166 C 
BRANCH  16  17
ATOM     17  O   LIG    1       29.475 -16.911   5.282  0.00  0.00    -0.387 OA
ATOM     18  H   LIG    1       30.256 -16.676   4.750  0.00  0.00    +0.210 HD
ENDBRANCH  16  17
BRANCH  16  19
ATOM     19  C   LIG    1       27.503 -18.007   4.412  0.00  0.00    +0.261 C 
BRANCH  19  20
ATOM     20  O   LIG    1       27.243 -17.049   3.388  0.00  0.00    -0.489 OA
BRANCH  20  21
ATOM     21  C   LIG    1       26.816 -15.777   3.642  0.00  0.00    +0.121 A 
ATOM     22  C   LIG    1       25.449 -15.621   3.657  0.00  0.00    +0.049 A 
ATOM     23  C   LIG    1       24.858 -14.381   3.943  0.00  0.00    -0.047 A 
ATOM     24  C   LIG    1       23.375 -14.212   3.859  0.00  0.00    +0.044 C 
ATOM     25  C   LIG    1       25.671 -13.317   4.358  0.00  0.00    +0.003 A 
ATOM     26  C   LIG    1       27.025 -13.475   4.406  0.00  0.00    +0.004 A 
ATOM     27  C   LIG    1       27.617 -14.660   3.944  0.00  0.00    +0.045 A 
ENDBRANCH  20  21
ENDBRANCH  19  20
ENDBRANCH  16  19
ENDBRANCH  15  16
ENDBRANCH   1  15
TORSDOF 11
ENDMDL
MODEL 5
REMARK VINA RESULT:      -3.9      2.038      7.551
REMARK  Name = *****
REMARK                            x       y       z     vdW  Elec       q    Type
REMARK                         _______ _______ _______ _____ _____    ______ ____
ROOT
ATOM      1  N   LIG    1       22.709 -18.781   4.326  0.00  0.00    -0.313 NA
ATOM      2  H   LIG    1       22.776 -18.793   3.303  0.00  0.00    +0.122 HD
ENDROOT
BRANCH   1   3
ATOM      3  C   LIG    1       21.870 -19.941   4.711  0.00  0.00    +0.085 C 
BRANCH   3   4
ATOM      4  C   LIG    1       22.596 -21.057   5.513  0.00  0.00    +0.050 C 
BRANCH   4   8
ATOM      5  C   LIG    1       26.837 -20.396   6.044  0.00  0.00    +0.162 A 
ATOM      6  C   LIG    1       26.156 -19.770   4.989  0.00  0.00    +0.162 A 
ATOM      7  C   LIG    1       24.794 -20.014   4.817  0.00  0.00    +0.053 A 
ATOM      8  C   LIG    1       24.074 -20.813   5.709  0.00  0.00    -0.043 A 
ATOM      9  C   LIG    1       24.744 -21.368   6.803  0.00  0.00    +0.007 A 
ATOM     10  C   LIG    1       26.121 -21.182   6.954  0.00  0.00    +0.050 A 
BRANCH   5  12
ATOM     11  C   LIG    1       28.904 -20.998   7.056  0.00  0.00    +0.277 C 
ATOM     12  O   LIG    1       28.199 -20.253   6.073  0.00  0.00    -0.491 OA
ENDBRANCH   5  12
BRANCH   6  13
ATOM     13  O   LIG    1       26.870 -18.971   4.134  0.00  0.00    -0.491 OA
ATOM     14  C   LIG    1       26.140 -17.979   3.412  0.00  0.00    +0.277 C 
ENDBRANCH   6  13
ENDBRANCH   4   8
ENDBRANCH   3   4
ENDBRANCH   1   3
BRANCH   1  15
ATOM     15  C   LIG    1       21.994 -17.561   4.687  0.00  0.00    +0.115 C 
BRANCH  15  16
ATOM     16  C   LIG    1       22.692 -16.315   5.235  0.00  0.00    +0.166 C 
BRANCH  16  17
ATOM     17  O   LIG    1       21.779 -15.575   6.057  0.00  0.00    -0.387 OA
ATOM     18  H   LIG    1       21.617 -16.096   6.864  0.00  0.00    +0.210 HD
ENDBRANCH  16  17
BRANCH  16  19
ATOM     19  C   LIG    1       23.147 -15.387   4.073  0.00  0.00    +0.261 C 
BRANCH  19  20
ATOM     20  O   LIG    1       23.911 -14.244   4.452  0.00  0.00    -0.489 OA
BRANCH  20  21
ATOM     21  C   LIG    1       25.163 -13.984   3.970  0.00  0.00    +0.121 A 
ATOM     22  C   LIG    1       26.063 -13.547   4.913  0.00  0.00    +0.049 A 
ATOM     23  C   LIG    1       27.400 -13.277   4.579  0.00  0.00    -0.047 A 
ATOM     24  C   LIG    1       28.336 -12.711   5.598  0.00  0.00    +0.044 C 
ATOM     25  C   LIG    1       27.858 -13.593   3.292  0.00  0.00    +0.003 A 
ATOM     26  C   LIG    1       26.989 -14.085   2.362  0.00  0.00    +0.004 A 
ATOM     27  C   LIG    1       25.620 -14.179   2.653  0.00  0.00    +0.045 A 
ENDBRANCH  20  21
ENDBRANCH  19  20
ENDBRANCH  16  19
ENDBRANCH  15  16
ENDBRANCH   1  15
TORSDOF 11
ENDMDL
MODEL 6
REMARK VINA RESULT:      -3.9      1.976      6.433
REMARK  Name = *****
REMARK                            x       y       z     vdW  Elec       q    Type
REMARK                         _______ _______ _______ _____ _____    ______ ____
ROOT
ATOM      1  N   LIG    1       29.203 -18.734   4.998  0.00  0.00    -0.313 NA
ATOM      2  H   LIG    1       28.327 -19.130   4.642  0.00  0.00    +0.122 HD
ENDROOT
BRANCH   1   3
ATOM      3  C   LIG    1       29.266 -19.068   6.442  0.00  0.00    +0.085 C 
BRANCH   3   4
ATOM      4  C   LIG    1       28.623 -20.425   6.844  0.00  0.00    +0.050 C 
BRANCH   4   8
ATOM      5  C   LIG    1       24.560 -20.908   5.446  0.00  0.00    +0.162 A 
ATOM      6  C   LIG    1       25.481 -20.174   4.684  0.00  0.00    +0.162 A 
ATOM      7  C   LIG    1       26.780 -20.007   5.162  0.00  0.00    +0.053 A 
ATOM      8  C   LIG    1       27.209 -20.609   6.348  0.00  0.00    -0.043 A 
ATOM      9  C   LIG    1       26.306 -21.404   7.060  0.00  0.00    +0.007 A 
ATOM     10  C   LIG    1       24.984 -21.531   6.625  0.00  0.00    +0.050 A 
BRANCH   5  12
ATOM     11  C   LIG    1       22.308 -21.571   5.835  0.00  0.00    +0.277 C 
ATOM     12  O   LIG    1       23.259 -20.907   5.014  0.00  0.00    -0.491 OA
ENDBRANCH   5  12
BRANCH   6  13
ATOM     13  O   LIG    1       25.054 -19.607   3.511  0.00  0.00    -0.491 OA
ATOM     14  C   LIG    1       24.107 -18.543   3.612  0.00  0.00    +0.277 C 
ENDBRANCH   6  13
ENDBRANCH   4   8
ENDBRANCH   3   4
ENDBRANCH   1   3
BRANCH   1  15
ATOM     15  C   LIG    1       29.094 -17.284   4.870  0.00  0.00    +0.115 C 
BRANCH  15  16
ATOM     16  C   LIG    1       27.786 -16.574   4.518  0.00  0.00    +0.166 C 
BRANCH  16  17
ATOM     17  O   LIG    1       27.106 -17.301   3.485  0.00  0.00    -0.387 OA
ATOM     18  H   LIG    1       26.294 -16.811   3.263  0.00  0.00    +0.210 HD
ENDBRANCH  16  17
BRANCH  16  19
ATOM     19  C   LIG    1       28.068 -15.140   3.985  0.00  0.00    +0.261 C 
BRANCH  19  20
ATOM     20  O   LIG    1       27.349 -14.758   2.814  0.00  0.00    -0.489 OA
BRANCH  20  21
ATOM     21  C   LIG    1       26.135 -14.133   2.849  0.00  0.00    +0.121 A 
ATOM     22  C   LIG    1       25.194 -14.748   3.642  0.00  0.00    +0.049 A 
ATOM     23  C   LIG    1       23.911 -14.203   3.811  0.00  0.00    -0.047 A 
ATOM     24  C   LIG    1       22.874 -14.938   4.597  0.00  0.00    +0.044 C 
ATOM     25  C   LIG    1       23.632 -12.938   3.276  0.00  0.00    +0.003 A 
ATOM     26  C   LIG    1       24.578 -12.288   2.538  0.00  0.00    +0.004 A 
ATOM     27  C   LIG    1       25.789 -12.921   2.223  0.00  0.00    +0.045 A 
ENDBRANCH  20  21
ENDBRANCH  19  20
ENDBRANCH  16  19
ENDBRANCH  15  16
ENDBRANCH   1  15
TORSDOF 11
ENDMDL
MODEL 7
REMARK VINA RESULT:      -3.3      2.410      4.453
REMARK  Name = *****
REMARK                            x       y       z     vdW  Elec       q    Type
REMARK                         _______ _______ _______ _____ _____    ______ ____
ROOT
ATOM      1  N   LIG    1       22.479 -18.162   4.089  0.00  0.00    -0.313 NA
ATOM      2  H   LIG    1       23.361 -18.555   3.744  0.00  0.00    +0.122 HD
ENDROOT
BRANCH   1   3
ATOM      3  C   LIG    1       22.837 -17.025   4.972  0.00  0.00    +0.085 C 
BRANCH   3   4
ATOM      4  C   LIG    1       22.552 -15.611   4.392  0.00  0.00    +0.050 C 
BRANCH   4   8
ATOM      5  C   LIG    1       26.109 -13.462   3.194  0.00  0.00    +0.162 A 
ATOM      6  C   LIG    1       26.161 -14.850   3.389  0.00  0.00    +0.162 A 
ATOM      7  C   LIG    1       25.011 -15.524   3.799  0.00  0.00    +0.053 A 
ATOM      8  C   LIG    1       23.790 -14.863   3.956  0.00  0.00    -0.043 A 
ATOM      9  C   LIG    1       23.729 -13.493   3.682  0.00  0.00    +0.007 A 
ATOM     10  C   LIG    1       24.886 -12.794   3.330  0.00  0.00    +0.050 A 
BRANCH   5  12
ATOM     11  C   LIG    1       28.227 -12.765   4.021  0.00  0.00    +0.277 C 
ATOM     12  O   LIG    1       27.298 -12.826   2.949  0.00  0.00    -0.491 OA
ENDBRANCH   5  12
BRANCH   6  13
ATOM     13  O   LIG    1       27.359 -15.490   3.210  0.00  0.00    -0.491 OA
ATOM     14  C   LIG    1       27.890 -16.199   4.331  0.00  0.00    +0.277 C 
ENDBRANCH   6  13
ENDBRANCH   4   8
ENDBRANCH   3   4
ENDBRANCH   1   3
BRANCH   1  15
ATOM     15  C   LIG    1       21.848 -19.192   4.907  0.00  0.00    +0.115 C 
BRANCH  15  16
ATOM     16  C   LIG    1       22.423 -20.601   5.065  0.00  0.00    +0.166 C 
BRANCH  16  17
ATOM     17  O   LIG    1       21.426 -21.570   4.711  0.00  0.00    -0.387 OA
ATOM     18  H   LIG    1       21.501 -22.314   5.335  0.00  0.00    +0.210 HD
ENDBRANCH  16  17
BRANCH  16  19
ATOM     19  C   LIG    1       22.838 -20.861   6.541  0.00  0.00    +0.261 C 
BRANCH  19  20
ATOM     20  O   LIG    1       24.086 -21.524   6.729  0.00  0.00    -0.489 OA
BRANCH  20  21
ATOM     21  C   LIG    1       25.276 -21.028   6.277  0.00  0.00    +0.121 A 
ATOM     22  C   LIG    1       25.179 -20.230   5.161  0.00  0.00    +0.049 A 
ATOM     23  C   LIG    1       26.310 -19.614   4.602  0.00  0.00    -0.047 A 
ATOM     24  C   LIG    1       26.197 -18.831   3.334  0.00  0.00    +0.044 C 
ATOM     25  C   LIG    1       27.537 -19.700   5.276  0.00  0.00    +0.003 A 
ATOM     26  C   LIG    1       27.634 -20.440   6.419  0.00  0.00    +0.004 A 
ATOM     27  C   LIG    1       26.543 -21.198   6.867  0.00  0.00    +0.045 A 
ENDBRANCH  20  21
ENDBRANCH  19  20
ENDBRANCH  16  19
ENDBRANCH  15  16
ENDBRANCH   1  15
TORSDOF 11
ENDMDL
MODEL 8
REMARK VINA RESULT:      -2.9      1.921      6.047
REMARK  Name = *****
REMARK                            x       y       z     vdW  Elec       q    Type
REMARK                         _______ _______ _______ _____ _____    ______ ____
ROOT
ATOM      1  N   LIG    1       26.998 -20.782   6.171  0.00  0.00    -0.313 NA
ATOM      2  H   LIG    1       27.794 -21.428   6.175  0.00  0.00    +0.122 HD
ENDROOT
BRANCH   1   3
ATOM      3  C   LIG    1       25.842 -21.533   5.623  0.00  0.00    +0.085 C 
BRANCH   3   4
ATOM      4  C   LIG    1       24.492 -21.314   6.360  0.00  0.00    +0.050 C 
BRANCH   4   8
ATOM      5  C   LIG    1       21.529 -19.130   4.090  0.00  0.00    +0.162 A 
ATOM      6  C   LIG    1       22.756 -18.527   4.404  0.00  0.00    +0.162 A 
ATOM      7  C   LIG    1       23.690 -19.237   5.158  0.00  0.00    +0.053 A 
ATOM      8  C   LIG    1       23.464 -20.558   5.552  0.00  0.00    -0.043 A 
ATOM      9  C   LIG    1       22.270 -21.177   5.166  0.00  0.00    +0.007 A 
ATOM     10  C   LIG    1       21.300 -20.459   4.463  0.00  0.00    +0.050 A 
BRANCH   5  12
ATOM     11  C   LIG    1       19.375 -18.965   3.092  0.00  0.00    +0.277 C 
ATOM     12  O   LIG    1       20.586 -18.337   3.489  0.00  0.00    -0.491 OA
ENDBRANCH   5  12
BRANCH   6  13
ATOM     13  O   LIG    1       22.976 -17.238   3.992  0.00  0.00    -0.491 OA
ATOM     14  C   LIG    1       22.493 -16.196   4.840  0.00  0.00    +0.277 C 
ENDBRANCH   6  13
ENDBRANCH   4   8
ENDBRANCH   3   4
ENDBRANCH   1   3
BRANCH   1  15
ATOM     15  C   LIG    1       27.329 -19.711   5.236  0.00  0.00    +0.115 C 
BRANCH  15  16
ATOM     16  C   LIG    1       28.705 -19.044   5.185  0.00  0.00    +0.166 C 
BRANCH  16  17
ATOM     17  O   LIG    1       29.305 -19.078   6.487  0.00  0.00    -0.387 OA
ATOM     18  H   LIG    1       28.606 -18.895   7.141  0.00  0.00    +0.210 HD
ENDBRANCH  16  17
BRANCH  16  19
ATOM     19  C   LIG    1       28.575 -17.554   4.758  0.00  0.00    +0.261 C 
BRANCH  19  20
ATOM     20  O   LIG    1       27.354 -17.195   4.115  0.00  0.00    -0.489 OA
BRANCH  20  21
ATOM     21  C   LIG    1       27.046 -15.915   3.749  0.00  0.00    +0.121 A 
ATOM     22  C   LIG    1       27.952 -14.965   4.161  0.00  0.00    +0.049 A 
ATOM     23  C   LIG    1       27.794 -13.611   3.827  0.00  0.00    -0.047 A 
ATOM     24  C   LIG    1       28.736 -12.583   4.367  0.00  0.00    +0.044 C 
ATOM     25  C   LIG    1       26.772 -13.241   2.942  0.00  0.00    +0.003 A 
ATOM     26  C   LIG    1       25.901 -14.184   2.477  0.00  0.00    +0.004 A 
ATOM     27  C   LIG    1       25.958 -15.500   2.959  0.00  0.00    +0.045 A 
ENDBRANCH  20  21
ENDBRANCH  19  20
ENDBRANCH  16  19
ENDBRANCH  15  16
ENDBRANCH   1  15
TORSDOF 11
ENDMDL
