MODEL 1
REMARK VINA RESULT:      26.0      0.000      0.000
REMARK  Name = *****
REMARK                            x       y       z     vdW  Elec       q    Type
REMARK                         _______ _______ _______ _____ _____    ______ ____
ROOT
ATOM      1  C   LIG    1       22.572 -19.670   3.569  0.00  0.00    +0.040 C 
ATOM      2  C   LIG    1       22.855 -18.527   4.257  0.00  0.00    -0.016 C 
ATOM      3  C   LIG    1       21.886 -17.791   5.167  0.00  0.00    +0.204 C 
ATOM      4  C   LIG    1       22.227 -16.332   4.863  0.00  0.00    +0.057 C 
ATOM      5  C   LIG    1       23.771 -16.263   4.740  0.00  0.00    -0.016 C 
ATOM      6  C   LIG    1       24.333 -15.963   6.154  0.00  0.00    +0.012 C 
ATOM      7  C   LIG    1       24.273 -15.190   3.666  0.00  0.00    -0.020 C 
ATOM      8  C   LIG    1       23.535 -15.428   2.289  0.00  0.00    +0.012 C 
ATOM      9  C   LIG    1       25.844 -15.306   3.401  0.00  0.00    +0.030 C 
ATOM     10  C   LIG    1       26.797 -14.170   4.035  0.00  0.00    -0.023 C 
ATOM     11  C   LIG    1       27.111 -14.426   5.533  0.00  0.00    +0.012 C 
ATOM     12  C   LIG    1       26.153 -12.730   3.928  0.00  0.00    +0.001 C 
ATOM     13  C   LIG    1       24.754 -12.720   3.305  0.00  0.00    +0.005 C 
ATOM     14  C   LIG    1       27.059 -11.612   3.340  0.00  0.00    +0.018 C 
ATOM     15  C   LIG    1       27.053 -11.503   1.812  0.00  0.00    +0.010 C 
ATOM     16  C   LIG    1       28.484 -11.713   3.892  0.00  0.00    +0.118 C 
ATOM     17  C   LIG    1       29.143 -13.067   3.641  0.00  0.00    +0.032 C 
ATOM     18  C   LIG    1       28.173 -14.207   3.307  0.00  0.00    +0.010 C 
ATOM     19  C   LIG    1       26.369 -16.761   3.587  0.00  0.00    +0.119 C 
ATOM     20  C   LIG    1       25.294 -17.815   3.339  0.00  0.00    +0.040 C 
ATOM     21  C   LIG    1       23.871 -13.732   4.026  0.00  0.00    +0.008 C 
ATOM     22  C   LIG    1       24.178 -17.746   4.382  0.00  0.00    +0.028 C 
ENDROOT
BRANCH  16  23
ATOM     23  O   LIG    1       28.434 -11.453   5.300  0.00  0.00    -0.392 OA
ATOM     24  H   LIG    1       28.003 -10.591   5.426  0.00  0.00    +0.210 HD
ENDBRANCH  16  23
BRANCH  19  25
ATOM     25  O   LIG    1       27.432 -17.007   2.664  0.00  0.00    -0.392 OA
ATOM     26  H   LIG    1       28.219 -17.249   3.183  0.00  0.00    +0.210 HD
ENDBRANCH  19  25
BRANCH   1  27
ATOM     27  C   LIG    1       21.230 -20.334   3.583  0.00  0.00    +0.333 C 
ATOM     28  O   LIG    1       21.020 -21.520   3.819  0.00  0.00    -0.245 OA
BRANCH  27  29
ATOM     29  O   LIG    1       20.195 -19.500   3.389  0.00  0.00    -0.477 OA
ATOM     30  H   LIG    1       19.565 -20.011   2.840  0.00  0.00    +0.295 HD
ENDBRANCH  27  29
ENDBRANCH   1  27
BRANCH   1  31
ATOM     31  C   LIG    1       23.565 -20.444   2.719  0.00  0.00    +0.046 C 
BRANCH  31  32
ATOM     32  C   LIG    1       24.535 -21.340   3.523  0.00  0.00    +0.032 C 
BRANCH  32  35
ATOM     33  C   LIG    1       27.539 -19.985   5.688  0.00  0.00    +0.038 C 
ATOM     34  C   LIG    1       26.282 -20.739   5.328  0.00  0.00    -0.080 C 
ATOM     35  C   LIG    1       25.743 -20.635   4.095  0.00  0.00    -0.028 C 
ATOM     36  C   LIG    1       25.721 -21.567   6.449  0.00  0.00    +0.038 C 
ENDBRANCH  32  35
ENDBRANCH  31  32
ENDBRANCH   1  31
BRANCH   3  37
ATOM     37  O   LIG    1       22.264 -18.198   6.493  0.00  0.00    -0.457 OA
BRANCH  37  38
ATOM     38  C   LIG    1       22.855 -19.401   6.647  0.00  0.00    +0.304 C 
ATOM     39  O   LIG    1       24.010 -19.579   6.985  0.00  0.00    -0.251 OA
ATOM     40  C   LIG    1       21.883 -20.486   6.291  0.00  0.00    +0.136 C 
ENDBRANCH  37  38
ENDBRANCH   3  37
TORSDOF 9
ENDMDL
