MODEL 1
REMARK VINA RESULT:      -2.6      0.000      0.000
REMARK  Name = *****
REMARK                            x       y       z     vdW  Elec       q    Type
REMARK                         _______ _______ _______ _____ _____    ______ ____
ROOT
ATOM      1  C   LIG    1       24.299 -20.199   4.871  0.00  0.00    +0.080 A 
ATOM      2  C   LIG    1       23.313 -19.371   4.280  0.00  0.00    +0.045 A 
ATOM      3  C   LIG    1       21.981 -19.756   4.487  0.00  0.00    +0.024 A 
ATOM      4  C   LIG    1       21.633 -20.820   5.336  0.00  0.00    +0.002 A 
ATOM      5  C   LIG    1       22.617 -21.572   5.962  0.00  0.00    +0.001 A 
ATOM      6  C   LIG    1       23.949 -21.273   5.724  0.00  0.00    +0.017 A 
ENDROOT
BRANCH   1   8
ATOM      7  O   LIG    1       26.150 -20.003   3.400  0.00  0.00    -0.245 OA
ATOM      8  C   LIG    1       25.725 -20.012   4.557  0.00  0.00    +0.341 C 
BRANCH   8   9
ATOM      9  O   LIG    1       26.447 -19.981   5.686  0.00  0.00    -0.458 OA
BRANCH   9  10
ATOM     10  C   LIG    1       27.834 -20.318   5.569  0.00  0.00    +0.266 C 
BRANCH  10  11
ATOM     11  C   LIG    1       28.593 -20.183   6.887  0.00  0.00    +0.177 C 
BRANCH  11  12
ATOM     12  O   LIG    1       29.466 -21.313   7.060  0.00  0.00    -0.386 OA
ATOM     13  H   LIG    1       29.653 -21.670   6.174  0.00  0.00    +0.210 HD
ENDBRANCH  11  12
BRANCH  11  14
ATOM     14  C   LIG    1       29.444 -18.913   6.942  0.00  0.00    +0.190 C 
BRANCH  14  15
ATOM     15  O   LIG    1       29.331 -18.207   5.706  0.00  0.00    -0.392 OA
ATOM     16  H   LIG    1       30.255 -18.055   5.426  0.00  0.00    +0.209 HD
ENDBRANCH  14  15
ENDBRANCH  11  14
ENDBRANCH  10  11
ENDBRANCH   9  10
ENDBRANCH   8   9
ENDBRANCH   1   8
BRANCH   2  17
ATOM     17  N   LIG    1       23.616 -18.260   3.430  0.00  0.00    -0.313 N 
ATOM     18  H   LIG    1       24.231 -18.521   2.648  0.00  0.00    +0.152 HD
BRANCH  17  19
ATOM     19  C   LIG    1       23.809 -16.878   3.778  0.00  0.00    +0.042 A 
ATOM     20  C   LIG    1       25.110 -16.273   3.755  0.00  0.00    +0.022 A 
ATOM     21  C   LIG    1       26.289 -16.956   3.372  0.00  0.00    +0.012 A 
ATOM     22  C   LIG    1       27.542 -16.341   3.410  0.00  0.00    +0.001 A 
ATOM     23  C   LIG    1       27.641 -15.019   3.811  0.00  0.00    +0.014 A 
ATOM     24  C   LIG    1       26.488 -14.297   4.175  0.00  0.00    +0.081 A 
ATOM     25  C   LIG    1       25.228 -14.899   4.124  0.00  0.00    +0.084 A 
ATOM     26  N   LIG    1       24.146 -14.164   4.411  0.00  0.00    -0.254 NA
ATOM     27  C   LIG    1       22.932 -14.746   4.409  0.00  0.00    +0.113 A 
ATOM     28  C   LIG    1       22.722 -16.083   4.148  0.00  0.00    +0.043 A 
BRANCH  24  29
ATOM     29  C   LIG    1       26.696 -12.877   4.643  0.00  0.00    +0.419 C 
ATOM     30  F   LIG    1       26.842 -12.012   3.592  0.00  0.00    -0.166 F 
ATOM     31  F   LIG    1       27.864 -12.756   5.350  0.00  0.00    -0.166 F 
ATOM     32  F   LIG    1       25.745 -12.321   5.438  0.00  0.00    -0.166 F 
ENDBRANCH  24  29
ENDBRANCH  17  19
ENDBRANCH   2  17
TORSDOF 10
ENDMDL
MODEL 2
REMARK VINA RESULT:      -2.1      1.321      2.556
REMARK  Name = *****
REMARK                            x       y       z     vdW  Elec       q    Type
REMARK                         _______ _______ _______ _____ _____    ______ ____
ROOT
ATOM      1  C   LIG    1       24.713 -20.080   5.178  0.00  0.00    +0.080 A 
ATOM      2  C   LIG    1       24.506 -19.147   4.132  0.00  0.00    +0.045 A 
ATOM      3  C   LIG    1       23.197 -19.052   3.641  0.00  0.00    +0.024 A 
ATOM      4  C   LIG    1       22.124 -19.741   4.233  0.00  0.00    +0.002 A 
ATOM      5  C   LIG    1       22.342 -20.594   5.305  0.00  0.00    +0.001 A 
ATOM      6  C   LIG    1       23.633 -20.776   5.772  0.00  0.00    +0.017 A 
ENDROOT
BRANCH   1   8
ATOM      7  O   LIG    1       26.447 -21.572   5.804  0.00  0.00    -0.245 OA
ATOM      8  C   LIG    1       26.073 -20.410   5.632  0.00  0.00    +0.341 C 
BRANCH   8   9
ATOM      9  O   LIG    1       26.747 -19.289   5.927  0.00  0.00    -0.458 OA
BRANCH   9  10
ATOM     10  C   LIG    1       27.680 -19.369   7.010  0.00  0.00    +0.266 C 
BRANCH  10  11
ATOM     11  C   LIG    1       29.098 -19.701   6.551  0.00  0.00    +0.177 C 
BRANCH  11  12
ATOM     12  O   LIG    1       29.216 -21.116   6.328  0.00  0.00    -0.386 OA
ATOM     13  H   LIG    1       29.668 -21.236   5.474  0.00  0.00    +0.210 HD
ENDBRANCH  11  12
BRANCH  11  14
ATOM     14  C   LIG    1       29.475 -18.982   5.255  0.00  0.00    +0.190 C 
BRANCH  14  15
ATOM     15  O   LIG    1       29.328 -17.572   5.430  0.00  0.00    -0.392 OA
ATOM     16  H   LIG    1       28.874 -17.270   4.618  0.00  0.00    +0.209 HD
ENDBRANCH  14  15
ENDBRANCH  11  14
ENDBRANCH  10  11
ENDBRANCH   9  10
ENDBRANCH   8   9
ENDBRANCH   1   8
BRANCH   2  17
ATOM     17  N   LIG    1       25.560 -18.402   3.514  0.00  0.00    -0.313 N 
ATOM     18  H   LIG    1       26.444 -18.926   3.481  0.00  0.00    +0.152 HD
BRANCH  17  19
ATOM     19  C   LIG    1       25.820 -16.988   3.560  0.00  0.00    +0.042 A 
ATOM     20  C   LIG    1       24.803 -16.051   3.946  0.00  0.00    +0.022 A 
ATOM     21  C   LIG    1       23.494 -16.425   4.333  0.00  0.00    +0.012 A 
ATOM     22  C   LIG    1       22.523 -15.476   4.656  0.00  0.00    +0.001 A 
ATOM     23  C   LIG    1       22.846 -14.129   4.621  0.00  0.00    +0.014 A 
ATOM     24  C   LIG    1       24.145 -13.718   4.267  0.00  0.00    +0.081 A 
ATOM     25  C   LIG    1       25.129 -14.661   3.958  0.00  0.00    +0.084 A 
ATOM     26  N   LIG    1       26.372 -14.239   3.693  0.00  0.00    -0.254 NA
ATOM     27  C   LIG    1       27.315 -15.136   3.351  0.00  0.00    +0.113 A 
ATOM     28  C   LIG    1       27.082 -16.489   3.229  0.00  0.00    +0.043 A 
BRANCH  24  29
ATOM     29  C   LIG    1       24.394 -12.230   4.210  0.00  0.00    +0.419 C 
ATOM     30  F   LIG    1       25.226 -11.817   5.216  0.00  0.00    -0.166 F 
ATOM     31  F   LIG    1       23.236 -11.527   4.413  0.00  0.00    -0.166 F 
ATOM     32  F   LIG    1       24.924 -11.714   3.070  0.00  0.00    -0.166 F 
ENDBRANCH  24  29
ENDBRANCH  17  19
ENDBRANCH   2  17
TORSDOF 10
ENDMDL
MODEL 3
REMARK VINA RESULT:      -1.7      1.635      2.726
REMARK  Name = *****
REMARK                            x       y       z     vdW  Elec       q    Type
REMARK                         _______ _______ _______ _____ _____    ______ ____
ROOT
ATOM      1  C   LIG    1       23.627 -19.747   4.398  0.00  0.00    +0.080 A 
ATOM      2  C   LIG    1       24.052 -18.537   3.794  0.00  0.00    +0.045 A 
ATOM      3  C   LIG    1       23.083 -17.530   3.687  0.00  0.00    +0.024 A 
ATOM      4  C   LIG    1       21.806 -17.656   4.259  0.00  0.00    +0.002 A 
ATOM      5  C   LIG    1       21.439 -18.825   4.910  0.00  0.00    +0.001 A 
ATOM      6  C   LIG    1       22.340 -19.875   4.972  0.00  0.00    +0.017 A 
ENDROOT
BRANCH   1   8
ATOM      7  O   LIG    1       24.870 -21.466   3.337  0.00  0.00    -0.245 OA
ATOM      8  C   LIG    1       24.492 -20.938   4.384  0.00  0.00    +0.341 C 
BRANCH   8   9
ATOM      9  O   LIG    1       24.678 -21.389   5.633  0.00  0.00    -0.458 OA
BRANCH   9  10
ATOM     10  C   LIG    1       25.563 -20.628   6.463  0.00  0.00    +0.266 C 
BRANCH  10  11
ATOM     11  C   LIG    1       27.036 -20.863   6.136  0.00  0.00    +0.177 C 
BRANCH  11  12
ATOM     12  O   LIG    1       27.303 -20.455   4.784  0.00  0.00    -0.386 OA
ATOM     13  H   LIG    1       28.140 -19.959   4.793  0.00  0.00    +0.210 HD
ENDBRANCH  11  12
BRANCH  11  14
ATOM     14  C   LIG    1       27.970 -20.081   7.062  0.00  0.00    +0.190 C 
BRANCH  14  15
ATOM     15  O   LIG    1       29.283 -20.051   6.501  0.00  0.00    -0.392 OA
ATOM     16  H   LIG    1       29.142 -20.159   5.540  0.00  0.00    +0.209 HD
ENDBRANCH  14  15
ENDBRANCH  11  14
ENDBRANCH  10  11
ENDBRANCH   9  10
ENDBRANCH   8   9
ENDBRANCH   1   8
BRANCH   2  17
ATOM     17  N   LIG    1       25.350 -18.350   3.221  0.00  0.00    -0.313 N 
ATOM     18  H   LIG    1       25.762 -19.230   2.888  0.00  0.00    +0.152 HD
BRANCH  17  19
ATOM     19  C   LIG    1       26.384 -17.426   3.602  0.00  0.00    +0.042 A 
ATOM     20  C   LIG    1       26.188 -16.006   3.524  0.00  0.00    +0.022 A 
ATOM     21  C   LIG    1       24.980 -15.400   3.103  0.00  0.00    +0.012 A 
ATOM     22  C   LIG    1       24.850 -14.015   2.998  0.00  0.00    +0.001 A 
ATOM     23  C   LIG    1       25.919 -13.200   3.335  0.00  0.00    +0.014 A 
ATOM     24  C   LIG    1       27.129 -13.764   3.783  0.00  0.00    +0.081 A 
ATOM     25  C   LIG    1       27.264 -15.149   3.908  0.00  0.00    +0.084 A 
ATOM     26  N   LIG    1       28.404 -15.648   4.402  0.00  0.00    -0.254 NA
ATOM     27  C   LIG    1       28.561 -16.983   4.484  0.00  0.00    +0.113 A 
ATOM     28  C   LIG    1       27.617 -17.895   4.063  0.00  0.00    +0.043 A 
BRANCH  24  29
ATOM     29  C   LIG    1       28.255 -12.804   4.083  0.00  0.00    +0.419 C 
ATOM     30  F   LIG    1       28.246 -11.731   3.233  0.00  0.00    -0.166 F 
ATOM     31  F   LIG    1       29.474 -13.394   3.879  0.00  0.00    -0.166 F 
ATOM     32  F   LIG    1       28.326 -12.273   5.332  0.00  0.00    -0.166 F 
ENDBRANCH  24  29
ENDBRANCH  17  19
ENDBRANCH   2  17
TORSDOF 10
ENDMDL
MODEL 4
REMARK VINA RESULT:      -0.7      1.564      2.533
REMARK  Name = *****
REMARK                            x       y       z     vdW  Elec       q    Type
REMARK                         _______ _______ _______ _____ _____    ______ ____
ROOT
ATOM      1  C   LIG    1       21.635 -20.063   4.397  0.00  0.00    +0.080 A 
ATOM      2  C   LIG    1       21.968 -18.749   3.984  0.00  0.00    +0.045 A 
ATOM      3  C   LIG    1       20.977 -18.057   3.276  0.00  0.00    +0.024 A 
ATOM      4  C   LIG    1       19.684 -18.577   3.096  0.00  0.00    +0.002 A 
ATOM      5  C   LIG    1       19.361 -19.839   3.574  0.00  0.00    +0.001 A 
ATOM      6  C   LIG    1       20.334 -20.589   4.213  0.00  0.00    +0.017 A 
ENDROOT
BRANCH   1   8
ATOM      7  O   LIG    1       22.496 -21.547   6.035  0.00  0.00    -0.245 OA
ATOM      8  C   LIG    1       22.659 -20.954   4.968  0.00  0.00    +0.341 C 
BRANCH   8   9
ATOM      9  O   LIG    1       23.777 -20.906   4.229  0.00  0.00    -0.458 OA
BRANCH   9  10
ATOM     10  C   LIG    1       24.966 -21.427   4.833  0.00  0.00    +0.266 C 
BRANCH  10  11
ATOM     11  C   LIG    1       25.653 -20.424   5.757  0.00  0.00    +0.177 C 
BRANCH  11  12
ATOM     12  O   LIG    1       25.047 -20.473   7.060  0.00  0.00    -0.386 OA
ATOM     13  H   LIG    1       24.169 -20.878   6.953  0.00  0.00    +0.210 HD
ENDBRANCH  11  12
BRANCH  11  14
ATOM     14  C   LIG    1       27.148 -20.709   5.917  0.00  0.00    +0.190 C 
BRANCH  14  15
ATOM     15  O   LIG    1       27.887 -19.931   4.974  0.00  0.00    -0.392 OA
ATOM     16  H   LIG    1       28.583 -19.498   5.506  0.00  0.00    +0.209 HD
ENDBRANCH  14  15
ENDBRANCH  11  14
ENDBRANCH  10  11
ENDBRANCH   9  10
ENDBRANCH   8   9
ENDBRANCH   1   8
BRANCH   2  17
ATOM     17  N   LIG    1       23.262 -18.164   4.168  0.00  0.00    -0.313 N 
ATOM     18  H   LIG    1       23.839 -18.690   4.836  0.00  0.00    +0.152 HD
BRANCH  17  19
ATOM     19  C   LIG    1       23.637 -16.776   4.168  0.00  0.00    +0.042 A 
ATOM     20  C   LIG    1       24.987 -16.364   3.908  0.00  0.00    +0.022 A 
ATOM     21  C   LIG    1       26.040 -17.261   3.607  0.00  0.00    +0.012 A 
ATOM     22  C   LIG    1       27.349 -16.820   3.407  0.00  0.00    +0.001 A 
ATOM     23  C   LIG    1       27.631 -15.465   3.480  0.00  0.00    +0.014 A 
ATOM     24  C   LIG    1       26.606 -14.538   3.751  0.00  0.00    +0.081 A 
ATOM     25  C   LIG    1       25.290 -14.969   3.936  0.00  0.00    +0.084 A 
ATOM     26  N   LIG    1       24.329 -14.056   4.123  0.00  0.00    -0.254 NA
ATOM     27  C   LIG    1       23.066 -14.462   4.347  0.00  0.00    +0.113 A 
ATOM     28  C   LIG    1       22.686 -15.785   4.423  0.00  0.00    +0.043 A 
BRANCH  24  29
ATOM     29  C   LIG    1       27.014 -13.088   3.858  0.00  0.00    +0.419 C 
ATOM     30  F   LIG    1       26.540 -12.512   5.005  0.00  0.00    -0.166 F 
ATOM     31  F   LIG    1       26.463 -12.345   2.848  0.00  0.00    -0.166 F 
ATOM     32  F   LIG    1       28.340 -12.794   3.827  0.00  0.00    -0.166 F 
ENDBRANCH  24  29
ENDBRANCH  17  19
ENDBRANCH   2  17
TORSDOF 10
ENDMDL
MODEL 5
REMARK VINA RESULT:      -0.7      1.788      2.996
REMARK  Name = *****
REMARK                            x       y       z     vdW  Elec       q    Type
REMARK                         _______ _______ _______ _____ _____    ______ ____
ROOT
ATOM      1  C   LIG    1       22.004 -19.759   4.942  0.00  0.00    +0.080 A 
ATOM      2  C   LIG    1       21.837 -18.437   4.459  0.00  0.00    +0.045 A 
ATOM      3  C   LIG    1       20.848 -18.259   3.481  0.00  0.00    +0.024 A 
ATOM      4  C   LIG    1       19.984 -19.298   3.094  0.00  0.00    +0.002 A 
ATOM      5  C   LIG    1       20.122 -20.567   3.636  0.00  0.00    +0.001 A 
ATOM      6  C   LIG    1       21.136 -20.805   4.549  0.00  0.00    +0.017 A 
ENDROOT
BRANCH   1   8
ATOM      7  O   LIG    1       23.071 -20.023   7.043  0.00  0.00    -0.245 OA
ATOM      8  C   LIG    1       23.138 -20.102   5.815  0.00  0.00    +0.341 C 
BRANCH   8   9
ATOM      9  O   LIG    1       24.224 -20.375   5.078  0.00  0.00    -0.458 OA
BRANCH   9  10
ATOM     10  C   LIG    1       25.046 -21.458   5.526  0.00  0.00    +0.266 C 
BRANCH  10  11
ATOM     11  C   LIG    1       26.513 -21.067   5.687  0.00  0.00    +0.177 C 
BRANCH  11  12
ATOM     12  O   LIG    1       26.869 -20.098   4.686  0.00  0.00    -0.386 OA
ATOM     13  H   LIG    1       27.351 -20.572   3.986  0.00  0.00    +0.210 HD
ENDBRANCH  11  12
BRANCH  11  14
ATOM     14  C   LIG    1       26.806 -20.460   7.061  0.00  0.00    +0.190 C 
BRANCH  14  15
ATOM     15  O   LIG    1       28.115 -19.889   7.062  0.00  0.00    -0.392 OA
ATOM     16  H   LIG    1       28.512 -20.185   6.219  0.00  0.00    +0.209 HD
ENDBRANCH  14  15
ENDBRANCH  11  14
ENDBRANCH  10  11
ENDBRANCH   9  10
ENDBRANCH   8   9
ENDBRANCH   1   8
BRANCH   2  17
ATOM     17  N   LIG    1       22.673 -17.341   4.843  0.00  0.00    -0.313 N 
ATOM     18  H   LIG    1       22.134 -16.546   5.210  0.00  0.00    +0.152 HD
BRANCH  17  19
ATOM     19  C   LIG    1       23.896 -16.880   4.243  0.00  0.00    +0.042 A 
ATOM     20  C   LIG    1       24.247 -15.488   4.229  0.00  0.00    +0.022 A 
ATOM     21  C   LIG    1       23.456 -14.471   4.813  0.00  0.00    +0.012 A 
ATOM     22  C   LIG    1       23.813 -13.124   4.735  0.00  0.00    +0.001 A 
ATOM     23  C   LIG    1       24.985 -12.765   4.089  0.00  0.00    +0.014 A 
ATOM     24  C   LIG    1       25.813 -13.750   3.518  0.00  0.00    +0.081 A 
ATOM     25  C   LIG    1       25.472 -15.103   3.605  0.00  0.00    +0.084 A 
ATOM     26  N   LIG    1       26.316 -16.018   3.112  0.00  0.00    -0.254 NA
ATOM     27  C   LIG    1       25.976 -17.319   3.151  0.00  0.00    +0.113 A 
ATOM     28  C   LIG    1       24.782 -17.787   3.655  0.00  0.00    +0.043 A 
BRANCH  24  29
ATOM     29  C   LIG    1       27.045 -13.264   2.794  0.00  0.00    +0.419 C 
ATOM     30  F   LIG    1       28.080 -13.025   3.657  0.00  0.00    -0.166 F 
ATOM     31  F   LIG    1       26.818 -12.056   2.188  0.00  0.00    -0.166 F 
ATOM     32  F   LIG    1       27.566 -14.054   1.818  0.00  0.00    -0.166 F 
ENDBRANCH  24  29
ENDBRANCH  17  19
ENDBRANCH   2  17
TORSDOF 10
ENDMDL
MODEL 6
REMARK VINA RESULT:       0.1      4.383      7.058
REMARK  Name = *****
REMARK                            x       y       z     vdW  Elec       q    Type
REMARK                         _______ _______ _______ _____ _____    ______ ____
ROOT
ATOM      1  C   LIG    1       24.821 -12.858   3.607  0.00  0.00    +0.080 A 
ATOM      2  C   LIG    1       24.592 -14.228   3.884  0.00  0.00    +0.045 A 
ATOM      3  C   LIG    1       23.733 -14.504   4.957  0.00  0.00    +0.024 A 
ATOM      4  C   LIG    1       23.037 -13.491   5.638  0.00  0.00    +0.002 A 
ATOM      5  C   LIG    1       23.224 -12.158   5.299  0.00  0.00    +0.001 A 
ATOM      6  C   LIG    1       24.122 -11.837   4.294  0.00  0.00    +0.017 A 
ENDROOT
BRANCH   1   8
ATOM      7  O   LIG    1       25.667 -11.553   1.816  0.00  0.00    -0.245 OA
ATOM      8  C   LIG    1       25.853 -12.449   2.640  0.00  0.00    +0.341 C 
BRANCH   8   9
ATOM      9  O   LIG    1       26.917 -13.261   2.729  0.00  0.00    -0.458 OA
BRANCH   9  10
ATOM     10  C   LIG    1       28.188 -12.632   2.924  0.00  0.00    +0.266 C 
BRANCH  10  11
ATOM     11  C   LIG    1       28.850 -13.021   4.244  0.00  0.00    +0.177 C 
BRANCH  11  12
ATOM     12  O   LIG    1       29.113 -11.840   5.020  0.00  0.00    -0.386 OA
ATOM     13  H   LIG    1       30.007 -11.535   4.786  0.00  0.00    +0.210 HD
ENDBRANCH  11  12
BRANCH  11  14
ATOM     14  C   LIG    1       27.975 -13.956   5.081  0.00  0.00    +0.190 C 
BRANCH  14  15
ATOM     15  O   LIG    1       27.112 -13.182   5.916  0.00  0.00    -0.392 OA
ATOM     16  H   LIG    1       27.697 -12.508   6.314  0.00  0.00    +0.209 HD
ENDBRANCH  14  15
ENDBRANCH  11  14
ENDBRANCH  10  11
ENDBRANCH   9  10
ENDBRANCH   8   9
ENDBRANCH   1   8
BRANCH   2  17
ATOM     17  N   LIG    1       25.255 -15.297   3.202  0.00  0.00    -0.313 N 
ATOM     18  H   LIG    1       25.305 -15.144   2.186  0.00  0.00    +0.152 HD
BRANCH  17  19
ATOM     19  C   LIG    1       25.244 -16.705   3.494  0.00  0.00    +0.042 A 
ATOM     20  C   LIG    1       24.038 -17.382   3.880  0.00  0.00    +0.022 A 
ATOM     21  C   LIG    1       22.777 -16.747   3.977  0.00  0.00    +0.012 A 
ATOM     22  C   LIG    1       21.638 -17.435   4.402  0.00  0.00    +0.001 A 
ATOM     23  C   LIG    1       21.730 -18.781   4.716  0.00  0.00    +0.014 A 
ATOM     24  C   LIG    1       22.962 -19.454   4.606  0.00  0.00    +0.081 A 
ATOM     25  C   LIG    1       24.104 -18.779   4.167  0.00  0.00    +0.084 A 
ATOM     26  N   LIG    1       25.243 -19.465   4.008  0.00  0.00    -0.254 NA
ATOM     27  C   LIG    1       26.359 -18.815   3.628  0.00  0.00    +0.113 A 
ATOM     28  C   LIG    1       26.419 -17.456   3.408  0.00  0.00    +0.043 A 
BRANCH  24  29
ATOM     29  C   LIG    1       22.980 -20.908   5.015  0.00  0.00    +0.419 C 
ATOM     30  F   LIG    1       24.050 -21.572   4.479  0.00  0.00    -0.166 F 
ATOM     31  F   LIG    1       21.885 -21.571   4.526  0.00  0.00    -0.166 F 
ATOM     32  F   LIG    1       23.003 -21.198   6.342  0.00  0.00    -0.166 F 
ENDBRANCH  24  29
ENDBRANCH  17  19
ENDBRANCH   2  17
TORSDOF 10
ENDMDL
