MODEL 1
REMARK VINA RESULT:       0.4      0.000      0.000
REMARK  Name = *****
REMARK                            x       y       z     vdW  Elec       q    Type
REMARK                         _______ _______ _______ _____ _____    ______ ____
ROOT
ATOM      1  C   LIG    1       22.146 -30.814  12.494  0.00  0.00    +0.017 C 
ATOM      2  C   LIG    1       23.108 -30.499  13.500  0.00  0.00    +0.127 C 
ATOM      3  C   LIG    1       24.501 -30.574  13.239  0.00  0.00    +0.069 C 
ATOM      4  C   LIG    1       24.970 -30.944  11.996  0.00  0.00    +0.037 C 
ATOM      5  N   LIG    1       26.274 -31.084  11.567  0.00  0.00    -0.325 NA
ATOM      6  C   LIG    1       26.253 -31.342  10.113  0.00  0.00    +0.132 C 
ATOM      7  C   LIG    1       26.685 -30.121   9.195  0.00  0.00    +0.220 C 
ATOM      8  C   LIG    1       26.033 -30.063   7.737  0.00  0.00    +0.232 C 
ATOM      9  C   LIG    1       25.450 -31.458   7.317  0.00  0.00    +0.045 C 
ATOM     10  C   LIG    1       24.360 -31.760   8.411  0.00  0.00    +0.083 C 
ATOM     11  N   LIG    1       23.786 -33.053   8.036  0.00  0.00    -0.294 NA
ATOM     12  C   LIG    1       22.834 -32.920   6.954  0.00  0.00    +0.112 C 
ATOM     13  C   LIG    1       23.502 -32.153   5.830  0.00  0.00    -0.015 C 
ATOM     14  C   LIG    1       23.489 -33.825   9.212  0.00  0.00    +0.086 C 
ATOM     15  C   LIG    1       24.693 -33.444  10.078  0.00  0.00    +0.030 C 
ATOM     16  C   LIG    1       24.684 -31.513   5.965  0.00  0.00    -0.018 C 
ATOM     17  C   LIG    1       24.835 -31.916   9.848  0.00  0.00    +0.037 C 
ATOM     18  C   LIG    1       27.487 -30.913  12.325  0.00  0.00    +0.130 C 
ATOM     19  C   LIG    1       24.052 -31.272  10.997  0.00  0.00    -0.016 C 
ATOM     20  C   LIG    1       22.671 -31.193  11.222  0.00  0.00    +0.014 C 
ENDROOT
BRANCH   1  27
ATOM     21  C   LIG    1       16.807 -32.989  12.737  0.00  0.00    -0.059 C 
ATOM     22  C   LIG    1       16.284 -31.626  13.178  0.00  0.00    +0.115 C 
ATOM     23  N   LIG    1       17.424 -30.876  13.681  0.00  0.00    -0.294 NA
ATOM     24  C   LIG    1       17.400 -29.450  13.704  0.00  0.00    +0.122 C 
ATOM     25  C   LIG    1       18.822 -28.922  13.810  0.00  0.00    -0.004 C 
ATOM     26  C   LIG    1       20.072 -29.488  13.457  0.00  0.00    +0.043 C 
ATOM     27  C   LIG    1       20.533 -30.839  12.765  0.00  0.00    +0.136 C 
ATOM     28  C   LIG    1       20.253 -32.107  13.686  0.00  0.00    +0.038 C 
ATOM     29  C   LIG    1       18.866 -32.637  14.143  0.00  0.00    +0.027 C 
ATOM     30  N   LIG    1       21.018 -28.547  13.842  0.00  0.00    -0.356 NA
ATOM     31  H   LIG    1       22.015 -28.650  13.719  0.00  0.00    +0.166 HD
ATOM     32  C   LIG    1       20.443 -27.419  14.376  0.00  0.00    +0.047 C 
ATOM     33  C   LIG    1       21.028 -26.243  14.868  0.00  0.00    +0.026 C 
ATOM     34  C   LIG    1       20.176 -25.233  15.334  0.00  0.00    +0.002 C 
ATOM     35  C   LIG    1       18.794 -25.391  15.303  0.00  0.00    +0.001 C 
ATOM     36  C   LIG    1       18.232 -26.574  14.816  0.00  0.00    +0.010 C 
ATOM     37  C   LIG    1       19.070 -27.611  14.347  0.00  0.00    +0.004 C 
ATOM     38  C   LIG    1       18.030 -31.544  14.811  0.00  0.00    +0.092 C 
ATOM     39  C   LIG    1       18.043 -33.404  13.111  0.00  0.00    -0.022 C 
BRANCH  21  41
ATOM     40  C   LIG    1       16.335 -33.723  10.373  0.00  0.00    +0.008 C 
ATOM     41  C   LIG    1       15.928 -33.821  11.838  0.00  0.00    +0.028 C 
ENDBRANCH  21  41
BRANCH  27  42
ATOM     42  C   LIG    1       19.810 -31.104  11.412  0.00  0.00    +0.324 C 
ATOM     43  O   LIG    1       19.126 -30.249  10.847  0.00  0.00    -0.249 OA
BRANCH  42  44
ATOM     44  O   LIG    1       19.955 -32.377  10.944  0.00  0.00    -0.467 OA
ATOM     45  C   LIG    1       19.450 -32.629   9.632  0.00  0.00    +0.280 C 
ENDBRANCH  42  44
ENDBRANCH  27  42
ENDBRANCH   1  27
BRANCH   2  46
ATOM     46  O   LIG    1       22.657 -30.179  14.758  0.00  0.00    -0.495 OA
ATOM     47  C   LIG    1       23.498 -29.291  15.500  0.00  0.00    +0.277 C 
ENDBRANCH   2  46
BRANCH   7  48
ATOM     48  C   LIG    1       26.599 -28.732   9.848  0.00  0.00    +0.345 C 
ATOM     49  O   LIG    1       26.854 -27.694   9.236  0.00  0.00    -0.247 OA
BRANCH  48  50
ATOM     50  O   LIG    1       26.088 -28.793  11.094  0.00  0.00    -0.466 OA
ATOM     51  C   LIG    1       26.557 -27.840  12.036  0.00  0.00    +0.280 C 
ENDBRANCH  48  50
ENDBRANCH   7  48
BRANCH   7  52
ATOM     52  O   LIG    1       28.130 -30.313   8.969  0.00  0.00    -0.373 OA
ATOM     53  H   LIG    1       28.501 -30.657   9.810  0.00  0.00    +0.211 HD
ENDBRANCH   7  52
BRANCH   9  54
ATOM     54  C   LIG    1       26.588 -32.529   7.172  0.00  0.00    +0.013 C 
ATOM     55  C   LIG    1       27.119 -32.755   5.753  0.00  0.00    +0.005 C 
ENDBRANCH   9  54
BRANCH   8  56
ATOM     56  O   LIG    1       24.931 -29.104   7.633  0.00  0.00    -0.457 OA
BRANCH  56  57
ATOM     57  C   LIG    1       24.902 -28.362   6.486  0.00  0.00    +0.304 C 
ATOM     58  O   LIG    1       24.712 -28.825   5.348  0.00  0.00    -0.251 OA
ATOM     59  C   LIG    1       24.931 -26.894   6.782  0.00  0.00    +0.136 C 
ENDBRANCH  56  57
ENDBRANCH   8  56
TORSDOF 11
ENDMDL
MODEL 2
REMARK VINA RESULT:       0.7      2.907      9.541
REMARK  Name = *****
REMARK                            x       y       z     vdW  Elec       q    Type
REMARK                         _______ _______ _______ _____ _____    ______ ____
ROOT
ATOM      1  C   LIG    1       24.870 -29.783   8.524  0.00  0.00    +0.017 C 
ATOM      2  C   LIG    1       24.355 -31.114   8.562  0.00  0.00    +0.127 C 
ATOM      3  C   LIG    1       24.209 -31.814   9.787  0.00  0.00    +0.069 C 
ATOM      4  C   LIG    1       24.551 -31.223  10.986  0.00  0.00    +0.037 C 
ATOM      5  N   LIG    1       24.490 -31.749  12.260  0.00  0.00    -0.325 NA
ATOM      6  C   LIG    1       24.813 -30.670  13.216  0.00  0.00    +0.132 C 
ATOM      7  C   LIG    1       23.578 -30.077  14.020  0.00  0.00    +0.220 C 
ATOM      8  C   LIG    1       23.695 -28.548  14.472  0.00  0.00    +0.232 C 
ATOM      9  C   LIG    1       25.184 -28.056  14.444  0.00  0.00    +0.045 C 
ATOM     10  C   LIG    1       25.614 -28.233  12.941  0.00  0.00    +0.083 C 
ATOM     11  N   LIG    1       27.000 -27.766  12.879  0.00  0.00    -0.294 NA
ATOM     12  C   LIG    1       27.076 -26.322  12.854  0.00  0.00    +0.112 C 
ATOM     13  C   LIG    1       26.259 -25.787  14.013  0.00  0.00    -0.015 C 
ATOM     14  C   LIG    1       27.758 -28.578  11.966  0.00  0.00    +0.086 C 
ATOM     15  C   LIG    1       27.144 -29.947  12.271  0.00  0.00    +0.030 C 
ATOM     16  C   LIG    1       25.425 -26.552  14.753  0.00  0.00    -0.018 C 
ATOM     17  C   LIG    1       25.625 -29.647  12.377  0.00  0.00    +0.037 C 
ATOM     18  C   LIG    1       24.086 -33.072  12.663  0.00  0.00    +0.130 C 
ATOM     19  C   LIG    1       25.070 -29.928  10.977  0.00  0.00    -0.016 C 
ATOM     20  C   LIG    1       25.212 -29.208   9.784  0.00  0.00    +0.014 C 
ENDROOT
BRANCH   1  27
ATOM     21  C   LIG    1       25.389 -25.221   5.029  0.00  0.00    -0.059 C 
ATOM     22  C   LIG    1       25.676 -26.161   3.863  0.00  0.00    +0.115 C 
ATOM     23  N   LIG    1       26.083 -27.435   4.434  0.00  0.00    -0.294 NA
ATOM     24  C   LIG    1       25.945 -28.642   3.686  0.00  0.00    +0.122 C 
ATOM     25  C   LIG    1       25.983 -29.830   4.634  0.00  0.00    -0.004 C 
ATOM     26  C   LIG    1       25.689 -29.951   6.015  0.00  0.00    +0.043 C 
ATOM     27  C   LIG    1       25.151 -28.964   7.135  0.00  0.00    +0.136 C 
ATOM     28  C   LIG    1       26.212 -27.832   7.491  0.00  0.00    +0.038 C 
ATOM     29  C   LIG    1       26.734 -26.716   6.544  0.00  0.00    +0.027 C 
ATOM     30  N   LIG    1       25.959 -31.277   6.329  0.00  0.00    -0.356 NA
ATOM     31  H   LIG    1       25.843 -31.686   7.244  0.00  0.00    +0.166 HD
ATOM     32  C   LIG    1       26.365 -31.999   5.233  0.00  0.00    +0.047 C 
ATOM     33  C   LIG    1       26.718 -33.351   5.111  0.00  0.00    +0.026 C 
ATOM     34  C   LIG    1       27.071 -33.824   3.841  0.00  0.00    +0.002 C 
ATOM     35  C   LIG    1       27.066 -32.980   2.736  0.00  0.00    +0.001 C 
ATOM     36  C   LIG    1       26.719 -31.634   2.880  0.00  0.00    +0.010 C 
ATOM     37  C   LIG    1       26.366 -31.130   4.152  0.00  0.00    +0.004 C 
ATOM     38  C   LIG    1       27.279 -27.288   5.234  0.00  0.00    +0.092 C 
ATOM     39  C   LIG    1       25.801 -25.537   6.282  0.00  0.00    -0.022 C 
BRANCH  21  41
ATOM     40  C   LIG    1       24.161 -23.254   6.017  0.00  0.00    +0.008 C 
ATOM     41  C   LIG    1       24.596 -23.971   4.744  0.00  0.00    +0.028 C 
ENDBRANCH  21  41
BRANCH  27  42
ATOM     42  C   LIG    1       23.842 -28.232   6.721  0.00  0.00    +0.324 C 
ATOM     43  O   LIG    1       23.605 -27.066   7.041  0.00  0.00    -0.249 OA
BRANCH  42  44
ATOM     44  O   LIG    1       22.963 -29.013   6.030  0.00  0.00    -0.467 OA
ATOM     45  C   LIG    1       23.351 -29.381   4.706  0.00  0.00    +0.280 C 
ENDBRANCH  42  44
ENDBRANCH  27  42
ENDBRANCH   1  27
BRANCH   2  46
ATOM     46  O   LIG    1       24.060 -31.734   7.372  0.00  0.00    -0.495 OA
ATOM     47  C   LIG    1       23.487 -33.039   7.490  0.00  0.00    +0.277 C 
ENDBRANCH   2  46
BRANCH   7  48
ATOM     48  C   LIG    1       22.195 -30.320  13.394  0.00  0.00    +0.345 C 
ATOM     49  O   LIG    1       21.921 -29.988  12.240  0.00  0.00    -0.247 OA
BRANCH  48  50
ATOM     50  O   LIG    1       21.400 -31.048  14.202  0.00  0.00    -0.466 OA
ATOM     51  C   LIG    1       20.308 -30.376  14.814  0.00  0.00    +0.280 C 
ENDBRANCH  48  50
ENDBRANCH   7  48
BRANCH   7  52
ATOM     52  O   LIG    1       23.537 -30.852  15.273  0.00  0.00    -0.373 OA
ATOM     53  H   LIG    1       24.410 -30.730  15.706  0.00  0.00    +0.211 HD
ENDBRANCH   7  52
BRANCH   9  54
ATOM     54  C   LIG    1       26.056 -28.823  15.499  0.00  0.00    +0.013 C 
ATOM     55  C   LIG    1       27.566 -28.575  15.428  0.00  0.00    +0.005 C 
ENDBRANCH   9  54
BRANCH   8  56
ATOM     56  O   LIG    1       22.938 -27.632  13.617  0.00  0.00    -0.457 OA
BRANCH  56  57
ATOM     57  C   LIG    1       21.909 -26.971  14.227  0.00  0.00    +0.304 C 
ATOM     58  O   LIG    1       21.971 -26.452  15.355  0.00  0.00    -0.251 OA
ATOM     59  C   LIG    1       20.755 -26.772  13.293  0.00  0.00    +0.136 C 
ENDBRANCH  56  57
ENDBRANCH   8  56
TORSDOF 11
ENDMDL
MODEL 3
REMARK VINA RESULT:       1.1      2.950      8.565
REMARK  Name = *****
REMARK                            x       y       z     vdW  Elec       q    Type
REMARK                         _______ _______ _______ _____ _____    ______ ____
ROOT
ATOM      1  C   LIG    1       24.907 -31.467   8.876  0.00  0.00    +0.017 C 
ATOM      2  C   LIG    1       24.350 -32.686   9.367  0.00  0.00    +0.127 C 
ATOM      3  C   LIG    1       24.142 -32.897  10.755  0.00  0.00    +0.069 C 
ATOM      4  C   LIG    1       24.462 -31.920  11.675  0.00  0.00    +0.037 C 
ATOM      5  N   LIG    1       24.344 -31.953  13.049  0.00  0.00    -0.325 NA
ATOM      6  C   LIG    1       24.667 -30.608  13.568  0.00  0.00    +0.132 C 
ATOM      7  C   LIG    1       23.426 -29.746  14.054  0.00  0.00    +0.220 C 
ATOM      8  C   LIG    1       23.574 -28.158  13.933  0.00  0.00    +0.232 C 
ATOM      9  C   LIG    1       25.078 -27.735  13.793  0.00  0.00    +0.045 C 
ATOM     10  C   LIG    1       25.551 -28.447  12.473  0.00  0.00    +0.083 C 
ATOM     11  N   LIG    1       26.952 -28.056  12.306  0.00  0.00    -0.294 NA
ATOM     12  C   LIG    1       27.073 -26.719  11.768  0.00  0.00    +0.112 C 
ATOM     13  C   LIG    1       26.235 -25.789  12.624  0.00  0.00    -0.015 C 
ATOM     14  C   LIG    1       27.715 -29.154  11.776  0.00  0.00    +0.086 C 
ATOM     15  C   LIG    1       27.050 -30.312  12.525  0.00  0.00    +0.030 C 
ATOM     16  C   LIG    1       25.354 -26.224  13.553  0.00  0.00    -0.018 C 
ATOM     17  C   LIG    1       25.538 -29.969  12.454  0.00  0.00    +0.037 C 
ATOM     18  C   LIG    1       23.886 -33.036  13.882  0.00  0.00    +0.130 C 
ATOM     19  C   LIG    1       25.021 -30.724  11.225  0.00  0.00    -0.016 C 
ATOM     20  C   LIG    1       25.224 -30.483   9.860  0.00  0.00    +0.014 C 
ENDROOT
BRANCH   1  27
ATOM     21  C   LIG    1       25.713 -32.736   3.306  0.00  0.00    -0.059 C 
ATOM     22  C   LIG    1       26.122 -31.291   3.047  0.00  0.00    +0.115 C 
ATOM     23  N   LIG    1       25.614 -30.500   4.156  0.00  0.00    -0.294 NA
ATOM     24  C   LIG    1       26.215 -29.250   4.491  0.00  0.00    +0.122 C 
ATOM     25  C   LIG    1       25.836 -28.873   5.914  0.00  0.00    -0.004 C 
ATOM     26  C   LIG    1       25.432 -29.652   7.026  0.00  0.00    +0.043 C 
ATOM     27  C   LIG    1       25.258 -31.205   7.300  0.00  0.00    +0.136 C 
ATOM     28  C   LIG    1       24.054 -31.827   6.464  0.00  0.00    +0.038 C 
ATOM     29  C   LIG    1       23.953 -31.933   4.917  0.00  0.00    +0.027 C 
ATOM     30  N   LIG    1       25.174 -28.736   8.037  0.00  0.00    -0.356 NA
ATOM     31  H   LIG    1       24.869 -28.978   8.969  0.00  0.00    +0.166 HD
ATOM     32  C   LIG    1       25.424 -27.443   7.645  0.00  0.00    +0.047 C 
ATOM     33  C   LIG    1       25.308 -26.237   8.351  0.00  0.00    +0.026 C 
ATOM     34  C   LIG    1       25.665 -25.055   7.691  0.00  0.00    +0.002 C 
ATOM     35  C   LIG    1       26.125 -25.078   6.378  0.00  0.00    +0.001 C 
ATOM     36  C   LIG    1       26.225 -26.290   5.690  0.00  0.00    +0.010 C 
ATOM     37  C   LIG    1       25.864 -27.496   6.331  0.00  0.00    +0.004 C 
ATOM     38  C   LIG    1       24.173 -30.582   4.237  0.00  0.00    +0.092 C 
ATOM     39  C   LIG    1       24.777 -33.027   4.243  0.00  0.00    -0.022 C 
BRANCH  21  41
ATOM     40  C   LIG    1       27.932 -33.635   2.518  0.00  0.00    +0.008 C 
ATOM     41  C   LIG    1       26.419 -33.816   2.526  0.00  0.00    +0.028 C 
ENDBRANCH  21  41
BRANCH  27  42
ATOM     42  C   LIG    1       26.526 -32.031   6.934  0.00  0.00    +0.324 C 
ATOM     43  O   LIG    1       26.888 -32.210   5.770  0.00  0.00    -0.249 OA
BRANCH  42  44
ATOM     44  O   LIG    1       27.159 -32.584   8.008  0.00  0.00    -0.467 OA
ATOM     45  C   LIG    1       27.969 -33.730   7.744  0.00  0.00    +0.280 C 
ENDBRANCH  42  44
ENDBRANCH  27  42
ENDBRANCH   1  27
BRANCH   2  46
ATOM     46  O   LIG    1       24.075 -33.687   8.466  0.00  0.00    -0.495 OA
ATOM     47  C   LIG    1       22.697 -33.824   8.110  0.00  0.00    +0.277 C 
ENDBRANCH   2  46
BRANCH   7  48
ATOM     48  C   LIG    1       22.057 -30.174  13.499  0.00  0.00    +0.345 C 
ATOM     49  O   LIG    1       21.815 -30.222  12.293  0.00  0.00    -0.247 OA
BRANCH  48  50
ATOM     50  O   LIG    1       21.235 -30.612  14.474  0.00  0.00    -0.466 OA
ATOM     51  C   LIG    1       20.101 -29.811  14.774  0.00  0.00    +0.280 C 
ENDBRANCH  48  50
ENDBRANCH   7  48
BRANCH   7  52
ATOM     52  O   LIG    1       23.319 -30.019  15.499  0.00  0.00    -0.373 OA
ATOM     53  H   LIG    1       23.061 -30.962  15.586  0.00  0.00    +0.211 HD
ENDBRANCH   7  52
BRANCH   9  54
ATOM     54  C   LIG    1       25.891 -28.086  15.089  0.00  0.00    +0.013 C 
ATOM     55  C   LIG    1       27.282 -27.454  15.198  0.00  0.00    +0.005 C 
ENDBRANCH   9  54
BRANCH   8  56
ATOM     56  O   LIG    1       22.874 -27.598  12.776  0.00  0.00    -0.457 OA
BRANCH  56  57
ATOM     57  C   LIG    1       21.704 -26.947  13.053  0.00  0.00    +0.304 C 
ATOM     58  O   LIG    1       20.613 -27.190  12.509  0.00  0.00    -0.251 OA
ATOM     59  C   LIG    1       21.850 -26.038  14.234  0.00  0.00    +0.136 C 
ENDBRANCH  56  57
ENDBRANCH   8  56
TORSDOF 11
ENDMDL
