MODEL 1
REMARK VINA RESULT:      -8.0      0.000      0.000
REMARK  Name = *****
REMARK                            x       y       z     vdW  Elec       q    Type
REMARK                         _______ _______ _______ _____ _____    ______ ____
ROOT
ATOM      1  C   LIG    1       28.056 -19.439   5.579  0.00  0.00    +0.141 C 
ATOM      2  N   LIG    1       27.203 -20.247   6.417  0.00  0.00    -0.244 N 
ATOM      3  C   LIG    1       26.045 -20.813   5.965  0.00  0.00    +0.232 C 
ATOM      4  O   LIG    1       25.617 -20.718   4.822  0.00  0.00    -0.274 OA
ATOM      5  C   LIG    1       25.331 -21.494   7.128  0.00  0.00    +0.078 C 
ATOM      6  C   LIG    1       24.091 -20.625   7.424  0.00  0.00    +0.026 C 
ATOM      7  C   LIG    1       26.360 -21.381   8.269  0.00  0.00    +0.117 C 
ATOM      8  C   LIG    1       27.413 -20.454   7.745  0.00  0.00    +0.223 C 
ATOM      9  O   LIG    1       28.317 -19.993   8.425  0.00  0.00    -0.275 OA
ENDROOT
BRANCH   5  10
ATOM     10  C   LIG    1       24.957 -22.961   6.908  0.00  0.00    -0.032 A 
ATOM     11  C   LIG    1       23.632 -23.377   6.691  0.00  0.00    +0.005 A 
ATOM     12  C   LIG    1       23.326 -24.722   6.463  0.00  0.00    +0.000 A 
ATOM     13  C   LIG    1       24.337 -25.677   6.441  0.00  0.00    +0.000 A 
ATOM     14  C   LIG    1       25.656 -25.290   6.645  0.00  0.00    +0.000 A 
ATOM     15  C   LIG    1       25.963 -23.945   6.870  0.00  0.00    +0.005 A 
ENDBRANCH   5  10
TORSDOF 1
ENDMDL
MODEL 2
REMARK VINA RESULT:      -7.9      2.724      4.990
REMARK  Name = *****
REMARK                            x       y       z     vdW  Elec       q    Type
REMARK                         _______ _______ _______ _____ _____    ______ ____
ROOT
ATOM      1  C   LIG    1       26.023 -24.677   6.657  0.00  0.00    +0.141 C 
ATOM      2  N   LIG    1       24.993 -23.668   6.596  0.00  0.00    -0.244 N 
ATOM      3  C   LIG    1       25.267 -22.330   6.622  0.00  0.00    +0.232 C 
ATOM      4  O   LIG    1       26.389 -21.844   6.681  0.00  0.00    -0.274 OA
ATOM      5  C   LIG    1       23.958 -21.549   6.665  0.00  0.00    +0.078 C 
ATOM      6  C   LIG    1       23.870 -20.954   8.085  0.00  0.00    +0.026 C 
ATOM      7  C   LIG    1       22.900 -22.652   6.472  0.00  0.00    +0.117 C 
ATOM      8  C   LIG    1       23.659 -23.938   6.595  0.00  0.00    +0.223 C 
ATOM      9  O   LIG    1       23.134 -25.038   6.659  0.00  0.00    -0.275 OA
ENDROOT
BRANCH   5  10
ATOM     10  C   LIG    1       23.791 -20.475   5.589  0.00  0.00    -0.032 A 
ATOM     11  C   LIG    1       24.758 -20.247   4.595  0.00  0.00    +0.005 A 
ATOM     12  C   LIG    1       24.563 -19.279   3.605  0.00  0.00    +0.000 A 
ATOM     13  C   LIG    1       23.396 -18.523   3.585  0.00  0.00    +0.000 A 
ATOM     14  C   LIG    1       22.420 -18.735   4.552  0.00  0.00    +0.000 A 
ATOM     15  C   LIG    1       22.613 -19.705   5.540  0.00  0.00    +0.005 A 
ENDBRANCH   5  10
TORSDOF 1
ENDMDL
MODEL 3
REMARK VINA RESULT:      -7.5      1.175      1.523
REMARK  Name = *****
REMARK                            x       y       z     vdW  Elec       q    Type
REMARK                         _______ _______ _______ _____ _____    ______ ____
ROOT
ATOM      1  C   LIG    1       26.663 -19.928   5.493  0.00  0.00    +0.141 C 
ATOM      2  N   LIG    1       26.132 -21.020   6.273  0.00  0.00    -0.244 N 
ATOM      3  C   LIG    1       25.237 -21.920   5.771  0.00  0.00    +0.232 C 
ATOM      4  O   LIG    1       24.805 -21.917   4.625  0.00  0.00    -0.274 OA
ATOM      5  C   LIG    1       24.791 -22.862   6.885  0.00  0.00    +0.078 C 
ATOM      6  C   LIG    1       23.330 -22.481   7.197  0.00  0.00    +0.026 C 
ATOM      7  C   LIG    1       25.717 -22.467   8.051  0.00  0.00    +0.117 C 
ATOM      8  C   LIG    1       26.395 -21.211   7.595  0.00  0.00    +0.223 C 
ATOM      9  O   LIG    1       27.087 -20.507   8.314  0.00  0.00    -0.275 OA
ENDROOT
BRANCH   5  10
ATOM     10  C   LIG    1       24.938 -24.355   6.588  0.00  0.00    -0.032 A 
ATOM     11  C   LIG    1       23.850 -25.159   6.209  0.00  0.00    +0.005 A 
ATOM     12  C   LIG    1       24.022 -26.516   5.914  0.00  0.00    +0.000 A 
ATOM     13  C   LIG    1       25.285 -27.094   5.987  0.00  0.00    +0.000 A 
ATOM     14  C   LIG    1       26.379 -26.318   6.351  0.00  0.00    +0.000 A 
ATOM     15  C   LIG    1       26.208 -24.961   6.642  0.00  0.00    +0.005 A 
ENDBRANCH   5  10
TORSDOF 1
ENDMDL
MODEL 4
REMARK VINA RESULT:      -7.2      1.955      5.104
REMARK  Name = *****
REMARK                            x       y       z     vdW  Elec       q    Type
REMARK                         _______ _______ _______ _____ _____    ______ ____
ROOT
ATOM      1  C   LIG    1       24.787 -24.020   5.222  0.00  0.00    +0.141 C 
ATOM      2  N   LIG    1       25.137 -22.665   5.573  0.00  0.00    -0.244 N 
ATOM      3  C   LIG    1       25.994 -22.365   6.594  0.00  0.00    +0.232 C 
ATOM      4  O   LIG    1       26.562 -23.188   7.300  0.00  0.00    -0.274 OA
ATOM      5  C   LIG    1       26.051 -20.851   6.773  0.00  0.00    +0.078 C 
ATOM      6  C   LIG    1       25.316 -20.558   8.097  0.00  0.00    +0.026 C 
ATOM      7  C   LIG    1       25.234 -20.338   5.572  0.00  0.00    +0.117 C 
ATOM      8  C   LIG    1       24.593 -21.562   4.992  0.00  0.00    +0.223 C 
ATOM      9  O   LIG    1       23.738 -21.538   4.121  0.00  0.00    -0.275 OA
ENDROOT
BRANCH   5  10
ATOM     10  C   LIG    1       27.450 -20.233   6.752  0.00  0.00    -0.032 A 
ATOM     11  C   LIG    1       27.985 -19.617   5.608  0.00  0.00    +0.005 A 
ATOM     12  C   LIG    1       29.256 -19.034   5.629  0.00  0.00    +0.000 A 
ATOM     13  C   LIG    1       30.015 -19.050   6.794  0.00  0.00    +0.000 A 
ATOM     14  C   LIG    1       29.505 -19.646   7.941  0.00  0.00    +0.000 A 
ATOM     15  C   LIG    1       28.233 -20.226   7.922  0.00  0.00    +0.005 A 
ENDBRANCH   5  10
TORSDOF 1
ENDMDL
MODEL 5
REMARK VINA RESULT:      -6.9      2.336      3.207
REMARK  Name = *****
REMARK                            x       y       z     vdW  Elec       q    Type
REMARK                         _______ _______ _______ _____ _____    ______ ____
ROOT
ATOM      1  C   LIG    1       22.515 -19.125   4.480  0.00  0.00    +0.141 C 
ATOM      2  N   LIG    1       23.682 -19.869   4.888  0.00  0.00    -0.244 N 
ATOM      3  C   LIG    1       23.654 -20.795   5.892  0.00  0.00    +0.232 C 
ATOM      4  O   LIG    1       22.658 -21.105   6.534  0.00  0.00    -0.274 OA
ATOM      5  C   LIG    1       25.069 -21.302   6.148  0.00  0.00    +0.078 C 
ATOM      6  C   LIG    1       25.487 -20.712   7.510  0.00  0.00    +0.026 C 
ATOM      7  C   LIG    1       25.872 -20.654   5.004  0.00  0.00    +0.117 C 
ATOM      8  C   LIG    1       24.930 -19.668   4.384  0.00  0.00    +0.223 C 
ATOM      9  O   LIG    1       25.257 -18.843   3.545  0.00  0.00    -0.275 OA
ENDROOT
BRANCH   5  10
ATOM     10  C   LIG    1       25.245 -22.821   6.110  0.00  0.00    -0.032 A 
ATOM     11  C   LIG    1       25.772 -23.547   7.192  0.00  0.00    +0.005 A 
ATOM     12  C   LIG    1       25.891 -24.939   7.138  0.00  0.00    +0.000 A 
ATOM     13  C   LIG    1       25.482 -25.635   6.005  0.00  0.00    +0.000 A 
ATOM     14  C   LIG    1       24.950 -24.941   4.925  0.00  0.00    +0.000 A 
ATOM     15  C   LIG    1       24.828 -23.549   4.979  0.00  0.00    +0.005 A 
ENDBRANCH   5  10
TORSDOF 1
ENDMDL
MODEL 6
REMARK VINA RESULT:      -6.9      2.677      4.479
REMARK  Name = *****
REMARK                            x       y       z     vdW  Elec       q    Type
REMARK                         _______ _______ _______ _____ _____    ______ ____
ROOT
ATOM      1  C   LIG    1       26.714 -22.587   8.674  0.00  0.00    +0.141 C 
ATOM      2  N   LIG    1       25.754 -22.523   7.599  0.00  0.00    -0.244 N 
ATOM      3  C   LIG    1       24.773 -21.575   7.540  0.00  0.00    +0.232 C 
ATOM      4  O   LIG    1       24.607 -20.683   8.362  0.00  0.00    -0.274 OA
ATOM      5  C   LIG    1       23.864 -21.865   6.349  0.00  0.00    +0.078 C 
ATOM      6  C   LIG    1       22.530 -22.355   6.949  0.00  0.00    +0.026 C 
ATOM      7  C   LIG    1       24.598 -23.018   5.638  0.00  0.00    +0.117 C 
ATOM      8  C   LIG    1       25.673 -23.437   6.594  0.00  0.00    +0.223 C 
ATOM      9  O   LIG    1       26.364 -24.433   6.451  0.00  0.00    -0.275 OA
ENDROOT
BRANCH   5  10
ATOM     10  C   LIG    1       23.656 -20.703   5.376  0.00  0.00    -0.032 A 
ATOM     11  C   LIG    1       22.508 -19.894   5.403  0.00  0.00    +0.005 A 
ATOM     12  C   LIG    1       22.361 -18.819   4.520  0.00  0.00    +0.000 A 
ATOM     13  C   LIG    1       23.360 -18.528   3.598  0.00  0.00    +0.000 A 
ATOM     14  C   LIG    1       24.510 -19.308   3.558  0.00  0.00    +0.000 A 
ATOM     15  C   LIG    1       24.659 -20.381   4.442  0.00  0.00    +0.005 A 
ENDBRANCH   5  10
TORSDOF 1
ENDMDL
MODEL 7
REMARK VINA RESULT:      -6.8      2.462      3.682
REMARK  Name = *****
REMARK                            x       y       z     vdW  Elec       q    Type
REMARK                         _______ _______ _______ _____ _____    ______ ____
ROOT
ATOM      1  C   LIG    1       29.196 -18.996   8.894  0.00  0.00    +0.141 C 
ATOM      2  N   LIG    1       28.481 -19.688   7.849  0.00  0.00    -0.244 N 
ATOM      3  C   LIG    1       27.263 -20.273   8.050  0.00  0.00    +0.232 C 
ATOM      4  O   LIG    1       26.645 -20.264   9.107  0.00  0.00    -0.274 OA
ATOM      5  C   LIG    1       26.847 -21.016   6.784  0.00  0.00    +0.078 C 
ATOM      6  C   LIG    1       26.960 -22.516   7.123  0.00  0.00    +0.026 C 
ATOM      7  C   LIG    1       27.937 -20.602   5.777  0.00  0.00    +0.117 C 
ATOM      8  C   LIG    1       28.975 -19.902   6.599  0.00  0.00    +0.223 C 
ATOM      9  O   LIG    1       30.071 -19.569   6.177  0.00  0.00    -0.275 OA
ENDROOT
BRANCH   5  10
ATOM     10  C   LIG    1       25.466 -20.661   6.231  0.00  0.00    -0.032 A 
ATOM     11  C   LIG    1       24.291 -20.799   6.990  0.00  0.00    +0.005 A 
ATOM     12  C   LIG    1       23.046 -20.436   6.466  0.00  0.00    +0.000 A 
ATOM     13  C   LIG    1       22.950 -19.923   5.177  0.00  0.00    +0.000 A 
ATOM     14  C   LIG    1       24.099 -19.769   4.410  0.00  0.00    +0.000 A 
ATOM     15  C   LIG    1       25.344 -20.128   4.933  0.00  0.00    +0.005 A 
ENDBRANCH   5  10
TORSDOF 1
ENDMDL
MODEL 8
REMARK VINA RESULT:      -6.6      2.333      4.919
REMARK  Name = *****
REMARK                            x       y       z     vdW  Elec       q    Type
REMARK                         _______ _______ _______ _____ _____    ______ ____
ROOT
ATOM      1  C   LIG    1       24.018 -25.725   6.136  0.00  0.00    +0.141 C 
ATOM      2  N   LIG    1       24.223 -24.347   6.514  0.00  0.00    -0.244 N 
ATOM      3  C   LIG    1       25.463 -23.817   6.729  0.00  0.00    +0.232 C 
ATOM      4  O   LIG    1       26.518 -24.427   6.611  0.00  0.00    -0.274 OA
ATOM      5  C   LIG    1       25.317 -22.383   7.229  0.00  0.00    +0.078 C 
ATOM      6  C   LIG    1       25.726 -22.414   8.716  0.00  0.00    +0.026 C 
ATOM      7  C   LIG    1       23.805 -22.128   7.086  0.00  0.00    +0.117 C 
ATOM      8  C   LIG    1       23.216 -23.471   6.779  0.00  0.00    +0.223 C 
ATOM      9  O   LIG    1       22.017 -23.703   6.755  0.00  0.00    -0.275 OA
ENDROOT
BRANCH   5  10
ATOM     10  C   LIG    1       26.099 -21.326   6.448  0.00  0.00    -0.032 A 
ATOM     11  C   LIG    1       25.557 -20.657   5.337  0.00  0.00    +0.005 A 
ATOM     12  C   LIG    1       26.286 -19.672   4.662  0.00  0.00    +0.000 A 
ATOM     13  C   LIG    1       27.566 -19.333   5.085  0.00  0.00    +0.000 A 
ATOM     14  C   LIG    1       28.120 -19.974   6.187  0.00  0.00    +0.000 A 
ATOM     15  C   LIG    1       27.392 -20.956   6.865  0.00  0.00    +0.005 A 
ENDBRANCH   5  10
TORSDOF 1
ENDMDL
MODEL 9
REMARK VINA RESULT:      -6.4      4.358      6.481
REMARK  Name = *****
REMARK                            x       y       z     vdW  Elec       q    Type
REMARK                         _______ _______ _______ _____ _____    ______ ____
ROOT
ATOM      1  C   LIG    1       24.073 -30.201   6.627  0.00  0.00    +0.141 C 
ATOM      2  N   LIG    1       24.795 -28.970   6.844  0.00  0.00    -0.244 N 
ATOM      3  C   LIG    1       24.746 -27.922   5.970  0.00  0.00    +0.232 C 
ATOM      4  O   LIG    1       24.088 -27.898   4.937  0.00  0.00    -0.274 OA
ATOM      5  C   LIG    1       25.711 -26.835   6.434  0.00  0.00    +0.078 C 
ATOM      6  C   LIG    1       26.876 -26.851   5.424  0.00  0.00    +0.026 C 
ATOM      7  C   LIG    1       26.173 -27.358   7.807  0.00  0.00    +0.117 C 
ATOM      8  C   LIG    1       25.654 -28.762   7.878  0.00  0.00    +0.223 C 
ATOM      9  O   LIG    1       25.956 -29.559   8.752  0.00  0.00    -0.275 OA
ENDROOT
BRANCH   5  10
ATOM     10  C   LIG    1       25.110 -25.437   6.586  0.00  0.00    -0.032 A 
ATOM     11  C   LIG    1       23.732 -25.190   6.459  0.00  0.00    +0.005 A 
ATOM     12  C   LIG    1       23.209 -23.905   6.635  0.00  0.00    +0.000 A 
ATOM     13  C   LIG    1       24.051 -22.842   6.946  0.00  0.00    +0.000 A 
ATOM     14  C   LIG    1       25.416 -23.062   7.086  0.00  0.00    +0.000 A 
ATOM     15  C   LIG    1       25.939 -24.347   6.914  0.00  0.00    +0.005 A 
ENDBRANCH   5  10
TORSDOF 1
ENDMDL
