MODEL 1
REMARK VINA RESULT:      -3.6      0.000      0.000
REMARK  Name = *****
REMARK                            x       y       z     vdW  Elec       q    Type
REMARK                         _______ _______ _______ _____ _____    ______ ____
ROOT
ATOM      1  C   LIG    1       24.005 -19.414   4.080  0.00  0.00    +0.286 C 
ATOM      2  N   LIG    1       25.131 -20.129   4.493  0.00  0.00    -0.119 NA
ATOM      3  O   LIG    1       25.003 -21.348   4.903  0.00  0.00    -0.616 OA
ATOM      4  C   LIG    1       26.377 -19.497   4.454  0.00  0.00    +0.386 C 
ATOM      5  N   LIG    1       26.496 -18.205   4.057  0.00  0.00    -0.156 NA
ATOM      6  C   LIG    1       25.408 -17.517   3.648  0.00  0.00    +0.137 C 
ATOM      7  C   LIG    1       24.146 -18.097   3.658  0.00  0.00    +0.141 C 
ENDROOT
BRANCH   6   8
ATOM      8  N   LIG    1       25.543 -16.170   3.247  0.00  0.00    -0.315 NA
ATOM      9  C   LIG    1       26.921 -15.667   3.399  0.00  0.00    +0.106 C 
ATOM     10  C   LIG    1       27.040 -14.283   2.760  0.00  0.00    +0.019 C 
ATOM     11  C   LIG    1       26.006 -13.316   3.328  0.00  0.00    +0.003 C 
ATOM     12  C   LIG    1       24.603 -13.901   3.209  0.00  0.00    +0.019 C 
ATOM     13  C   LIG    1       24.527 -15.288   3.849  0.00  0.00    +0.106 C 
ENDBRANCH   6   8
BRANCH   1  14
ATOM     14  N   LIG    1       22.728 -20.026   4.150  0.00  0.00    -0.304 NA
ATOM     15  H   LIG    1       22.261 -19.615   4.970  0.00  0.00    +0.148 HD
ATOM     16  H   LIG    1       22.784 -21.037   4.228  0.00  0.00    +0.148 HD
ENDBRANCH   1  14
BRANCH   4  17
ATOM     17  N   LIG    1       27.528 -20.187   4.854  0.00  0.00    -0.287 NA
ATOM     18  H   LIG    1       28.005 -20.545   4.028  0.00  0.00    +0.149 HD
ATOM     19  H   LIG    1       27.323 -20.840   5.600  0.00  0.00    +0.149 HD
ENDBRANCH   4  17
TORSDOF 3
ENDMDL
MODEL 2
REMARK VINA RESULT:      -3.5      1.011      1.042
REMARK  Name = *****
REMARK                            x       y       z     vdW  Elec       q    Type
REMARK                         _______ _______ _______ _____ _____    ______ ____
ROOT
ATOM      1  C   LIG    1       23.089 -18.517   4.099  0.00  0.00    +0.286 C 
ATOM      2  N   LIG    1       23.980 -19.589   4.189  0.00  0.00    -0.119 NA
ATOM      3  O   LIG    1       23.542 -20.764   4.501  0.00  0.00    -0.616 OA
ATOM      4  C   LIG    1       25.336 -19.354   3.942  0.00  0.00    +0.386 C 
ATOM      5  N   LIG    1       25.791 -18.109   3.652  0.00  0.00    -0.156 NA
ATOM      6  C   LIG    1       24.927 -17.076   3.554  0.00  0.00    +0.137 C 
ATOM      7  C   LIG    1       23.568 -17.252   3.783  0.00  0.00    +0.141 C 
ENDROOT
BRANCH   6   8
ATOM      8  N   LIG    1       25.414 -15.783   3.262  0.00  0.00    -0.315 NA
ATOM      9  C   LIG    1       26.863 -15.655   3.502  0.00  0.00    +0.106 C 
ATOM     10  C   LIG    1       27.357 -14.306   2.976  0.00  0.00    +0.019 C 
ATOM     11  C   LIG    1       26.567 -13.149   3.577  0.00  0.00    +0.003 C 
ATOM     12  C   LIG    1       25.071 -13.353   3.364  0.00  0.00    +0.019 C 
ATOM     13  C   LIG    1       24.618 -14.715   3.892  0.00  0.00    +0.106 C 
ENDBRANCH   6   8
BRANCH   1  14
ATOM     14  N   LIG    1       21.716 -18.729   4.386  0.00  0.00    -0.304 NA
ATOM     15  H   LIG    1       21.690 -19.271   5.261  0.00  0.00    +0.148 HD
ATOM     16  H   LIG    1       21.232 -19.215   3.638  0.00  0.00    +0.148 HD
ENDBRANCH   1  14
BRANCH   4  17
ATOM     17  N   LIG    1       26.256 -20.408   4.016  0.00  0.00    -0.287 NA
ATOM     18  H   LIG    1       26.460 -20.738   3.074  0.00  0.00    +0.149 HD
ATOM     19  H   LIG    1       25.973 -21.093   4.704  0.00  0.00    +0.149 HD
ENDBRANCH   4  17
TORSDOF 3
ENDMDL
MODEL 3
REMARK VINA RESULT:      -3.4      1.138      2.313
REMARK  Name = *****
REMARK                            x       y       z     vdW  Elec       q    Type
REMARK                         _______ _______ _______ _____ _____    ______ ____
ROOT
ATOM      1  C   LIG    1       25.369 -19.384   4.026  0.00  0.00    +0.286 C 
ATOM      2  N   LIG    1       24.002 -19.595   4.220  0.00  0.00    -0.119 NA
ATOM      3  O   LIG    1       23.568 -20.780   4.499  0.00  0.00    -0.616 OA
ATOM      4  C   LIG    1       23.133 -18.506   4.100  0.00  0.00    +0.386 C 
ATOM      5  N   LIG    1       23.594 -17.274   3.770  0.00  0.00    -0.156 NA
ATOM      6  C   LIG    1       24.917 -17.068   3.593  0.00  0.00    +0.137 C 
ATOM      7  C   LIG    1       25.827 -18.112   3.707  0.00  0.00    +0.141 C 
ENDROOT
BRANCH   6   8
ATOM      8  N   LIG    1       25.383 -15.783   3.240  0.00  0.00    -0.315 NA
ATOM      9  C   LIG    1       26.832 -15.623   3.463  0.00  0.00    +0.106 C 
ATOM     10  C   LIG    1       27.302 -14.293   2.873  0.00  0.00    +0.019 C 
ATOM     11  C   LIG    1       26.499 -13.121   3.427  0.00  0.00    +0.003 C 
ATOM     12  C   LIG    1       25.005 -13.356   3.233  0.00  0.00    +0.019 C 
ATOM     13  C   LIG    1       24.576 -14.699   3.827  0.00  0.00    +0.106 C 
ENDBRANCH   6   8
BRANCH   1  14
ATOM     14  N   LIG    1       26.260 -20.484   4.105  0.00  0.00    -0.304 NA
ATOM     15  H   LIG    1       25.687 -21.294   4.380  0.00  0.00    +0.148 HD
ATOM     16  H   LIG    1       27.015 -20.327   4.764  0.00  0.00    +0.148 HD
ENDBRANCH   1  14
BRANCH   4  17
ATOM     17  N   LIG    1       21.757 -18.681   4.295  0.00  0.00    -0.287 NA
ATOM     18  H   LIG    1       21.251 -18.025   3.702  0.00  0.00    +0.149 HD
ATOM     19  H   LIG    1       21.526 -18.700   5.280  0.00  0.00    +0.149 HD
ENDBRANCH   4  17
TORSDOF 3
ENDMDL
MODEL 4
REMARK VINA RESULT:      -3.4      1.098      2.360
REMARK  Name = *****
REMARK                            x       y       z     vdW  Elec       q    Type
REMARK                         _______ _______ _______ _____ _____    ______ ____
ROOT
ATOM      1  C   LIG    1       26.967 -19.229   4.598  0.00  0.00    +0.286 C 
ATOM      2  N   LIG    1       25.689 -19.739   4.355  0.00  0.00    -0.119 NA
ATOM      3  O   LIG    1       25.411 -20.958   4.682  0.00  0.00    -0.616 OA
ATOM      4  C   LIG    1       24.740 -18.907   3.753  0.00  0.00    +0.386 C 
ATOM      5  N   LIG    1       25.054 -17.641   3.380  0.00  0.00    -0.156 NA
ATOM      6  C   LIG    1       26.286 -17.146   3.624  0.00  0.00    +0.137 C 
ATOM      7  C   LIG    1       27.267 -17.925   4.225  0.00  0.00    +0.141 C 
ENDROOT
BRANCH   6   8
ATOM      8  N   LIG    1       26.603 -15.830   3.220  0.00  0.00    -0.315 NA
ATOM      9  C   LIG    1       27.639 -15.210   4.067  0.00  0.00    +0.106 C 
ATOM     10  C   LIG    1       28.078 -13.879   3.456  0.00  0.00    +0.019 C 
ATOM     11  C   LIG    1       26.888 -12.952   3.225  0.00  0.00    +0.003 C 
ATOM     12  C   LIG    1       25.814 -13.653   2.401  0.00  0.00    +0.019 C 
ATOM     13  C   LIG    1       25.410 -14.983   3.037  0.00  0.00    +0.106 C 
ENDBRANCH   6   8
BRANCH   1  14
ATOM     14  N   LIG    1       27.954 -20.071   5.170  0.00  0.00    -0.304 NA
ATOM     15  H   LIG    1       28.862 -19.653   4.922  0.00  0.00    +0.148 HD
ATOM     16  H   LIG    1       27.888 -21.029   4.841  0.00  0.00    +0.148 HD
ENDBRANCH   1  14
BRANCH   4  17
ATOM     17  N   LIG    1       23.447 -19.383   3.502  0.00  0.00    -0.287 NA
ATOM     18  H   LIG    1       23.215 -19.213   2.525  0.00  0.00    +0.149 HD
ATOM     19  H   LIG    1       22.795 -19.060   4.205  0.00  0.00    +0.149 HD
ENDBRANCH   4  17
TORSDOF 3
ENDMDL
MODEL 5
REMARK VINA RESULT:      -3.2      3.214      5.611
REMARK  Name = *****
REMARK                            x       y       z     vdW  Elec       q    Type
REMARK                         _______ _______ _______ _____ _____    ______ ____
ROOT
ATOM      1  C   LIG    1       24.385 -13.317   3.742  0.00  0.00    +0.286 C 
ATOM      2  N   LIG    1       25.555 -13.173   2.993  0.00  0.00    -0.119 NA
ATOM      3  O   LIG    1       25.935 -11.996   2.616  0.00  0.00    -0.616 OA
ATOM      4  C   LIG    1       26.285 -14.319   2.664  0.00  0.00    +0.386 C 
ATOM      5  N   LIG    1       25.857 -15.552   3.033  0.00  0.00    -0.156 NA
ATOM      6  C   LIG    1       24.732 -15.691   3.766  0.00  0.00    +0.137 C 
ATOM      7  C   LIG    1       23.970 -14.586   4.127  0.00  0.00    +0.141 C 
ENDROOT
BRANCH   6   8
ATOM      8  N   LIG    1       24.291 -16.981   4.134  0.00  0.00    -0.315 NA
ATOM      9  C   LIG    1       25.000 -18.051   3.408  0.00  0.00    +0.106 C 
ATOM     10  C   LIG    1       24.624 -19.412   3.997  0.00  0.00    +0.019 C 
ATOM     11  C   LIG    1       23.113 -19.619   4.003  0.00  0.00    +0.003 C 
ATOM     12  C   LIG    1       22.416 -18.459   4.706  0.00  0.00    +0.019 C 
ATOM     13  C   LIG    1       22.824 -17.118   4.097  0.00  0.00    +0.106 C 
ENDBRANCH   6   8
BRANCH   1  14
ATOM     14  N   LIG    1       23.611 -12.170   4.050  0.00  0.00    -0.304 NA
ATOM     15  H   LIG    1       22.648 -12.507   4.192  0.00  0.00    +0.148 HD
ATOM     16  H   LIG    1       23.649 -11.466   3.319  0.00  0.00    +0.148 HD
ENDBRANCH   1  14
BRANCH   4  17
ATOM     17  N   LIG    1       27.467 -14.209   1.921  0.00  0.00    -0.287 NA
ATOM     18  H   LIG    1       27.960 -13.364   2.203  0.00  0.00    +0.149 HD
ATOM     19  H   LIG    1       27.293 -14.345   0.933  0.00  0.00    +0.149 HD
ENDBRANCH   4  17
TORSDOF 3
ENDMDL
MODEL 6
REMARK VINA RESULT:      -3.1      1.523      1.930
REMARK  Name = *****
REMARK                            x       y       z     vdW  Elec       q    Type
REMARK                         _______ _______ _______ _____ _____    ______ ____
ROOT
ATOM      1  C   LIG    1       26.217 -19.136   4.065  0.00  0.00    +0.286 C 
ATOM      2  N   LIG    1       27.469 -19.159   4.684  0.00  0.00    -0.119 NA
ATOM      3  O   LIG    1       27.919 -20.264   5.182  0.00  0.00    -0.616 OA
ATOM      4  C   LIG    1       28.204 -17.972   4.752  0.00  0.00    +0.386 C 
ATOM      5  N   LIG    1       27.707 -16.810   4.259  0.00  0.00    -0.156 NA
ATOM      6  C   LIG    1       26.501 -16.791   3.651  0.00  0.00    +0.137 C 
ATOM      7  C   LIG    1       25.730 -17.942   3.549  0.00  0.00    +0.141 C 
ENDROOT
BRANCH   6   8
ATOM      8  N   LIG    1       25.990 -15.573   3.152  0.00  0.00    -0.315 NA
ATOM      9  C   LIG    1       27.032 -14.542   2.994  0.00  0.00    +0.106 C 
ATOM     10  C   LIG    1       26.453 -13.329   2.263  0.00  0.00    +0.019 C 
ATOM     11  C   LIG    1       25.211 -12.793   2.969  0.00  0.00    +0.003 C 
ATOM     12  C   LIG    1       24.187 -13.905   3.170  0.00  0.00    +0.019 C 
ATOM     13  C   LIG    1       24.806 -15.102   3.893  0.00  0.00    +0.106 C 
ENDBRANCH   6   8
BRANCH   1  14
ATOM     14  N   LIG    1       25.441 -20.322   4.023  0.00  0.00    -0.304 NA
ATOM     15  H   LIG    1       25.578 -20.717   3.082  0.00  0.00    +0.148 HD
ATOM     16  H   LIG    1       24.458 -20.151   4.209  0.00  0.00    +0.148 HD
ENDBRANCH   1  14
BRANCH   4  17
ATOM     17  N   LIG    1       29.466 -17.962   5.359  0.00  0.00    -0.287 NA
ATOM     18  H   LIG    1       29.510 -17.188   6.021  0.00  0.00    +0.149 HD
ATOM     19  H   LIG    1       30.205 -18.035   4.671  0.00  0.00    +0.149 HD
ENDBRANCH   4  17
TORSDOF 3
ENDMDL
MODEL 7
REMARK VINA RESULT:      -2.8      3.198      5.917
REMARK  Name = *****
REMARK                            x       y       z     vdW  Elec       q    Type
REMARK                         _______ _______ _______ _____ _____    ______ ____
ROOT
ATOM      1  C   LIG    1       26.733 -14.281   3.005  0.00  0.00    +0.286 C 
ATOM      2  N   LIG    1       25.852 -13.198   2.953  0.00  0.00    -0.119 NA
ATOM      3  O   LIG    1       26.293 -12.027   2.630  0.00  0.00    -0.616 OA
ATOM      4  C   LIG    1       24.506 -13.415   3.261  0.00  0.00    +0.386 C 
ATOM      5  N   LIG    1       24.061 -14.641   3.635  0.00  0.00    -0.156 NA
ATOM      6  C   LIG    1       24.910 -15.690   3.675  0.00  0.00    +0.137 C 
ATOM      7  C   LIG    1       26.257 -15.534   3.372  0.00  0.00    +0.141 C 
ENDROOT
BRANCH   6   8
ATOM      8  N   LIG    1       24.437 -16.958   4.076  0.00  0.00    -0.315 NA
ATOM      9  C   LIG    1       25.124 -18.065   3.386  0.00  0.00    +0.106 C 
ATOM     10  C   LIG    1       24.712 -19.399   4.011  0.00  0.00    +0.019 C 
ATOM     11  C   LIG    1       23.196 -19.570   4.012  0.00  0.00    +0.003 C 
ATOM     12  C   LIG    1       22.522 -18.375   4.677  0.00  0.00    +0.019 C 
ATOM     13  C   LIG    1       22.967 -17.061   4.032  0.00  0.00    +0.106 C 
ENDBRANCH   6   8
BRANCH   1  14
ATOM     14  N   LIG    1       28.109 -14.072   2.734  0.00  0.00    -0.304 NA
ATOM     15  H   LIG    1       28.155 -13.244   2.123  0.00  0.00    +0.148 HD
ATOM     16  H   LIG    1       28.547 -14.876   2.297  0.00  0.00    +0.148 HD
ENDBRANCH   1  14
BRANCH   4  17
ATOM     17  N   LIG    1       23.595 -12.353   3.212  0.00  0.00    -0.287 NA
ATOM     18  H   LIG    1       23.969 -11.569   3.745  0.00  0.00    +0.149 HD
ATOM     19  H   LIG    1       22.657 -12.664   3.430  0.00  0.00    +0.149 HD
ENDBRANCH   4  17
TORSDOF 3
ENDMDL
MODEL 8
REMARK VINA RESULT:      -2.7      3.205      5.188
REMARK  Name = *****
REMARK                            x       y       z     vdW  Elec       q    Type
REMARK                         _______ _______ _______ _____ _____    ______ ____
ROOT
ATOM      1  C   LIG    1       23.617 -18.514   4.110  0.00  0.00    +0.286 C 
ATOM      2  N   LIG    1       22.572 -19.411   4.347  0.00  0.00    -0.119 NA
ATOM      3  O   LIG    1       21.362 -19.084   4.031  0.00  0.00    -0.616 OA
ATOM      4  C   LIG    1       22.869 -20.647   4.929  0.00  0.00    +0.386 C 
ATOM      5  N   LIG    1       24.137 -20.965   5.290  0.00  0.00    -0.156 NA
ATOM      6  C   LIG    1       25.149 -20.102   5.052  0.00  0.00    +0.137 C 
ATOM      7  C   LIG    1       24.913 -18.863   4.470  0.00  0.00    +0.141 C 
ENDROOT
BRANCH   6   8
ATOM      8  N   LIG    1       26.462 -20.441   5.443  0.00  0.00    -0.315 NA
ATOM      9  C   LIG    1       26.518 -21.042   6.788  0.00  0.00    +0.106 C 
ATOM     10  C   LIG    1       27.927 -21.568   7.062  0.00  0.00    +0.019 C 
ATOM     11  C   LIG    1       28.977 -20.478   6.872  0.00  0.00    +0.003 C 
ATOM     12  C   LIG    1       28.843 -19.840   5.493  0.00  0.00    +0.019 C 
ATOM     13  C   LIG    1       27.420 -19.336   5.254  0.00  0.00    +0.106 C 
ENDBRANCH   6   8
BRANCH   1  14
ATOM     14  N   LIG    1       23.329 -17.241   3.557  0.00  0.00    -0.304 NA
ATOM     15  H   LIG    1       22.364 -17.020   3.842  0.00  0.00    +0.148 HD
ATOM     16  H   LIG    1       23.428 -17.223   2.548  0.00  0.00    +0.148 HD
ENDBRANCH   1  14
BRANCH   4  17
ATOM     17  N   LIG    1       21.846 -21.572   5.173  0.00  0.00    -0.287 NA
ATOM     18  H   LIG    1       21.445 -21.865   4.283  0.00  0.00    +0.149 HD
ATOM     19  H   LIG    1       21.213 -21.238   5.888  0.00  0.00    +0.149 HD
ENDBRANCH   4  17
TORSDOF 3
ENDMDL
MODEL 9
REMARK VINA RESULT:      -2.6      3.063      5.542
REMARK  Name = *****
REMARK                            x       y       z     vdW  Elec       q    Type
REMARK                         _______ _______ _______ _____ _____    ______ ____
ROOT
ATOM      1  C   LIG    1       24.547 -13.693   4.114  0.00  0.00    +0.286 C 
ATOM      2  N   LIG    1       25.917 -13.635   3.846  0.00  0.00    -0.119 NA
ATOM      3  O   LIG    1       26.527 -12.495   3.870  0.00  0.00    -0.616 OA
ATOM      4  C   LIG    1       26.593 -14.822   3.553  0.00  0.00    +0.386 C 
ATOM      5  N   LIG    1       25.935 -16.007   3.495  0.00  0.00    -0.156 NA
ATOM      6  C   LIG    1       24.613 -16.065   3.763  0.00  0.00    +0.137 C 
ATOM      7  C   LIG    1       23.892 -14.917   4.067  0.00  0.00    +0.141 C 
ENDROOT
BRANCH   6   8
ATOM      8  N   LIG    1       23.938 -17.303   3.688  0.00  0.00    -0.315 NA
ATOM      9  C   LIG    1       22.765 -17.365   4.578  0.00  0.00    +0.106 C 
ATOM     10  C   LIG    1       21.969 -18.641   4.298  0.00  0.00    +0.019 C 
ATOM     11  C   LIG    1       22.848 -19.882   4.412  0.00  0.00    +0.003 C 
ATOM     12  C   LIG    1       24.081 -19.749   3.525  0.00  0.00    +0.019 C 
ATOM     13  C   LIG    1       24.843 -18.459   3.828  0.00  0.00    +0.106 C 
ENDBRANCH   6   8
BRANCH   1  14
ATOM     14  N   LIG    1       23.838 -12.493   4.373  0.00  0.00    -0.304 NA
ATOM     15  H   LIG    1       23.621 -12.504   5.380  0.00  0.00    +0.148 HD
ATOM     16  H   LIG    1       22.993 -12.412   3.817  0.00  0.00    +0.148 HD
ENDBRANCH   1  14
BRANCH   4  17
ATOM     17  N   LIG    1       27.968 -14.800   3.288  0.00  0.00    -0.287 NA
ATOM     18  H   LIG    1       28.168 -15.438   2.518  0.00  0.00    +0.149 HD
ATOM     19  H   LIG    1       28.507 -14.905   4.138  0.00  0.00    +0.149 HD
ENDBRANCH   4  17
TORSDOF 3
ENDMDL
