MODEL 1
REMARK VINA RESULT:      -3.0      0.000      0.000
REMARK  Name = *****
REMARK                            x       y       z     vdW  Elec       q    Type
REMARK                         _______ _______ _______ _____ _____    ______ ____
ROOT
ATOM      1  C   LIG    1       26.067 -15.432   4.188  0.00  0.00    +0.051 C 
ATOM      2  C   LIG    1       24.993 -14.491   3.605  0.00  0.00    +0.065 C 
ATOM      3  C   LIG    1       25.816 -13.626   2.668  0.00  0.00    +0.140 C 
ATOM      4  O   LIG    1       25.328 -12.895   1.813  0.00  0.00    -0.297 OA
ATOM      5  C   LIG    1       27.297 -13.819   2.813  0.00  0.00    +0.106 C 
ATOM      6  C   LIG    1       27.404 -14.671   4.067  0.00  0.00    +0.129 C 
ENDROOT
BRANCH   6   7
ATOM      7  O   LIG    1       27.616 -13.825   5.192  0.00  0.00    -0.391 OA
ATOM      8  H   LIG    1       27.860 -14.389   5.948  0.00  0.00    +0.210 HD
ENDBRANCH   6   7
BRANCH   1  10
ATOM      9  C   LIG    1       25.437 -17.823   3.722  0.00  0.00    -0.000 C 
ATOM     10  C   LIG    1       26.125 -16.717   3.392  0.00  0.00    -0.022 C 
BRANCH   9  11
ATOM     11  C   LIG    1       25.605 -19.142   3.020  0.00  0.00    +0.137 C 
BRANCH  11  12
ATOM     12  O   LIG    1       26.747 -18.993   2.186  0.00  0.00    -0.388 OA
ATOM     13  H   LIG    1       26.529 -18.295   1.542  0.00  0.00    +0.210 HD
ENDBRANCH  11  12
BRANCH  11  14
ATOM     14  C   LIG    1       25.808 -20.314   3.994  0.00  0.00    +0.039 C 
BRANCH  14  15
ATOM     15  C   LIG    1       26.480 -19.953   5.346  0.00  0.00    -0.011 C 
ATOM     16  C   LIG    1       25.587 -20.420   6.509  0.00  0.00    +0.007 C 
BRANCH  15  17
ATOM     17  C   LIG    1       27.928 -20.481   5.507  0.00  0.00    +0.003 C 
BRANCH  17  18
ATOM     18  C   LIG    1       28.551 -20.203   6.880  0.00  0.00    -0.000 C 
BRANCH  18  20
ATOM     19  C   LIG    1       29.418 -18.243   5.560  0.00  0.00    +0.004 C 
ATOM     20  C   LIG    1       29.364 -18.907   6.934  0.00  0.00    -0.003 C 
ENDBRANCH  18  20
ENDBRANCH  17  18
ENDBRANCH  15  17
ENDBRANCH  14  15
ENDBRANCH  11  14
ENDBRANCH   9  11
ENDBRANCH   1  10
BRANCH   2  21
ATOM     21  C   LIG    1       24.236 -13.686   4.673  0.00  0.00    +0.011 C 
BRANCH  21  22
ATOM     22  C   LIG    1       23.035 -14.468   5.220  0.00  0.00    +0.001 C 
BRANCH  22  23
ATOM     23  C   LIG    1       22.611 -15.690   4.403  0.00  0.00    +0.004 C 
BRANCH  23  24
ATOM     24  C   LIG    1       22.085 -16.848   5.254  0.00  0.00    +0.027 C 
BRANCH  24  25
ATOM     25  C   LIG    1       22.187 -18.220   4.642  0.00  0.00    -0.020 C 
ATOM     26  C   LIG    1       22.345 -19.388   5.291  0.00  0.00    +0.087 C 
BRANCH  26  27
ATOM     27  C   LIG    1       22.328 -20.694   4.619  0.00  0.00    +0.329 C 
ATOM     28  O   LIG    1       23.186 -21.076   3.828  0.00  0.00    -0.246 OA
BRANCH  27  29
ATOM     29  O   LIG    1       21.262 -21.442   4.921  0.00  0.00    -0.477 OA
ATOM     30  H   LIG    1       21.148 -22.023   4.141  0.00  0.00    +0.295 HD
ENDBRANCH  27  29
ENDBRANCH  26  27
ENDBRANCH  24  25
ENDBRANCH  23  24
ENDBRANCH  22  23
ENDBRANCH  21  22
ENDBRANCH   2  21
TORSDOF 16
ENDMDL
MODEL 2
REMARK VINA RESULT:      -2.9      1.909      3.764
REMARK  Name = *****
REMARK                            x       y       z     vdW  Elec       q    Type
REMARK                         _______ _______ _______ _____ _____    ______ ____
ROOT
ATOM      1  C   LIG    1       26.364 -14.604   3.859  0.00  0.00    +0.051 C 
ATOM      2  C   LIG    1       27.178 -13.835   2.800  0.00  0.00    +0.065 C 
ATOM      3  C   LIG    1       28.438 -13.489   3.571  0.00  0.00    +0.140 C 
ATOM      4  O   LIG    1       29.469 -13.083   3.044  0.00  0.00    -0.297 OA
ATOM      5  C   LIG    1       28.348 -13.784   5.040  0.00  0.00    +0.106 C 
ATOM      6  C   LIG    1       26.875 -14.107   5.227  0.00  0.00    +0.129 C 
ENDROOT
BRANCH   6   7
ATOM      7  O   LIG    1       26.186 -12.929   5.635  0.00  0.00    -0.391 OA
ATOM      8  H   LIG    1       25.335 -12.903   5.162  0.00  0.00    +0.210 HD
ENDBRANCH   6   7
BRANCH   1  10
ATOM      9  C   LIG    1       25.613 -16.988   3.571  0.00  0.00    -0.000 C 
ATOM     10  C   LIG    1       26.602 -16.092   3.724  0.00  0.00    -0.022 C 
BRANCH   9  11
ATOM     11  C   LIG    1       25.834 -18.475   3.583  0.00  0.00    +0.137 C 
BRANCH  11  12
ATOM     12  O   LIG    1       26.006 -18.850   2.221  0.00  0.00    -0.388 OA
ATOM     13  H   LIG    1       25.655 -18.115   1.686  0.00  0.00    +0.210 HD
ENDBRANCH  11  12
BRANCH  11  14
ATOM     14  C   LIG    1       27.064 -18.889   4.406  0.00  0.00    +0.039 C 
BRANCH  14  15
ATOM     15  C   LIG    1       26.906 -20.188   5.240  0.00  0.00    -0.011 C 
ATOM     16  C   LIG    1       27.937 -20.200   6.382  0.00  0.00    +0.007 C 
BRANCH  15  17
ATOM     17  C   LIG    1       25.474 -20.435   5.780  0.00  0.00    +0.003 C 
BRANCH  17  18
ATOM     18  C   LIG    1       24.666 -21.460   4.975  0.00  0.00    -0.000 C 
BRANCH  18  20
ATOM     19  C   LIG    1       22.785 -19.980   5.754  0.00  0.00    +0.004 C 
ATOM     20  C   LIG    1       23.207 -21.055   4.755  0.00  0.00    -0.003 C 
ENDBRANCH  18  20
ENDBRANCH  17  18
ENDBRANCH  15  17
ENDBRANCH  14  15
ENDBRANCH  11  14
ENDBRANCH   9  11
ENDBRANCH   1  10
BRANCH   2  21
ATOM     21  C   LIG    1       26.449 -12.604   2.238  0.00  0.00    +0.011 C 
BRANCH  21  22
ATOM     22  C   LIG    1       24.997 -12.932   1.867  0.00  0.00    +0.001 C 
BRANCH  22  23
ATOM     23  C   LIG    1       23.928 -12.081   2.554  0.00  0.00    +0.004 C 
BRANCH  23  24
ATOM     24  C   LIG    1       23.936 -12.196   4.080  0.00  0.00    +0.027 C 
BRANCH  24  25
ATOM     25  C   LIG    1       23.179 -13.362   4.661  0.00  0.00    -0.020 C 
ATOM     26  C   LIG    1       23.225 -14.643   4.254  0.00  0.00    +0.087 C 
BRANCH  26  27
ATOM     27  C   LIG    1       22.532 -15.736   4.948  0.00  0.00    +0.329 C 
ATOM     28  O   LIG    1       22.408 -16.872   4.499  0.00  0.00    -0.246 OA
BRANCH  27  29
ATOM     29  O   LIG    1       22.009 -15.381   6.126  0.00  0.00    -0.477 OA
ATOM     30  H   LIG    1       22.429 -15.989   6.769  0.00  0.00    +0.295 HD
ENDBRANCH  27  29
ENDBRANCH  26  27
ENDBRANCH  24  25
ENDBRANCH  23  24
ENDBRANCH  22  23
ENDBRANCH  21  22
ENDBRANCH   2  21
TORSDOF 16
ENDMDL
MODEL 3
REMARK VINA RESULT:      -2.5      2.235      6.359
REMARK  Name = *****
REMARK                            x       y       z     vdW  Elec       q    Type
REMARK                         _______ _______ _______ _____ _____    ______ ____
ROOT
ATOM      1  C   LIG    1       24.230 -19.324   3.523  0.00  0.00    +0.051 C 
ATOM      2  C   LIG    1       23.357 -19.306   4.793  0.00  0.00    +0.065 C 
ATOM      3  C   LIG    1       23.918 -20.483   5.570  0.00  0.00    +0.140 C 
ATOM      4  O   LIG    1       23.680 -20.692   6.754  0.00  0.00    -0.297 OA
ATOM      5  C   LIG    1       24.880 -21.324   4.781  0.00  0.00    +0.106 C 
ATOM      6  C   LIG    1       24.725 -20.778   3.371  0.00  0.00    +0.129 C 
ENDROOT
BRANCH   6   7
ATOM      7  O   LIG    1       23.778 -21.571   2.663  0.00  0.00    -0.391 OA
ATOM      8  H   LIG    1       23.925 -22.502   2.909  0.00  0.00    +0.210 HD
ENDBRANCH   6   7
BRANCH   1  10
ATOM      9  C   LIG    1       25.331 -17.062   3.480  0.00  0.00    -0.000 C 
ATOM     10  C   LIG    1       25.408 -18.388   3.682  0.00  0.00    -0.022 C 
BRANCH   9  11
ATOM     11  C   LIG    1       26.527 -16.151   3.495  0.00  0.00    +0.137 C 
BRANCH  11  12
ATOM     12  O   LIG    1       27.647 -16.981   3.209  0.00  0.00    -0.388 OA
ATOM     13  H   LIG    1       27.496 -17.820   3.681  0.00  0.00    +0.210 HD
ENDBRANCH  11  12
BRANCH  11  14
ATOM     14  C   LIG    1       26.428 -15.019   2.460  0.00  0.00    +0.039 C 
BRANCH  14  15
ATOM     15  C   LIG    1       27.504 -13.907   2.579  0.00  0.00    -0.011 C 
ATOM     16  C   LIG    1       26.838 -12.526   2.449  0.00  0.00    +0.007 C 
BRANCH  15  17
ATOM     17  C   LIG    1       28.375 -13.988   3.858  0.00  0.00    +0.003 C 
BRANCH  17  18
ATOM     18  C   LIG    1       28.576 -12.645   4.570  0.00  0.00    -0.000 C 
BRANCH  18  20
ATOM     19  C   LIG    1       26.770 -13.670   5.992  0.00  0.00    +0.004 C 
ATOM     20  C   LIG    1       27.695 -12.469   5.809  0.00  0.00    -0.003 C 
ENDBRANCH  18  20
ENDBRANCH  17  18
ENDBRANCH  15  17
ENDBRANCH  14  15
ENDBRANCH  11  14
ENDBRANCH   9  11
ENDBRANCH   1  10
BRANCH   2  21
ATOM     21  C   LIG    1       21.852 -19.424   4.507  0.00  0.00    +0.011 C 
BRANCH  21  22
ATOM     22  C   LIG    1       21.202 -18.046   4.337  0.00  0.00    +0.001 C 
BRANCH  22  23
ATOM     23  C   LIG    1       22.167 -16.880   4.113  0.00  0.00    +0.004 C 
BRANCH  23  24
ATOM     24  C   LIG    1       22.390 -16.016   5.356  0.00  0.00    +0.027 C 
BRANCH  24  25
ATOM     25  C   LIG    1       22.855 -14.605   5.109  0.00  0.00    -0.020 C 
ATOM     26  C   LIG    1       23.452 -14.130   4.002  0.00  0.00    +0.087 C 
BRANCH  26  27
ATOM     27  C   LIG    1       23.777 -12.712   3.804  0.00  0.00    +0.329 C 
ATOM     28  O   LIG    1       24.051 -11.932   4.713  0.00  0.00    -0.246 OA
BRANCH  27  29
ATOM     29  O   LIG    1       23.721 -12.318   2.528  0.00  0.00    -0.477 OA
ATOM     30  H   LIG    1       24.385 -12.878   2.075  0.00  0.00    +0.295 HD
ENDBRANCH  27  29
ENDBRANCH  26  27
ENDBRANCH  24  25
ENDBRANCH  23  24
ENDBRANCH  22  23
ENDBRANCH  21  22
ENDBRANCH   2  21
TORSDOF 16
ENDMDL
MODEL 4
REMARK VINA RESULT:      -2.0      1.300      2.504
REMARK  Name = *****
REMARK                            x       y       z     vdW  Elec       q    Type
REMARK                         _______ _______ _______ _____ _____    ______ ____
ROOT
ATOM      1  C   LIG    1       27.384 -14.543   4.574  0.00  0.00    +0.051 C 
ATOM      2  C   LIG    1       26.011 -14.034   4.093  0.00  0.00    +0.065 C 
ATOM      3  C   LIG    1       26.303 -13.675   2.648  0.00  0.00    +0.140 C 
ATOM      4  O   LIG    1       25.434 -13.453   1.812  0.00  0.00    -0.297 OA
ATOM      5  C   LIG    1       27.763 -13.712   2.300  0.00  0.00    +0.106 C 
ATOM      6  C   LIG    1       28.428 -13.870   3.657  0.00  0.00    +0.129 C 
ENDROOT
BRANCH   6   7
ATOM      7  O   LIG    1       28.794 -12.586   4.153  0.00  0.00    -0.391 OA
ATOM      8  H   LIG    1       28.097 -12.294   4.767  0.00  0.00    +0.210 HD
ENDBRANCH   6   7
BRANCH   1  10
ATOM      9  C   LIG    1       26.421 -16.813   4.074  0.00  0.00    -0.000 C 
ATOM     10  C   LIG    1       27.464 -16.048   4.437  0.00  0.00    -0.022 C 
BRANCH   9  11
ATOM     11  C   LIG    1       26.457 -18.316   4.078  0.00  0.00    +0.137 C 
BRANCH  11  12
ATOM     12  O   LIG    1       26.045 -18.715   2.776  0.00  0.00    -0.388 OA
ATOM     13  H   LIG    1       26.382 -18.039   2.161  0.00  0.00    +0.210 HD
ENDBRANCH  11  12
BRANCH  11  14
ATOM     14  C   LIG    1       27.854 -18.879   4.389  0.00  0.00    +0.039 C 
BRANCH  14  15
ATOM     15  C   LIG    1       27.923 -19.884   5.568  0.00  0.00    -0.011 C 
ATOM     16  C   LIG    1       28.925 -19.378   6.621  0.00  0.00    +0.007 C 
BRANCH  15  17
ATOM     17  C   LIG    1       26.554 -20.213   6.215  0.00  0.00    +0.003 C 
BRANCH  17  18
ATOM     18  C   LIG    1       25.718 -21.234   5.434  0.00  0.00    -0.000 C 
BRANCH  18  20
ATOM     19  C   LIG    1       23.817 -20.354   6.830  0.00  0.00    +0.004 C 
ATOM     20  C   LIG    1       24.381 -21.570   6.100  0.00  0.00    -0.003 C 
ENDBRANCH  18  20
ENDBRANCH  17  18
ENDBRANCH  15  17
ENDBRANCH  14  15
ENDBRANCH  11  14
ENDBRANCH   9  11
ENDBRANCH   1  10
BRANCH   2  21
ATOM     21  C   LIG    1       25.469 -12.856   4.917  0.00  0.00    +0.011 C 
BRANCH  21  22
ATOM     22  C   LIG    1       24.063 -12.449   4.459  0.00  0.00    +0.001 C 
BRANCH  22  23
ATOM     23  C   LIG    1       23.191 -13.580   3.910  0.00  0.00    +0.004 C 
BRANCH  23  24
ATOM     24  C   LIG    1       23.015 -14.749   4.881  0.00  0.00    +0.027 C 
BRANCH  24  25
ATOM     25  C   LIG    1       22.862 -16.112   4.258  0.00  0.00    -0.020 C 
ATOM     26  C   LIG    1       22.487 -17.248   4.872  0.00  0.00    +0.087 C 
BRANCH  26  27
ATOM     27  C   LIG    1       22.262 -18.514   4.162  0.00  0.00    +0.329 C 
ATOM     28  O   LIG    1       23.152 -19.298   3.847  0.00  0.00    -0.246 OA
BRANCH  27  29
ATOM     29  O   LIG    1       20.981 -18.737   3.853  0.00  0.00    -0.477 OA
ATOM     30  H   LIG    1       20.937 -18.587   2.886  0.00  0.00    +0.295 HD
ENDBRANCH  27  29
ENDBRANCH  26  27
ENDBRANCH  24  25
ENDBRANCH  23  24
ENDBRANCH  22  23
ENDBRANCH  21  22
ENDBRANCH   2  21
TORSDOF 16
ENDMDL
MODEL 5
REMARK VINA RESULT:      -1.7      1.744      3.358
REMARK  Name = *****
REMARK                            x       y       z     vdW  Elec       q    Type
REMARK                         _______ _______ _______ _____ _____    ______ ____
ROOT
ATOM      1  C   LIG    1       24.697 -13.352   5.135  0.00  0.00    +0.051 C 
ATOM      2  C   LIG    1       23.847 -14.199   4.168  0.00  0.00    +0.065 C 
ATOM      3  C   LIG    1       23.623 -13.229   3.023  0.00  0.00    +0.140 C 
ATOM      4  O   LIG    1       23.198 -13.562   1.922  0.00  0.00    -0.297 OA
ATOM      5  C   LIG    1       24.067 -11.827   3.324  0.00  0.00    +0.106 C 
ATOM      6  C   LIG    1       24.361 -11.880   4.814  0.00  0.00    +0.129 C 
ENDROOT
BRANCH   6   7
ATOM      7  O   LIG    1       23.211 -11.447   5.534  0.00  0.00    -0.391 OA
ATOM      8  H   LIG    1       23.033 -10.523   5.284  0.00  0.00    +0.210 HD
ENDBRANCH   6   7
BRANCH   1  10
ATOM      9  C   LIG    1       26.656 -14.170   3.785  0.00  0.00    -0.000 C 
ATOM     10  C   LIG    1       26.169 -13.612   4.906  0.00  0.00    -0.022 C 
BRANCH   9  11
ATOM     11  C   LIG    1       28.098 -14.562   3.614  0.00  0.00    +0.137 C 
BRANCH  11  12
ATOM     12  O   LIG    1       28.853 -13.399   3.930  0.00  0.00    -0.388 OA
ATOM     13  H   LIG    1       28.812 -12.821   3.147  0.00  0.00    +0.210 HD
ENDBRANCH  11  12
BRANCH  11  14
ATOM     14  C   LIG    1       28.511 -15.728   4.526  0.00  0.00    +0.039 C 
BRANCH  14  15
ATOM     15  C   LIG    1       27.547 -16.944   4.536  0.00  0.00    -0.011 C 
ATOM     16  C   LIG    1       26.678 -16.927   3.266  0.00  0.00    +0.007 C 
BRANCH  15  17
ATOM     17  C   LIG    1       28.244 -18.316   4.716  0.00  0.00    +0.003 C 
BRANCH  17  18
ATOM     18  C   LIG    1       29.422 -18.301   5.698  0.00  0.00    -0.000 C 
BRANCH  18  20
ATOM     19  C   LIG    1       28.882 -20.637   6.463  0.00  0.00    +0.004 C 
ATOM     20  C   LIG    1       29.224 -19.217   6.908  0.00  0.00    -0.003 C 
ENDBRANCH  18  20
ENDBRANCH  17  18
ENDBRANCH  15  17
ENDBRANCH  14  15
ENDBRANCH  11  14
ENDBRANCH   9  11
ENDBRANCH   1  10
BRANCH   2  21
ATOM     21  C   LIG    1       22.542 -14.720   4.790  0.00  0.00    +0.011 C 
BRANCH  21  22
ATOM     22  C   LIG    1       22.667 -16.191   5.208  0.00  0.00    +0.001 C 
BRANCH  22  23
ATOM     23  C   LIG    1       22.680 -17.207   4.065  0.00  0.00    +0.004 C 
BRANCH  23  24
ATOM     24  C   LIG    1       21.881 -18.478   4.360  0.00  0.00    +0.027 C 
BRANCH  24  25
ATOM     25  C   LIG    1       22.611 -19.562   5.108  0.00  0.00    -0.020 C 
ATOM     26  C   LIG    1       23.857 -20.012   4.874  0.00  0.00    +0.087 C 
BRANCH  26  27
ATOM     27  C   LIG    1       24.532 -21.002   5.723  0.00  0.00    +0.329 C 
ATOM     28  O   LIG    1       24.136 -21.345   6.834  0.00  0.00    -0.246 OA
BRANCH  27  29
ATOM     29  O   LIG    1       25.656 -21.491   5.191  0.00  0.00    -0.477 OA
ATOM     30  H   LIG    1       26.150 -20.697   4.900  0.00  0.00    +0.295 HD
ENDBRANCH  27  29
ENDBRANCH  26  27
ENDBRANCH  24  25
ENDBRANCH  23  24
ENDBRANCH  22  23
ENDBRANCH  21  22
ENDBRANCH   2  21
TORSDOF 16
ENDMDL
MODEL 6
REMARK VINA RESULT:      -1.4      1.741      4.297
REMARK  Name = *****
REMARK                            x       y       z     vdW  Elec       q    Type
REMARK                         _______ _______ _______ _____ _____    ______ ____
ROOT
ATOM      1  C   LIG    1       23.719 -13.975   3.689  0.00  0.00    +0.051 C 
ATOM      2  C   LIG    1       25.248 -14.118   3.823  0.00  0.00    +0.065 C 
ATOM      3  C   LIG    1       25.539 -13.219   5.010  0.00  0.00    +0.140 C 
ATOM      4  O   LIG    1       26.604 -13.220   5.619  0.00  0.00    -0.297 OA
ATOM      5  C   LIG    1       24.365 -12.391   5.443  0.00  0.00    +0.106 C 
ATOM      6  C   LIG    1       23.366 -12.612   4.320  0.00  0.00    +0.129 C 
ENDROOT
BRANCH   6   7
ATOM      7  O   LIG    1       23.490 -11.559   3.368  0.00  0.00    -0.391 OA
ATOM      8  H   LIG    1       24.432 -11.320   3.309  0.00  0.00    +0.210 HD
ENDBRANCH   6   7
BRANCH   1  10
ATOM      9  C   LIG    1       23.182 -16.391   4.142  0.00  0.00    -0.000 C 
ATOM     10  C   LIG    1       23.021 -15.091   4.436  0.00  0.00    -0.022 C 
BRANCH   9  11
ATOM     11  C   LIG    1       22.381 -17.491   4.785  0.00  0.00    +0.137 C 
BRANCH  11  12
ATOM     12  O   LIG    1       21.220 -17.643   3.977  0.00  0.00    -0.388 OA
ATOM     13  H   LIG    1       21.445 -17.285   3.100  0.00  0.00    +0.210 HD
ENDBRANCH  11  12
BRANCH  11  14
ATOM     14  C   LIG    1       23.150 -18.819   4.866  0.00  0.00    +0.039 C 
BRANCH  14  15
ATOM     15  C   LIG    1       22.343 -20.028   5.408  0.00  0.00    -0.011 C 
ATOM     16  C   LIG    1       21.317 -20.481   4.355  0.00  0.00    +0.007 C 
BRANCH  15  17
ATOM     17  C   LIG    1       23.211 -21.218   5.889  0.00  0.00    +0.003 C 
BRANCH  17  18
ATOM     18  C   LIG    1       24.141 -20.887   7.062  0.00  0.00    -0.000 C 
BRANCH  18  20
ATOM     19  C   LIG    1       26.563 -20.201   7.025  0.00  0.00    +0.004 C 
ATOM     20  C   LIG    1       25.582 -21.359   6.854  0.00  0.00    -0.003 C 
ENDBRANCH  18  20
ENDBRANCH  17  18
ENDBRANCH  15  17
ENDBRANCH  14  15
ENDBRANCH  11  14
ENDBRANCH   9  11
ENDBRANCH   1  10
BRANCH   2  21
ATOM     21  C   LIG    1       26.016 -13.720   2.553  0.00  0.00    +0.011 C 
BRANCH  21  22
ATOM     22  C   LIG    1       27.360 -14.454   2.455  0.00  0.00    +0.001 C 
BRANCH  22  23
ATOM     23  C   LIG    1       28.137 -14.591   3.765  0.00  0.00    +0.004 C 
BRANCH  23  24
ATOM     24  C   LIG    1       27.929 -15.935   4.468  0.00  0.00    +0.027 C 
BRANCH  24  25
ATOM     25  C   LIG    1       27.098 -16.949   3.727  0.00  0.00    -0.020 C 
ATOM     26  C   LIG    1       26.825 -18.209   4.109  0.00  0.00    +0.087 C 
BRANCH  26  27
ATOM     27  C   LIG    1       25.915 -19.097   3.374  0.00  0.00    +0.329 C 
ATOM     28  O   LIG    1       25.043 -18.709   2.602  0.00  0.00    -0.246 OA
BRANCH  27  29
ATOM     29  O   LIG    1       26.097 -20.395   3.640  0.00  0.00    -0.477 OA
ATOM     30  H   LIG    1       25.746 -20.506   4.547  0.00  0.00    +0.295 HD
ENDBRANCH  27  29
ENDBRANCH  26  27
ENDBRANCH  24  25
ENDBRANCH  23  24
ENDBRANCH  22  23
ENDBRANCH  21  22
ENDBRANCH   2  21
TORSDOF 16
ENDMDL
MODEL 7
REMARK VINA RESULT:      -1.3      1.978      6.606
REMARK  Name = *****
REMARK                            x       y       z     vdW  Elec       q    Type
REMARK                         _______ _______ _______ _____ _____    ______ ____
ROOT
ATOM      1  C   LIG    1       23.951 -17.728   4.515  0.00  0.00    +0.051 C 
ATOM      2  C   LIG    1       24.717 -18.763   3.668  0.00  0.00    +0.065 C 
ATOM      3  C   LIG    1       23.583 -19.483   2.962  0.00  0.00    +0.140 C 
ATOM      4  O   LIG    1       23.744 -20.229   2.002  0.00  0.00    -0.297 OA
ATOM      5  C   LIG    1       22.222 -19.121   3.481  0.00  0.00    +0.106 C 
ATOM      6  C   LIG    1       22.542 -18.317   4.730  0.00  0.00    +0.129 C 
ENDROOT
BRANCH   6   7
ATOM      7  O   LIG    1       22.514 -19.180   5.863  0.00  0.00    -0.391 OA
ATOM      8  H   LIG    1       22.925 -20.024   5.605  0.00  0.00    +0.210 HD
ENDBRANCH   6   7
BRANCH   1  10
ATOM      9  C   LIG    1       23.696 -15.228   4.390  0.00  0.00    -0.000 C 
ATOM     10  C   LIG    1       23.858 -16.411   3.776  0.00  0.00    -0.022 C 
BRANCH   9  11
ATOM     11  C   LIG    1       23.457 -13.938   3.654  0.00  0.00    +0.137 C 
BRANCH  11  12
ATOM     12  O   LIG    1       24.021 -12.919   4.470  0.00  0.00    -0.388 OA
ATOM     13  H   LIG    1       24.956 -13.157   4.603  0.00  0.00    +0.210 HD
ENDBRANCH  11  12
BRANCH  11  14
ATOM     14  C   LIG    1       24.103 -13.920   2.259  0.00  0.00    +0.039 C 
BRANCH  14  15
ATOM     15  C   LIG    1       25.540 -13.338   2.194  0.00  0.00    -0.011 C 
ATOM     16  C   LIG    1       25.476 -11.801   2.185  0.00  0.00    +0.007 C 
BRANCH  15  17
ATOM     17  C   LIG    1       26.493 -13.850   3.304  0.00  0.00    +0.003 C 
BRANCH  17  18
ATOM     18  C   LIG    1       27.959 -13.447   3.110  0.00  0.00    -0.000 C 
BRANCH  18  20
ATOM     19  C   LIG    1       27.971 -13.139   5.608  0.00  0.00    +0.004 C 
ATOM     20  C   LIG    1       28.533 -12.642   4.279  0.00  0.00    -0.003 C 
ENDBRANCH  18  20
ENDBRANCH  17  18
ENDBRANCH  15  17
ENDBRANCH  14  15
ENDBRANCH  11  14
ENDBRANCH   9  11
ENDBRANCH   1  10
BRANCH   2  21
ATOM     21  C   LIG    1       25.610 -19.698   4.499  0.00  0.00    +0.011 C 
BRANCH  21  22
ATOM     22  C   LIG    1       24.796 -20.830   5.139  0.00  0.00    +0.001 C 
BRANCH  22  23
ATOM     23  C   LIG    1       25.132 -21.145   6.598  0.00  0.00    +0.004 C 
BRANCH  23  24
ATOM     24  C   LIG    1       26.586 -21.569   6.818  0.00  0.00    +0.027 C 
BRANCH  24  25
ATOM     25  C   LIG    1       27.600 -20.457   6.877  0.00  0.00    -0.020 C 
ATOM     26  C   LIG    1       28.204 -19.853   5.838  0.00  0.00    +0.087 C 
BRANCH  26  27
ATOM     27  C   LIG    1       29.104 -18.702   5.984  0.00  0.00    +0.329 C 
ATOM     28  O   LIG    1       29.474 -18.245   7.062  0.00  0.00    -0.246 OA
BRANCH  27  29
ATOM     29  O   LIG    1       29.475 -18.157   4.821  0.00  0.00    -0.477 OA
ATOM     30  H   LIG    1       29.746 -17.246   5.057  0.00  0.00    +0.295 HD
ENDBRANCH  27  29
ENDBRANCH  26  27
ENDBRANCH  24  25
ENDBRANCH  23  24
ENDBRANCH  22  23
ENDBRANCH  21  22
ENDBRANCH   2  21
TORSDOF 16
ENDMDL
MODEL 8
REMARK VINA RESULT:      -0.2      2.260      6.298
REMARK  Name = *****
REMARK                            x       y       z     vdW  Elec       q    Type
REMARK                         _______ _______ _______ _____ _____    ______ ____
ROOT
ATOM      1  C   LIG    1       23.589 -16.931   4.572  0.00  0.00    +0.051 C 
ATOM      2  C   LIG    1       22.971 -18.267   4.114  0.00  0.00    +0.065 C 
ATOM      3  C   LIG    1       21.604 -17.823   3.628  0.00  0.00    +0.140 C 
ATOM      4  O   LIG    1       20.860 -18.527   2.953  0.00  0.00    -0.297 OA
ATOM      5  C   LIG    1       21.277 -16.397   3.963  0.00  0.00    +0.106 C 
ATOM      6  C   LIG    1       22.399 -16.009   4.912  0.00  0.00    +0.129 C 
ENDROOT
BRANCH   6   7
ATOM      7  O   LIG    1       21.966 -16.204   6.255  0.00  0.00    -0.391 OA
ATOM      8  H   LIG    1       22.634 -16.749   6.707  0.00  0.00    +0.210 HD
ENDBRANCH   6   7
BRANCH   1  10
ATOM      9  C   LIG    1       25.277 -15.312   3.644  0.00  0.00    -0.000 C 
ATOM     10  C   LIG    1       24.415 -16.325   3.458  0.00  0.00    -0.022 C 
BRANCH   9  11
ATOM     11  C   LIG    1       25.988 -14.614   2.517  0.00  0.00    +0.137 C 
BRANCH  11  12
ATOM     12  O   LIG    1       24.995 -13.844   1.852  0.00  0.00    -0.388 OA
ATOM     13  H   LIG    1       24.191 -13.899   2.400  0.00  0.00    +0.210 HD
ENDBRANCH  11  12
BRANCH  11  14
ATOM     14  C   LIG    1       27.128 -13.705   3.004  0.00  0.00    +0.039 C 
BRANCH  14  15
ATOM     15  C   LIG    1       27.361 -13.687   4.538  0.00  0.00    -0.011 C 
ATOM     16  C   LIG    1       28.498 -12.707   4.878  0.00  0.00    +0.007 C 
BRANCH  15  17
ATOM     17  C   LIG    1       26.094 -13.384   5.378  0.00  0.00    +0.003 C 
BRANCH  17  18
ATOM     18  C   LIG    1       25.516 -11.981   5.163  0.00  0.00    -0.000 C 
BRANCH  18  20
ATOM     19  C   LIG    1       23.689 -11.785   3.444  0.00  0.00    +0.004 C 
ATOM     20  C   LIG    1       24.005 -11.969   4.926  0.00  0.00    -0.003 C 
ENDBRANCH  18  20
ENDBRANCH  17  18
ENDBRANCH  15  17
ENDBRANCH  14  15
ENDBRANCH  11  14
ENDBRANCH   9  11
ENDBRANCH   1  10
BRANCH   2  21
ATOM     21  C   LIG    1       22.910 -19.328   5.224  0.00  0.00    +0.011 C 
BRANCH  21  22
ATOM     22  C   LIG    1       23.530 -20.655   4.767  0.00  0.00    +0.001 C 
BRANCH  22  23
ATOM     23  C   LIG    1       24.033 -21.571   5.884  0.00  0.00    +0.004 C 
BRANCH  23  24
ATOM     24  C   LIG    1       24.659 -20.821   7.062  0.00  0.00    +0.027 C 
BRANCH  24  25
ATOM     25  C   LIG    1       26.163 -20.723   7.062  0.00  0.00    -0.020 C 
ATOM     26  C   LIG    1       26.951 -20.357   6.036  0.00  0.00    +0.087 C 
BRANCH  26  27
ATOM     27  C   LIG    1       28.405 -20.186   6.155  0.00  0.00    +0.329 C 
ATOM     28  O   LIG    1       28.983 -19.105   6.080  0.00  0.00    -0.246 OA
BRANCH  27  29
ATOM     29  O   LIG    1       29.070 -21.332   6.328  0.00  0.00    -0.477 OA
ATOM     30  H   LIG    1       28.460 -22.018   5.986  0.00  0.00    +0.295 HD
ENDBRANCH  27  29
ENDBRANCH  26  27
ENDBRANCH  24  25
ENDBRANCH  23  24
ENDBRANCH  22  23
ENDBRANCH  21  22
ENDBRANCH   2  21
TORSDOF 16
ENDMDL
