MODEL 1
REMARK VINA RESULT:      -6.9      0.000      0.000
REMARK  Name = *****
REMARK                            x       y       z     vdW  Elec       q    Type
REMARK                         _______ _______ _______ _____ _____    ______ ____
ROOT
ATOM      1  O   LIG    1       24.483 -28.066   7.290  0.00  0.00    -0.340 OA
ENDROOT
BRANCH   1   5
ATOM      2  C   LIG    1       25.263 -24.902   7.240  0.00  0.00    +0.283 C 
ATOM      3  C   LIG    1       24.184 -24.974   6.157  0.00  0.00    +0.201 C 
ATOM      4  C   LIG    1       24.130 -26.395   5.520  0.00  0.00    +0.180 C 
ATOM      5  C   LIG    1       25.073 -27.466   6.086  0.00  0.00    +0.192 C 
ATOM      6  C   LIG    1       26.442 -26.836   6.364  0.00  0.00    +0.261 C 
ATOM      7  O   LIG    1       26.404 -25.399   6.573  0.00  0.00    -0.332 OA
BRANCH   6   8
ATOM      8  C   LIG    1       27.475 -26.996   5.236  0.00  0.00    +0.337 C 
ATOM      9  O   LIG    1       27.246 -27.274   4.071  0.00  0.00    -0.248 OA
BRANCH   8  10
ATOM     10  O   LIG    1       28.751 -26.751   5.579  0.00  0.00    -0.479 OA
ATOM     11  H   LIG    1       29.203 -27.078   4.768  0.00  0.00    +0.295 HD
ENDBRANCH   8  10
ENDBRANCH   6   8
BRANCH   4  12
ATOM     12  O   LIG    1       24.354 -26.334   4.111  0.00  0.00    -0.386 OA
ATOM     13  H   LIG    1       24.694 -25.436   3.953  0.00  0.00    +0.210 HD
ENDBRANCH   4  12
BRANCH   3  14
ATOM     14  O   LIG    1       22.899 -24.567   6.634  0.00  0.00    -0.384 OA
ATOM     15  H   LIG    1       22.195 -24.913   6.054  0.00  0.00    +0.210 HD
ENDBRANCH   3  14
BRANCH   2  16
ATOM     16  O   LIG    1       25.516 -23.575   7.754  0.00  0.00    -0.341 OA
BRANCH  16  18
ATOM     17  C   LIG    1       26.865 -21.403   7.553  0.00  0.00    +0.160 C 
ATOM     18  C   LIG    1       26.069 -22.546   6.856  0.00  0.00    +0.177 C 
ATOM     19  C   LIG    1       25.013 -21.951   5.901  0.00  0.00    +0.176 C 
ATOM     20  C   LIG    1       24.259 -20.762   6.545  0.00  0.00    +0.178 C 
ATOM     21  O   LIG    1       24.521 -20.640   7.939  0.00  0.00    -0.341 OA
ATOM     22  C   LIG    1       25.904 -20.411   8.232  0.00  0.00    +0.270 C 
BRANCH  17  25
ATOM     23  C   LIG    1       29.424 -19.020   5.979  0.00  0.00    +0.109 C 
ATOM     24  C   LIG    1       28.708 -19.770   7.076  0.00  0.00    +0.210 C 
ATOM     25  N   LIG    1       27.725 -20.616   6.639  0.00  0.00    -0.305 N 
ATOM     26  H   LIG    1       27.718 -20.868   5.657  0.00  0.00    +0.149 HD
ATOM     27  O   LIG    1       28.964 -19.597   8.262  0.00  0.00    -0.276 OA
ENDBRANCH  17  25
BRANCH  22  28
ATOM     28  O   LIG    1       26.176 -20.368   9.622  0.00  0.00    -0.365 OA
ATOM     29  H   LIG    1       27.160 -20.385   9.711  0.00  0.00    +0.212 HD
ENDBRANCH  22  28
BRANCH  19  30
ATOM     30  O   LIG    1       25.631 -21.459   4.699  0.00  0.00    -0.387 OA
ATOM     31  H   LIG    1       25.806 -22.234   4.132  0.00  0.00    +0.210 HD
ENDBRANCH  19  30
BRANCH  20  32
ATOM     32  C   LIG    1       22.746 -20.924   6.307  0.00  0.00    +0.190 C 
BRANCH  32  33
ATOM     33  O   LIG    1       22.518 -21.975   5.379  0.00  0.00    -0.392 OA
ATOM     34  H   LIG    1       23.118 -21.847   4.625  0.00  0.00    +0.209 HD
ENDBRANCH  32  33
ENDBRANCH  20  32
ENDBRANCH  16  18
ENDBRANCH   2  16
ENDBRANCH   1   5
BRANCH   1  35
ATOM     35  C   LIG    1       25.350 -29.066   7.884  0.00  0.00    +0.274 C 
ATOM     36  C   LIG    1       24.759 -29.665   9.216  0.00  0.00    +0.160 C 
ATOM     37  C   LIG    1       23.821 -30.901   8.954  0.00  0.00    +0.177 C 
ATOM     38  C   LIG    1       23.831 -31.322   7.469  0.00  0.00    +0.176 C 
ATOM     39  C   LIG    1       25.291 -31.389   7.055  0.00  0.00    +0.178 C 
ATOM     40  O   LIG    1       25.786 -30.059   6.943  0.00  0.00    -0.341 OA
BRANCH  36  41
ATOM     41  N   LIG    1       25.933 -29.917  10.069  0.00  0.00    -0.305 N 
ATOM     42  H   LIG    1       26.142 -30.899  10.201  0.00  0.00    +0.149 HD
ATOM     43  C   LIG    1       26.498 -29.102  10.999  0.00  0.00    +0.210 C 
ATOM     44  O   LIG    1       25.874 -28.214  11.594  0.00  0.00    -0.276 OA
ATOM     45  C   LIG    1       27.966 -29.359  11.225  0.00  0.00    +0.109 C 
ENDBRANCH  36  41
BRANCH  38  46
ATOM     46  O   LIG    1       23.080 -32.500   7.217  0.00  0.00    -0.387 OA
ATOM     47  H   LIG    1       23.647 -33.251   7.494  0.00  0.00    +0.210 HD
ENDBRANCH  38  46
BRANCH  39  48
ATOM     48  C   LIG    1       25.585 -32.184   5.770  0.00  0.00    +0.190 C 
BRANCH  48  49
ATOM     49  O   LIG    1       24.576 -32.031   4.787  0.00  0.00    -0.392 OA
ATOM     50  H   LIG    1       23.891 -31.457   5.190  0.00  0.00    +0.209 HD
ENDBRANCH  48  49
ENDBRANCH  39  48
BRANCH  37  51
ATOM     51  O   LIG    1       23.829 -31.980   9.901  0.00  0.00    -0.341 OA
BRANCH  51  52
ATOM     52  C   LIG    1       22.840 -32.239  10.909  0.00  0.00    +0.283 C 
ATOM     53  C   LIG    1       23.527 -33.242  11.881  0.00  0.00    +0.201 C 
ATOM     54  C   LIG    1       24.654 -32.499  12.638  0.00  0.00    +0.179 C 
ATOM     55  C   LIG    1       24.307 -31.072  13.049  0.00  0.00    +0.185 C 
ATOM     56  C   LIG    1       22.808 -30.905  12.984  0.00  0.00    +0.260 C 
ATOM     57  O   LIG    1       22.389 -31.033  11.584  0.00  0.00    -0.332 OA
BRANCH  56  58
ATOM     58  C   LIG    1       22.486 -29.516  13.465  0.00  0.00    +0.337 C 
ATOM     59  O   LIG    1       21.525 -29.206  14.240  0.00  0.00    -0.248 OA
BRANCH  58  60
ATOM     60  O   LIG    1       23.327 -28.593  13.011  0.00  0.00    -0.479 OA
ATOM     61  H   LIG    1       23.840 -29.084  12.325  0.00  0.00    +0.295 HD
ENDBRANCH  58  60
ENDBRANCH  56  58
BRANCH  55  62
ATOM     62  O   LIG    1       24.921 -30.831  14.313  0.00  0.00    -0.386 OA
ATOM     63  H   LIG    1       24.589 -29.962  14.614  0.00  0.00    +0.210 HD
ENDBRANCH  55  62
BRANCH  54  64
ATOM     64  O   LIG    1       25.851 -32.380  11.861  0.00  0.00    -0.386 OA
ATOM     65  H   LIG    1       26.100 -31.431  11.884  0.00  0.00    +0.210 HD
ENDBRANCH  54  64
BRANCH  53  66
ATOM     66  O   LIG    1       22.583 -33.817  12.803  0.00  0.00    -0.384 OA
ATOM     67  H   LIG    1       22.058 -34.471  12.301  0.00  0.00    +0.210 HD
ENDBRANCH  53  66
ENDBRANCH  51  52
ENDBRANCH  37  51
ENDBRANCH   1  35
TORSDOF 24
ENDMDL
MODEL 2
REMARK VINA RESULT:      -6.4      1.817      2.998
REMARK  Name = *****
REMARK                            x       y       z     vdW  Elec       q    Type
REMARK                         _______ _______ _______ _____ _____    ______ ____
ROOT
ATOM      1  O   LIG    1       25.525 -27.482   8.250  0.00  0.00    -0.340 OA
ENDROOT
BRANCH   1   5
ATOM      2  C   LIG    1       25.625 -24.814   6.381  0.00  0.00    +0.283 C 
ATOM      3  C   LIG    1       24.229 -25.358   6.072  0.00  0.00    +0.201 C 
ATOM      4  C   LIG    1       24.177 -26.903   6.276  0.00  0.00    +0.180 C 
ATOM      5  C   LIG    1       25.447 -27.597   6.788  0.00  0.00    +0.192 C 
ATOM      6  C   LIG    1       26.669 -26.988   6.092  0.00  0.00    +0.261 C 
ATOM      7  O   LIG    1       26.460 -25.638   5.595  0.00  0.00    -0.332 OA
BRANCH   6   8
ATOM      8  C   LIG    1       27.155 -27.745   4.845  0.00  0.00    +0.337 C 
ATOM      9  O   LIG    1       28.102 -27.450   4.136  0.00  0.00    -0.248 OA
BRANCH   8  10
ATOM     10  O   LIG    1       26.484 -28.873   4.553  0.00  0.00    -0.479 OA
ATOM     11  H   LIG    1       26.521 -28.833   3.570  0.00  0.00    +0.295 HD
ENDBRANCH   8  10
ENDBRANCH   6   8
BRANCH   4  12
ATOM     12  O   LIG    1       23.785 -27.566   5.073  0.00  0.00    -0.386 OA
ATOM     13  H   LIG    1       24.165 -27.026   4.358  0.00  0.00    +0.210 HD
ENDBRANCH   4  12
BRANCH   3  14
ATOM     14  O   LIG    1       23.204 -24.699   6.819  0.00  0.00    -0.384 OA
ATOM     15  H   LIG    1       23.480 -23.792   7.051  0.00  0.00    +0.210 HD
ENDBRANCH   3  14
BRANCH   2  16
ATOM     16  O   LIG    1       25.821 -23.423   6.038  0.00  0.00    -0.341 OA
BRANCH  16  18
ATOM     17  C   LIG    1       24.624 -21.386   5.042  0.00  0.00    +0.160 C 
ATOM     18  C   LIG    1       24.688 -22.488   6.141  0.00  0.00    +0.177 C 
ATOM     19  C   LIG    1       24.560 -21.850   7.540  0.00  0.00    +0.176 C 
ATOM     20  C   LIG    1       25.424 -20.573   7.672  0.00  0.00    +0.178 C 
ATOM     21  O   LIG    1       26.325 -20.409   6.584  0.00  0.00    -0.341 OA
ATOM     22  C   LIG    1       25.663 -20.285   5.320  0.00  0.00    +0.270 C 
BRANCH  17  25
ATOM     23  C   LIG    1       21.697 -19.034   4.259  0.00  0.00    +0.109 C 
ATOM     24  C   LIG    1       23.103 -19.582   4.192  0.00  0.00    +0.210 C 
ATOM     25  N   LIG    1       23.306 -20.719   4.927  0.00  0.00    -0.305 N 
ATOM     26  H   LIG    1       22.491 -21.235   5.238  0.00  0.00    +0.149 HD
ATOM     27  O   LIG    1       23.993 -19.025   3.560  0.00  0.00    -0.276 OA
ENDBRANCH  17  25
BRANCH  22  28
ATOM     28  O   LIG    1       26.562 -20.201   4.228  0.00  0.00    -0.365 OA
ATOM     29  H   LIG    1       27.374 -20.693   4.500  0.00  0.00    +0.212 HD
ENDBRANCH  22  28
BRANCH  19  30
ATOM     30  O   LIG    1       23.198 -21.470   7.806  0.00  0.00    -0.387 OA
ATOM     31  H   LIG    1       22.910 -20.905   7.063  0.00  0.00    +0.210 HD
ENDBRANCH  19  30
BRANCH  20  32
ATOM     32  C   LIG    1       26.205 -20.616   8.999  0.00  0.00    +0.190 C 
BRANCH  32  33
ATOM     33  O   LIG    1       27.317 -21.491   8.871  0.00  0.00    -0.392 OA
ATOM     34  H   LIG    1       27.098 -22.324   9.321  0.00  0.00    +0.209 HD
ENDBRANCH  32  33
ENDBRANCH  20  32
ENDBRANCH  16  18
ENDBRANCH   2  16
ENDBRANCH   1   5
BRANCH   1  35
ATOM     35  C   LIG    1       26.068 -28.679   8.864  0.00  0.00    +0.274 C 
ATOM     36  C   LIG    1       25.581 -28.871  10.350  0.00  0.00    +0.160 C 
ATOM     37  C   LIG    1       24.225 -29.662  10.440  0.00  0.00    +0.177 C 
ATOM     38  C   LIG    1       23.780 -30.195   9.060  0.00  0.00    +0.176 C 
ATOM     39  C   LIG    1       24.998 -30.864   8.449  0.00  0.00    +0.178 C 
ATOM     40  O   LIG    1       25.911 -29.848   8.046  0.00  0.00    -0.341 OA
BRANCH  36  41
ATOM     41  N   LIG    1       26.728 -29.478  11.047  0.00  0.00    -0.305 N 
ATOM     42  H   LIG    1       26.648 -30.478  11.178  0.00  0.00    +0.149 HD
ATOM     43  C   LIG    1       27.633 -28.884  11.869  0.00  0.00    +0.210 C 
ATOM     44  O   LIG    1       27.393 -27.857  12.517  0.00  0.00    -0.276 OA
ATOM     45  C   LIG    1       28.972 -29.577  11.907  0.00  0.00    +0.109 C 
ENDBRANCH  36  41
BRANCH  38  46
ATOM     46  O   LIG    1       22.616 -31.005   9.123  0.00  0.00    -0.387 OA
ATOM     47  H   LIG    1       22.607 -31.535   8.297  0.00  0.00    +0.210 HD
ENDBRANCH  38  46
BRANCH  39  48
ATOM     48  C   LIG    1       24.715 -31.829   7.283  0.00  0.00    +0.190 C 
BRANCH  48  49
ATOM     49  O   LIG    1       23.673 -31.377   6.437  0.00  0.00    -0.392 OA
ATOM     50  H   LIG    1       23.755 -30.400   6.405  0.00  0.00    +0.209 HD
ENDBRANCH  48  49
ENDBRANCH  39  48
BRANCH  37  51
ATOM     51  O   LIG    1       24.030 -30.564  11.540  0.00  0.00    -0.341 OA
BRANCH  51  52
ATOM     52  C   LIG    1       22.835 -30.709  12.323  0.00  0.00    +0.283 C 
ATOM     53  C   LIG    1       23.347 -30.995  13.766  0.00  0.00    +0.201 C 
ATOM     54  C   LIG    1       24.007 -29.709  14.316  0.00  0.00    +0.179 C 
ATOM     55  C   LIG    1       23.285 -28.417  13.948  0.00  0.00    +0.185 C 
ATOM     56  C   LIG    1       21.884 -28.762  13.503  0.00  0.00    +0.260 C 
ATOM     57  O   LIG    1       21.972 -29.541  12.263  0.00  0.00    -0.332 OA
BRANCH  56  58
ATOM     58  C   LIG    1       21.169 -27.469  13.217  0.00  0.00    +0.337 C 
ATOM     59  O   LIG    1       21.720 -26.326  13.117  0.00  0.00    -0.248 OA
BRANCH  58  60
ATOM     60  O   LIG    1       19.858 -27.616  13.053  0.00  0.00    -0.479 OA
ATOM     61  H   LIG    1       19.656 -28.404  13.612  0.00  0.00    +0.295 HD
ENDBRANCH  58  60
ENDBRANCH  56  58
BRANCH  55  62
ATOM     62  O   LIG    1       23.400 -27.532  15.059  0.00  0.00    -0.386 OA
ATOM     63  H   LIG    1       22.856 -27.920  15.773  0.00  0.00    +0.210 HD
ENDBRANCH  55  62
BRANCH  54  64
ATOM     64  O   LIG    1       25.346 -29.532  13.840  0.00  0.00    -0.386 OA
ATOM     65  H   LIG    1       25.766 -30.419  13.868  0.00  0.00    +0.210 HD
ENDBRANCH  54  64
BRANCH  53  66
ATOM     66  O   LIG    1       22.281 -31.433  14.628  0.00  0.00    -0.384 OA
ATOM     67  H   LIG    1       21.537 -31.696  14.051  0.00  0.00    +0.210 HD
ENDBRANCH  53  66
ENDBRANCH  51  52
ENDBRANCH  37  51
ENDBRANCH   1  35
TORSDOF 24
ENDMDL
MODEL 3
REMARK VINA RESULT:      -5.9      1.516      2.922
REMARK  Name = *****
REMARK                            x       y       z     vdW  Elec       q    Type
REMARK                         _______ _______ _______ _____ _____    ______ ____
ROOT
ATOM      1  O   LIG    1       24.318 -28.052   7.423  0.00  0.00    -0.340 OA
ENDROOT
BRANCH   1   5
ATOM      2  C   LIG    1       25.144 -24.902   7.285  0.00  0.00    +0.283 C 
ATOM      3  C   LIG    1       24.068 -24.989   6.201  0.00  0.00    +0.201 C 
ATOM      4  C   LIG    1       23.996 -26.427   5.604  0.00  0.00    +0.180 C 
ATOM      5  C   LIG    1       24.921 -27.495   6.205  0.00  0.00    +0.192 C 
ATOM      6  C   LIG    1       26.298 -26.877   6.470  0.00  0.00    +0.261 C 
ATOM      7  O   LIG    1       26.280 -25.433   6.637  0.00  0.00    -0.332 OA
BRANCH   6   8
ATOM      8  C   LIG    1       27.332 -27.083   5.351  0.00  0.00    +0.337 C 
ATOM      9  O   LIG    1       27.110 -27.456   4.211  0.00  0.00    -0.248 OA
BRANCH   8  10
ATOM     10  O   LIG    1       28.601 -26.768   5.667  0.00  0.00    -0.479 OA
ATOM     11  H   LIG    1       28.834 -26.225   4.880  0.00  0.00    +0.295 HD
ENDBRANCH   8  10
ENDBRANCH   6   8
BRANCH   4  12
ATOM     12  O   LIG    1       24.226 -26.410   4.195  0.00  0.00    -0.386 OA
ATOM     13  H   LIG    1       24.033 -27.317   3.901  0.00  0.00    +0.210 HD
ENDBRANCH   4  12
BRANCH   3  14
ATOM     14  O   LIG    1       22.787 -24.551   6.661  0.00  0.00    -0.384 OA
ATOM     15  H   LIG    1       22.094 -24.785   6.015  0.00  0.00    +0.210 HD
ENDBRANCH   3  14
BRANCH   2  16
ATOM     16  O   LIG    1       25.414 -23.564   7.762  0.00  0.00    -0.341 OA
BRANCH  16  18
ATOM     17  C   LIG    1       26.856 -21.457   7.523  0.00  0.00    +0.160 C 
ATOM     18  C   LIG    1       26.014 -22.578   6.846  0.00  0.00    +0.177 C 
ATOM     19  C   LIG    1       24.987 -21.958   5.875  0.00  0.00    +0.176 C 
ATOM     20  C   LIG    1       24.283 -20.725   6.491  0.00  0.00    +0.178 C 
ATOM     21  O   LIG    1       24.545 -20.586   7.883  0.00  0.00    -0.341 OA
ATOM     22  C   LIG    1       25.936 -20.410   8.178  0.00  0.00    +0.270 C 
BRANCH  17  25
ATOM     23  C   LIG    1       29.496 -19.190   5.910  0.00  0.00    +0.109 C 
ATOM     24  C   LIG    1       28.739 -19.879   7.021  0.00  0.00    +0.210 C 
ATOM     25  N   LIG    1       27.751 -20.726   6.597  0.00  0.00    -0.305 N 
ATOM     26  H   LIG    1       27.763 -21.021   5.627  0.00  0.00    +0.149 HD
ATOM     27  O   LIG    1       28.971 -19.659   8.204  0.00  0.00    -0.276 OA
ENDBRANCH  17  25
BRANCH  22  28
ATOM     28  O   LIG    1       26.205 -20.351   9.567  0.00  0.00    -0.365 OA
ATOM     29  H   LIG    1       25.433 -19.893   9.979  0.00  0.00    +0.212 HD
ENDBRANCH  22  28
BRANCH  19  30
ATOM     30  O   LIG    1       25.630 -21.518   4.665  0.00  0.00    -0.387 OA
ATOM     31  H   LIG    1       25.977 -22.315   4.222  0.00  0.00    +0.210 HD
ENDBRANCH  19  30
BRANCH  20  32
ATOM     32  C   LIG    1       22.766 -20.827   6.250  0.00  0.00    +0.190 C 
BRANCH  32  33
ATOM     33  O   LIG    1       22.494 -21.900   5.360  0.00  0.00    -0.392 OA
ATOM     34  H   LIG    1       21.531 -22.023   5.321  0.00  0.00    +0.209 HD
ENDBRANCH  32  33
ENDBRANCH  20  32
ENDBRANCH  16  18
ENDBRANCH   2  16
ENDBRANCH   1   5
BRANCH   1  35
ATOM     35  C   LIG    1       24.785 -29.398   7.698  0.00  0.00    +0.274 C 
ATOM     36  C   LIG    1       25.880 -29.439   8.829  0.00  0.00    +0.160 C 
ATOM     37  C   LIG    1       25.254 -29.561  10.267  0.00  0.00    +0.177 C 
ATOM     38  C   LIG    1       23.724 -29.767  10.209  0.00  0.00    +0.176 C 
ATOM     39  C   LIG    1       23.481 -30.866   9.192  0.00  0.00    +0.178 C 
ATOM     40  O   LIG    1       23.713 -30.333   7.892  0.00  0.00    -0.341 OA
BRANCH  36  41
ATOM     41  N   LIG    1       26.792 -30.524   8.431  0.00  0.00    -0.305 N 
ATOM     42  H   LIG    1       27.750 -30.388   8.730  0.00  0.00    +0.149 HD
ATOM     43  C   LIG    1       26.653 -31.424   7.421  0.00  0.00    +0.210 C 
ATOM     44  O   LIG    1       25.975 -31.209   6.407  0.00  0.00    -0.276 OA
ATOM     45  C   LIG    1       27.381 -32.723   7.655  0.00  0.00    +0.109 C 
ENDBRANCH  36  41
BRANCH  38  46
ATOM     46  O   LIG    1       23.142 -29.988  11.485  0.00  0.00    -0.387 OA
ATOM     47  H   LIG    1       22.905 -29.102  11.835  0.00  0.00    +0.210 HD
ENDBRANCH  38  46
BRANCH  39  48
ATOM     48  C   LIG    1       22.100 -31.544   9.257  0.00  0.00    +0.190 C 
BRANCH  48  49
ATOM     49  O   LIG    1       22.027 -32.543  10.259  0.00  0.00    -0.392 OA
ATOM     50  H   LIG    1       22.246 -33.389   9.815  0.00  0.00    +0.209 HD
ENDBRANCH  48  49
ENDBRANCH  39  48
BRANCH  37  51
ATOM     51  O   LIG    1       25.945 -30.346  11.251  0.00  0.00    -0.341 OA
BRANCH  51  52
ATOM     52  C   LIG    1       25.836 -30.215  12.677  0.00  0.00    +0.283 C 
ATOM     53  C   LIG    1       27.309 -30.141  13.175  0.00  0.00    +0.201 C 
ATOM     54  C   LIG    1       27.915 -28.793  12.716  0.00  0.00    +0.179 C 
ATOM     55  C   LIG    1       26.963 -27.605  12.806  0.00  0.00    +0.185 C 
ATOM     56  C   LIG    1       25.818 -27.977  13.717  0.00  0.00    +0.260 C 
ATOM     57  O   LIG    1       25.055 -29.058  13.082  0.00  0.00    -0.332 OA
BRANCH  56  58
ATOM     58  C   LIG    1       24.933 -26.767  13.849  0.00  0.00    +0.337 C 
ATOM     59  O   LIG    1       23.772 -26.642  13.343  0.00  0.00    -0.248 OA
BRANCH  58  60
ATOM     60  O   LIG    1       25.472 -25.797  14.581  0.00  0.00    -0.479 OA
ATOM     61  H   LIG    1       26.374 -26.147  14.776  0.00  0.00    +0.295 HD
ENDBRANCH  58  60
ENDBRANCH  56  58
BRANCH  55  62
ATOM     62  O   LIG    1       27.734 -26.468  13.184  0.00  0.00    -0.386 OA
ATOM     63  H   LIG    1       27.247 -26.042  13.918  0.00  0.00    +0.210 HD
ENDBRANCH  55  62
BRANCH  54  64
ATOM     64  O   LIG    1       28.343 -28.821  11.349  0.00  0.00    -0.386 OA
ATOM     65  H   LIG    1       27.657 -29.321  10.857  0.00  0.00    +0.210 HD
ENDBRANCH  54  64
BRANCH  53  66
ATOM     66  O   LIG    1       27.392 -30.279  14.605  0.00  0.00    -0.384 OA
ATOM     67  H   LIG    1       27.404 -31.237  14.798  0.00  0.00    +0.210 HD
ENDBRANCH  53  66
ENDBRANCH  51  52
ENDBRANCH  37  51
ENDBRANCH   1  35
TORSDOF 24
ENDMDL
MODEL 4
REMARK VINA RESULT:      -4.1      1.832      3.039
REMARK  Name = *****
REMARK                            x       y       z     vdW  Elec       q    Type
REMARK                         _______ _______ _______ _____ _____    ______ ____
ROOT
ATOM      1  O   LIG    1       25.694 -27.436   8.257  0.00  0.00    -0.340 OA
ENDROOT
BRANCH   1   5
ATOM      2  C   LIG    1       25.700 -24.790   6.354  0.00  0.00    +0.283 C 
ATOM      3  C   LIG    1       24.315 -25.376   6.069  0.00  0.00    +0.201 C 
ATOM      4  C   LIG    1       24.308 -26.918   6.293  0.00  0.00    +0.180 C 
ATOM      5  C   LIG    1       25.602 -27.571   6.798  0.00  0.00    +0.192 C 
ATOM      6  C   LIG    1       26.798 -26.939   6.080  0.00  0.00    +0.261 C 
ATOM      7  O   LIG    1       26.547 -25.602   5.568  0.00  0.00    -0.332 OA
BRANCH   6   8
ATOM      8  C   LIG    1       27.290 -27.699   4.837  0.00  0.00    +0.337 C 
ATOM      9  O   LIG    1       28.343 -27.527   4.246  0.00  0.00    -0.248 OA
BRANCH   8  10
ATOM     10  O   LIG    1       26.484 -28.683   4.401  0.00  0.00    -0.479 OA
ATOM     11  H   LIG    1       27.131 -29.198   3.868  0.00  0.00    +0.295 HD
ENDBRANCH   8  10
ENDBRANCH   6   8
BRANCH   4  12
ATOM     12  O   LIG    1       23.920 -27.607   5.104  0.00  0.00    -0.386 OA
ATOM     13  H   LIG    1       23.499 -26.926   4.549  0.00  0.00    +0.210 HD
ENDBRANCH   4  12
BRANCH   3  14
ATOM     14  O   LIG    1       23.282 -24.734   6.821  0.00  0.00    -0.384 OA
ATOM     15  H   LIG    1       23.112 -25.220   7.649  0.00  0.00    +0.210 HD
ENDBRANCH   3  14
BRANCH   2  16
ATOM     16  O   LIG    1       25.855 -23.399   5.992  0.00  0.00    -0.341 OA
BRANCH  16  18
ATOM     17  C   LIG    1       24.505 -21.443   5.030  0.00  0.00    +0.160 C 
ATOM     18  C   LIG    1       24.721 -22.476   6.175  0.00  0.00    +0.177 C 
ATOM     19  C   LIG    1       24.746 -21.757   7.540  0.00  0.00    +0.176 C 
ATOM     20  C   LIG    1       25.592 -20.462   7.494  0.00  0.00    +0.178 C 
ATOM     21  O   LIG    1       26.355 -20.351   6.299  0.00  0.00    -0.341 OA
ATOM     22  C   LIG    1       25.546 -20.312   5.118  0.00  0.00    +0.270 C 
BRANCH  17  25
ATOM     23  C   LIG    1       21.454 -19.190   4.458  0.00  0.00    +0.109 C 
ATOM     24  C   LIG    1       22.852 -19.723   4.254  0.00  0.00    +0.210 C 
ATOM     25  N   LIG    1       23.169 -20.802   5.034  0.00  0.00    -0.305 N 
ATOM     26  H   LIG    1       22.410 -21.306   5.478  0.00  0.00    +0.149 HD
ATOM     27  O   LIG    1       23.645 -19.201   3.480  0.00  0.00    -0.276 OA
ENDBRANCH  17  25
BRANCH  22  28
ATOM     28  O   LIG    1       26.308 -20.281   3.924  0.00  0.00    -0.365 OA
ATOM     29  H   LIG    1       26.288 -21.199   3.559  0.00  0.00    +0.212 HD
ENDBRANCH  22  28
BRANCH  19  30
ATOM     30  O   LIG    1       23.417 -21.381   7.943  0.00  0.00    -0.387 OA
ATOM     31  H   LIG    1       22.930 -21.142   7.131  0.00  0.00    +0.210 HD
ENDBRANCH  19  30
BRANCH  20  32
ATOM     32  C   LIG    1       26.524 -20.415   8.719  0.00  0.00    +0.190 C 
BRANCH  32  33
ATOM     33  O   LIG    1       25.767 -20.616   9.904  0.00  0.00    -0.392 OA
ATOM     34  H   LIG    1       25.441 -21.531   9.901  0.00  0.00    +0.209 HD
ENDBRANCH  32  33
ENDBRANCH  20  32
ENDBRANCH  16  18
ENDBRANCH   2  16
ENDBRANCH   1   5
BRANCH   1  35
ATOM     35  C   LIG    1       25.952 -28.707   8.909  0.00  0.00    +0.274 C 
ATOM     36  C   LIG    1       24.736 -29.196   9.781  0.00  0.00    +0.160 C 
ATOM     37  C   LIG    1       23.702 -30.043   8.950  0.00  0.00    +0.177 C 
ATOM     38  C   LIG    1       24.210 -30.319   7.518  0.00  0.00    +0.176 C 
ATOM     39  C   LIG    1       25.639 -30.811   7.660  0.00  0.00    +0.178 C 
ATOM     40  O   LIG    1       26.462 -29.703   8.010  0.00  0.00    -0.341 OA
BRANCH  36  41
ATOM     41  N   LIG    1       25.350 -29.880  10.933  0.00  0.00    -0.305 N 
ATOM     42  H   LIG    1       25.925 -29.280  11.510  0.00  0.00    +0.149 HD
ATOM     43  C   LIG    1       25.595 -31.207  11.101  0.00  0.00    +0.210 C 
ATOM     44  O   LIG    1       25.755 -31.994  10.159  0.00  0.00    -0.276 OA
ATOM     45  C   LIG    1       25.631 -31.644  12.544  0.00  0.00    +0.109 C 
ENDBRANCH  36  41
BRANCH  38  46
ATOM     46  O   LIG    1       23.350 -31.170   6.775  0.00  0.00    -0.387 OA
ATOM     47  H   LIG    1       22.788 -31.633   7.434  0.00  0.00    +0.210 HD
ENDBRANCH  38  46
BRANCH  39  48
ATOM     48  C   LIG    1       26.216 -31.547   6.437  0.00  0.00    +0.190 C 
BRANCH  48  49
ATOM     49  O   LIG    1       26.756 -32.815   6.764  0.00  0.00    -0.392 OA
ATOM     50  H   LIG    1       26.095 -33.250   7.343  0.00  0.00    +0.209 HD
ENDBRANCH  48  49
ENDBRANCH  39  48
BRANCH  37  51
ATOM     51  O   LIG    1       23.044 -31.145   9.594  0.00  0.00    -0.341 OA
BRANCH  51  52
ATOM     52  C   LIG    1       21.744 -31.124  10.204  0.00  0.00    +0.283 C 
ATOM     53  C   LIG    1       21.245 -32.595  10.107  0.00  0.00    +0.201 C 
ATOM     54  C   LIG    1       22.097 -33.467  11.060  0.00  0.00    +0.179 C 
ATOM     55  C   LIG    1       22.435 -32.807  12.392  0.00  0.00    +0.185 C 
ATOM     56  C   LIG    1       21.495 -31.644  12.603  0.00  0.00    +0.260 C 
ATOM     57  O   LIG    1       21.769 -30.636  11.574  0.00  0.00    -0.332 OA
BRANCH  56  58
ATOM     58  C   LIG    1       21.799 -31.056  13.955  0.00  0.00    +0.337 C 
ATOM     59  O   LIG    1       22.381 -31.663  14.911  0.00  0.00    -0.248 OA
BRANCH  58  60
ATOM     60  O   LIG    1       21.410 -29.791  14.079  0.00  0.00    -0.479 OA
ATOM     61  H   LIG    1       21.236 -29.524  13.145  0.00  0.00    +0.295 HD
ENDBRANCH  58  60
ENDBRANCH  56  58
BRANCH  55  62
ATOM     62  O   LIG    1       22.423 -33.825  13.389  0.00  0.00    -0.386 OA
ATOM     63  H   LIG    1       21.481 -33.989  13.596  0.00  0.00    +0.210 HD
ENDBRANCH  55  62
BRANCH  54  64
ATOM     64  O   LIG    1       23.363 -33.824  10.492  0.00  0.00    -0.386 OA
ATOM     65  H   LIG    1       23.221 -34.672  10.019  0.00  0.00    +0.210 HD
ENDBRANCH  54  64
BRANCH  53  66
ATOM     66  O   LIG    1       19.846 -32.701  10.429  0.00  0.00    -0.384 OA
ATOM     67  H   LIG    1       19.699 -32.172  11.238  0.00  0.00    +0.210 HD
ENDBRANCH  53  66
ENDBRANCH  51  52
ENDBRANCH  37  51
ENDBRANCH   1  35
TORSDOF 24
ENDMDL
