MODEL 1
REMARK VINA RESULT:      -4.5      0.000      0.000
REMARK  Name = *****
REMARK                            x       y       z     vdW  Elec       q    Type
REMARK                         _______ _______ _______ _____ _____    ______ ____
ROOT
ATOM      1  C   LIG    1       23.576 -19.729   4.786  0.00  0.00    +0.053 A 
ATOM      2  C   LIG    1       24.902 -19.955   5.236  0.00  0.00    +0.007 A 
ATOM      3  C   LIG    1       25.106 -20.791   6.344  0.00  0.00    -0.011 A 
ATOM      4  C   LIG    1       26.399 -20.904   6.903  0.00  0.00    +0.058 A 
ATOM      5  C   LIG    1       27.501 -20.256   6.333  0.00  0.00    +0.162 A 
ATOM      6  C   LIG    1       27.335 -19.569   5.129  0.00  0.00    +0.162 A 
ATOM      7  C   LIG    1       24.020 -21.496   6.868  0.00  0.00    +0.028 A 
ATOM      8  C   LIG    1       22.772 -21.289   6.301  0.00  0.00    +0.112 A 
ATOM      9  C   LIG    1       26.036 -19.385   4.621  0.00  0.00    +0.059 A 
ATOM     10  N   LIG    1       22.522 -20.412   5.311  0.00  0.00    -0.259 NA
ENDROOT
BRANCH   6  11
ATOM     11  O   LIG    1       28.429 -19.050   4.465  0.00  0.00    -0.491 OA
ATOM     12  C   LIG    1       29.199 -18.111   5.208  0.00  0.00    +0.277 C 
ENDBRANCH   6  11
BRANCH   5  13
ATOM     13  O   LIG    1       28.655 -20.406   7.062  0.00  0.00    -0.491 OA
ATOM     14  C   LIG    1       29.453 -21.567   6.857  0.00  0.00    +0.277 C 
ENDBRANCH   5  13
BRANCH   1  15
ATOM     15  C   LIG    1       23.224 -18.709   3.695  0.00  0.00    +0.091 C 
BRANCH  15  19
ATOM     16  C   LIG    1       24.534 -14.551   4.018  0.00  0.00    +0.162 A 
ATOM     17  C   LIG    1       25.397 -15.513   3.474  0.00  0.00    +0.162 A 
ATOM     18  C   LIG    1       24.964 -16.854   3.371  0.00  0.00    +0.053 A 
ATOM     19  C   LIG    1       23.708 -17.267   3.872  0.00  0.00    -0.038 A 
ATOM     20  C   LIG    1       22.886 -16.289   4.445  0.00  0.00    +0.008 A 
ATOM     21  C   LIG    1       23.293 -14.952   4.513  0.00  0.00    +0.050 A 
BRANCH  16  23
ATOM     22  C   LIG    1       23.952 -12.302   4.485  0.00  0.00    +0.277 C 
ATOM     23  O   LIG    1       24.881 -13.228   3.940  0.00  0.00    -0.491 OA
ENDBRANCH  16  23
BRANCH  17  24
ATOM     24  O   LIG    1       26.669 -15.254   3.006  0.00  0.00    -0.491 OA
ATOM     25  C   LIG    1       27.597 -14.801   4.000  0.00  0.00    +0.277 C 
ENDBRANCH  17  24
ENDBRANCH  15  19
ENDBRANCH   1  15
TORSDOF 6
ENDMDL
MODEL 2
REMARK VINA RESULT:      -3.6      2.596      4.326
REMARK  Name = *****
REMARK                            x       y       z     vdW  Elec       q    Type
REMARK                         _______ _______ _______ _____ _____    ______ ____
ROOT
ATOM      1  C   LIG    1       27.475 -17.647   4.130  0.00  0.00    +0.053 A 
ATOM      2  C   LIG    1       26.391 -18.539   4.335  0.00  0.00    +0.007 A 
ATOM      3  C   LIG    1       26.598 -19.682   5.122  0.00  0.00    -0.011 A 
ATOM      4  C   LIG    1       25.581 -20.660   5.210  0.00  0.00    +0.058 A 
ATOM      5  C   LIG    1       24.340 -20.482   4.587  0.00  0.00    +0.162 A 
ATOM      6  C   LIG    1       24.068 -19.267   3.954  0.00  0.00    +0.162 A 
ATOM      7  C   LIG    1       27.809 -19.824   5.804  0.00  0.00    +0.028 A 
ATOM      8  C   LIG    1       28.779 -18.851   5.622  0.00  0.00    +0.112 A 
ATOM      9  C   LIG    1       25.106 -18.332   3.793  0.00  0.00    +0.059 A 
ATOM     10  N   LIG    1       28.656 -17.800   4.790  0.00  0.00    -0.259 NA
ENDROOT
BRANCH   6  11
ATOM     11  O   LIG    1       22.802 -19.004   3.465  0.00  0.00    -0.491 OA
ATOM     12  C   LIG    1       21.982 -18.205   4.310  0.00  0.00    +0.277 C 
ENDBRANCH   6  11
BRANCH   5  13
ATOM     13  O   LIG    1       23.513 -21.572   4.704  0.00  0.00    -0.491 OA
ATOM     14  C   LIG    1       22.405 -21.502   5.595  0.00  0.00    +0.277 C 
ENDBRANCH   5  13
BRANCH   1  15
ATOM     15  C   LIG    1       27.411 -16.459   3.159  0.00  0.00    +0.091 C 
BRANCH  15  19
ATOM     16  C   LIG    1       25.601 -12.801   4.723  0.00  0.00    +0.162 A 
ATOM     17  C   LIG    1       25.146 -13.339   3.511  0.00  0.00    +0.162 A 
ATOM     18  C   LIG    1       25.735 -14.524   3.014  0.00  0.00    +0.053 A 
ATOM     19  C   LIG    1       26.825 -15.141   3.671  0.00  0.00    -0.038 A 
ATOM     20  C   LIG    1       27.282 -14.555   4.858  0.00  0.00    +0.008 A 
ATOM     21  C   LIG    1       26.675 -13.404   5.376  0.00  0.00    +0.050 A 
BRANCH  16  23
ATOM     22  C   LIG    1       23.499 -11.949   5.410  0.00  0.00    +0.277 C 
ATOM     23  O   LIG    1       24.903 -11.769   5.293  0.00  0.00    -0.491 OA
ENDBRANCH  16  23
BRANCH  17  24
ATOM     24  O   LIG    1       24.133 -12.803   2.742  0.00  0.00    -0.491 OA
ATOM     25  C   LIG    1       24.552 -11.796   1.812  0.00  0.00    +0.277 C 
ENDBRANCH  17  24
ENDBRANCH  15  19
ENDBRANCH   1  15
TORSDOF 6
ENDMDL
MODEL 3
REMARK VINA RESULT:      -3.5      2.552      4.106
REMARK  Name = *****
REMARK                            x       y       z     vdW  Elec       q    Type
REMARK                         _______ _______ _______ _____ _____    ______ ____
ROOT
ATOM      1  C   LIG    1       27.432 -18.339   4.435  0.00  0.00    +0.053 A 
ATOM      2  C   LIG    1       26.210 -19.044   4.591  0.00  0.00    +0.007 A 
ATOM      3  C   LIG    1       26.197 -20.209   5.373  0.00  0.00    -0.011 A 
ATOM      4  C   LIG    1       25.033 -21.008   5.412  0.00  0.00    +0.058 A 
ATOM      5  C   LIG    1       23.862 -20.628   4.746  0.00  0.00    +0.162 A 
ATOM      6  C   LIG    1       23.815 -19.383   4.115  0.00  0.00    +0.162 A 
ATOM      7  C   LIG    1       27.342 -20.549   6.098  0.00  0.00    +0.028 A 
ATOM      8  C   LIG    1       28.464 -19.746   5.963  0.00  0.00    +0.112 A 
ATOM      9  C   LIG    1       24.997 -18.629   4.003  0.00  0.00    +0.059 A 
ATOM     10  N   LIG    1       28.546 -18.685   5.138  0.00  0.00    -0.259 NA
ENDROOT
BRANCH   6  11
ATOM     11  O   LIG    1       22.629 -18.916   3.582  0.00  0.00    -0.491 OA
ATOM     12  C   LIG    1       21.997 -17.882   4.328  0.00  0.00    +0.277 C 
ENDBRANCH   6  11
BRANCH   5  13
ATOM     13  O   LIG    1       22.865 -21.570   4.820  0.00  0.00    -0.491 OA
ATOM     14  C   LIG    1       21.978 -21.545   5.933  0.00  0.00    +0.277 C 
ENDBRANCH   5  13
BRANCH   1  15
ATOM     15  C   LIG    1       27.599 -17.154   3.475  0.00  0.00    +0.091 C 
BRANCH  15  19
ATOM     16  C   LIG    1       25.613 -13.341   4.268  0.00  0.00    +0.162 A 
ATOM     17  C   LIG    1       26.939 -13.534   4.679  0.00  0.00    +0.162 A 
ATOM     18  C   LIG    1       27.574 -14.769   4.416  0.00  0.00    +0.053 A 
ATOM     19  C   LIG    1       26.881 -15.844   3.815  0.00  0.00    -0.038 A 
ATOM     20  C   LIG    1       25.545 -15.633   3.453  0.00  0.00    +0.008 A 
ATOM     21  C   LIG    1       24.923 -14.398   3.674  0.00  0.00    +0.050 A 
BRANCH  16  23
ATOM     22  C   LIG    1       23.796 -11.913   3.742  0.00  0.00    +0.277 C 
ATOM     23  O   LIG    1       25.067 -12.087   4.352  0.00  0.00    -0.491 OA
ENDBRANCH  16  23
BRANCH  17  24
ATOM     24  O   LIG    1       27.707 -12.589   5.329  0.00  0.00    -0.491 OA
ATOM     25  C   LIG    1       28.929 -12.246   4.664  0.00  0.00    +0.277 C 
ENDBRANCH  17  24
ENDBRANCH  15  19
ENDBRANCH   1  15
TORSDOF 6
ENDMDL
