MODEL 1
REMARK VINA RESULT:       9.9      0.000      0.000
REMARK  Name = *****
REMARK                            x       y       z     vdW  Elec       q    Type
REMARK                         _______ _______ _______ _____ _____    ______ ____
ROOT
ATOM      1  C   LIG    1       25.213 -11.603   4.732  0.00  0.00    +0.042 C 
ATOM      2  C   LIG    1       25.599 -12.978   4.188  0.00  0.00    +0.069 C 
ATOM      3  C   LIG    1       24.624 -14.159   4.537  0.00  0.00    -0.000 C 
ATOM      4  C   LIG    1       24.131 -14.055   6.004  0.00  0.00    +0.014 C 
ATOM      5  C   LIG    1       25.551 -15.450   4.425  0.00  0.00    +0.001 C 
ATOM      6  C   LIG    1       25.223 -16.433   3.282  0.00  0.00    -0.004 C 
ATOM      7  C   LIG    1       23.723 -16.547   3.045  0.00  0.00    -0.001 C 
ATOM      8  C   LIG    1       23.233 -15.166   2.610  0.00  0.00    +0.005 C 
ATOM      9  C   LIG    1       22.874 -17.611   3.955  0.00  0.00    -0.022 C 
ATOM     10  C   LIG    1       21.385 -17.295   3.689  0.00  0.00    +0.012 C 
ATOM     11  C   LIG    1       23.460 -18.929   3.311  0.00  0.00    +0.001 C 
ATOM     12  C   LIG    1       22.851 -20.303   3.630  0.00  0.00    +0.059 C 
ATOM     13  C   LIG    1       22.683 -20.371   5.080  0.00  0.00    +0.040 A 
ATOM     14  C   LIG    1       22.910 -19.349   5.959  0.00  0.00    -0.006 A 
ATOM     15  C   LIG    1       23.445 -20.082   7.061  0.00  0.00    +0.138 A 
ATOM     16  N   LIG    1       23.248 -21.404   6.966  0.00  0.00    -0.182 NA
ATOM     17  N   LIG    1       22.665 -21.568   5.762  0.00  0.00    -0.281 N 
ATOM     18  H   LIG    1       22.462 -22.483   5.425  0.00  0.00    +0.189 HD
ATOM     19  C   LIG    1       24.978 -18.952   3.770  0.00  0.00    +0.005 C 
ATOM     20  C   LIG    1       22.986 -17.839   5.562  0.00  0.00    +0.045 C 
ATOM     21  C   LIG    1       25.879 -17.816   3.312  0.00  0.00    +0.004 C 
ATOM     22  C   LIG    1       26.998 -14.903   4.289  0.00  0.00    +0.007 C 
ATOM     23  C   LIG    1       23.320 -14.137   3.697  0.00  0.00    +0.010 C 
ATOM     24  C   LIG    1       26.938 -13.453   4.756  0.00  0.00    +0.035 C 
ENDROOT
BRANCH   2  25
ATOM     25  O   LIG    1       25.793 -12.859   2.772  0.00  0.00    -0.388 OA
ATOM     26  H   LIG    1       24.998 -12.478   2.366  0.00  0.00    +0.210 HD
ENDBRANCH   2  25
TORSDOF 1
ENDMDL
