MODEL 1
REMARK VINA RESULT:      -0.8      0.000      0.000
REMARK  Name = *****
REMARK                            x       y       z     vdW  Elec       q    Type
REMARK                         _______ _______ _______ _____ _____    ______ ____
ROOT
ATOM      1  C   LIG    1       23.470 -17.504   3.845  0.00  0.00    +0.019 C 
ENDROOT
BRANCH   1   2
ATOM      2  C   LIG    1       22.382 -18.187   4.714  0.00  0.00    +0.085 C 
BRANCH   2   3
ATOM      3  N   LIG    1       22.105 -19.621   4.465  0.00  0.00    -0.300 NA
BRANCH   3   5
ATOM      4  C   LIG    1       19.988 -18.676   3.352  0.00  0.00    +0.020 C 
ATOM      5  C   LIG    1       20.694 -19.823   4.074  0.00  0.00    +0.081 C 
ENDBRANCH   3   5
BRANCH   3   6
ATOM      6  C   LIG    1       22.578 -20.538   5.543  0.00  0.00    +0.058 C 
ATOM      7  C   LIG    1       23.012 -19.801   6.831  0.00  0.00    +0.024 C 
BRANCH   6   8
ATOM      8  C   LIG    1       23.723 -21.532   5.191  0.00  0.00    +0.053 C 
BRANCH   8   9
ATOM      9  C   LIG    1       25.154 -21.194   5.533  0.00  0.00    -0.046 A 
ATOM     10  C   LIG    1       25.864 -20.361   4.657  0.00  0.00    +0.007 A 
ATOM     11  C   LIG    1       27.131 -19.882   4.982  0.00  0.00    +0.046 A 
ATOM     12  C   LIG    1       27.709 -20.207   6.205  0.00  0.00    +0.120 A 
ATOM     13  C   LIG    1       27.040 -21.087   7.061  0.00  0.00    +0.046 A 
ATOM     14  C   LIG    1       25.765 -21.571   6.735  0.00  0.00    +0.007 A 
BRANCH  12  15
ATOM     15  O   LIG    1       28.921 -19.736   6.636  0.00  0.00    -0.495 OA
ATOM     16  C   LIG    1       29.375 -18.562   5.962  0.00  0.00    +0.277 C 
ENDBRANCH  12  15
ENDBRANCH   8   9
ENDBRANCH   6   8
ENDBRANCH   3   6
ENDBRANCH   2   3
ENDBRANCH   1   2
BRANCH   1  17
ATOM     17  C   LIG    1       24.075 -16.200   4.398  0.00  0.00    +0.042 C 
BRANCH  17  18
ATOM     18  C   LIG    1       23.019 -15.174   4.782  0.00  0.00    +0.232 C 
BRANCH  18  19
ATOM     19  O   LIG    1       23.133 -13.878   4.162  0.00  0.00    -0.461 OA
BRANCH  19  20
ATOM     20  C   LIG    1       23.708 -13.787   2.950  0.00  0.00    +0.339 C 
ATOM     21  O   LIG    1       23.123 -13.770   1.859  0.00  0.00    -0.245 OA
BRANCH  20  22
ATOM     22  C   LIG    1       25.184 -13.625   3.120  0.00  0.00    +0.063 A 
ATOM     23  C   LIG    1       25.992 -14.707   3.515  0.00  0.00    +0.064 A 
ATOM     24  C   LIG    1       27.371 -14.555   3.699  0.00  0.00    +0.162 A 
ATOM     25  C   LIG    1       27.946 -13.280   3.606  0.00  0.00    +0.162 A 
ATOM     26  C   LIG    1       27.157 -12.208   3.165  0.00  0.00    +0.050 A 
ATOM     27  C   LIG    1       25.788 -12.375   2.920  0.00  0.00    +0.019 A 
BRANCH  24  28
ATOM     28  O   LIG    1       28.181 -15.620   3.990  0.00  0.00    -0.491 OA
ATOM     29  C   LIG    1       27.574 -16.904   3.955  0.00  0.00    +0.277 C 
ENDBRANCH  24  28
BRANCH  25  30
ATOM     30  O   LIG    1       29.255 -12.967   3.884  0.00  0.00    -0.491 OA
ATOM     31  C   LIG    1       29.455 -11.807   4.695  0.00  0.00    +0.277 C 
ENDBRANCH  25  30
ENDBRANCH  20  22
ENDBRANCH  19  20
ENDBRANCH  18  19
ENDBRANCH  17  18
ENDBRANCH   1  17
TORSDOF 14
ENDMDL
MODEL 2
REMARK VINA RESULT:      -0.8      2.061      7.085
REMARK  Name = *****
REMARK                            x       y       z     vdW  Elec       q    Type
REMARK                         _______ _______ _______ _____ _____    ______ ____
ROOT
ATOM      1  C   LIG    1       26.072 -17.598   3.356  0.00  0.00    +0.019 C 
ENDROOT
BRANCH   1   2
ATOM      2  C   LIG    1       24.833 -16.665   3.317  0.00  0.00    +0.085 C 
BRANCH   2   3
ATOM      3  N   LIG    1       23.766 -16.900   4.317  0.00  0.00    -0.300 NA
BRANCH   3   5
ATOM      4  C   LIG    1       22.306 -19.000   4.598  0.00  0.00    +0.020 C 
ATOM      5  C   LIG    1       22.717 -17.785   3.766  0.00  0.00    +0.081 C 
ENDBRANCH   3   5
BRANCH   3   6
ATOM      6  C   LIG    1       23.242 -15.661   4.964  0.00  0.00    +0.058 C 
ATOM      7  C   LIG    1       21.698 -15.608   5.031  0.00  0.00    +0.024 C 
BRANCH   6   8
ATOM      8  C   LIG    1       23.711 -14.295   4.383  0.00  0.00    +0.053 C 
BRANCH   8   9
ATOM      9  C   LIG    1       25.185 -13.998   4.237  0.00  0.00    -0.046 A 
ATOM     10  C   LIG    1       25.686 -13.759   2.950  0.00  0.00    +0.007 A 
ATOM     11  C   LIG    1       26.995 -13.327   2.753  0.00  0.00    +0.046 A 
ATOM     12  C   LIG    1       27.829 -13.102   3.844  0.00  0.00    +0.120 A 
ATOM     13  C   LIG    1       27.364 -13.397   5.128  0.00  0.00    +0.046 A 
ATOM     14  C   LIG    1       26.045 -13.832   5.329  0.00  0.00    +0.007 A 
BRANCH  12  15
ATOM     15  O   LIG    1       29.109 -12.623   3.751  0.00  0.00    -0.495 OA
ATOM     16  C   LIG    1       29.444 -11.633   4.723  0.00  0.00    +0.277 C 
ENDBRANCH  12  15
ENDBRANCH   8   9
ENDBRANCH   6   8
ENDBRANCH   3   6
ENDBRANCH   2   3
ENDBRANCH   1   2
BRANCH   1  17
ATOM     17  C   LIG    1       27.433 -16.925   3.612  0.00  0.00    +0.042 C 
BRANCH  17  18
ATOM     18  C   LIG    1       28.141 -17.470   4.844  0.00  0.00    +0.232 C 
BRANCH  18  19
ATOM     19  O   LIG    1       28.697 -18.795   4.728  0.00  0.00    -0.461 OA
BRANCH  19  20
ATOM     20  C   LIG    1       28.601 -19.632   5.776  0.00  0.00    +0.339 C 
ATOM     21  O   LIG    1       29.475 -19.850   6.625  0.00  0.00    -0.245 OA
BRANCH  20  22
ATOM     22  C   LIG    1       27.223 -20.212   5.812  0.00  0.00    +0.063 A 
ATOM     23  C   LIG    1       26.545 -20.544   4.626  0.00  0.00    +0.064 A 
ATOM     24  C   LIG    1       25.246 -21.065   4.653  0.00  0.00    +0.162 A 
ATOM     25  C   LIG    1       24.559 -21.150   5.872  0.00  0.00    +0.162 A 
ATOM     26  C   LIG    1       25.245 -20.868   7.062  0.00  0.00    +0.050 A 
ATOM     27  C   LIG    1       26.568 -20.407   7.037  0.00  0.00    +0.019 A 
BRANCH  24  28
ATOM     28  O   LIG    1       24.612 -21.481   3.513  0.00  0.00    -0.491 OA
ATOM     29  C   LIG    1       24.583 -20.558   2.433  0.00  0.00    +0.277 C 
ENDBRANCH  24  28
BRANCH  25  30
ATOM     30  O   LIG    1       23.244 -21.521   6.029  0.00  0.00    -0.491 OA
ATOM     31  C   LIG    1       22.439 -20.631   6.805  0.00  0.00    +0.277 C 
ENDBRANCH  25  30
ENDBRANCH  20  22
ENDBRANCH  19  20
ENDBRANCH  18  19
ENDBRANCH  17  18
ENDBRANCH   1  17
TORSDOF 14
ENDMDL
MODEL 3
REMARK VINA RESULT:       0.2      2.535      6.543
REMARK  Name = *****
REMARK                            x       y       z     vdW  Elec       q    Type
REMARK                         _______ _______ _______ _____ _____    ______ ____
ROOT
ATOM      1  C   LIG    1       22.950 -14.753   3.361  0.00  0.00    +0.019 C 
ENDROOT
BRANCH   1   2
ATOM      2  C   LIG    1       23.426 -13.311   3.042  0.00  0.00    +0.085 C 
BRANCH   2   3
ATOM      3  N   LIG    1       24.467 -12.724   3.917  0.00  0.00    -0.300 NA
BRANCH   3   5
ATOM      4  C   LIG    1       23.996 -11.448   6.100  0.00  0.00    +0.020 C 
ATOM      5  C   LIG    1       23.971 -11.496   4.573  0.00  0.00    +0.081 C 
ENDBRANCH   3   5
BRANCH   3   6
ATOM      6  C   LIG    1       25.804 -12.574   3.270  0.00  0.00    +0.058 C 
ATOM      7  C   LIG    1       25.855 -13.126   1.827  0.00  0.00    +0.024 C 
BRANCH   6   8
ATOM      8  C   LIG    1       27.035 -13.165   4.019  0.00  0.00    +0.053 C 
BRANCH   8   9
ATOM      9  C   LIG    1       27.292 -14.653   3.998  0.00  0.00    -0.046 A 
ATOM     10  C   LIG    1       28.323 -15.156   4.805  0.00  0.00    +0.007 A 
ATOM     11  C   LIG    1       28.517 -16.527   4.958  0.00  0.00    +0.046 A 
ATOM     12  C   LIG    1       27.669 -17.429   4.323  0.00  0.00    +0.120 A 
ATOM     13  C   LIG    1       26.678 -16.943   3.466  0.00  0.00    +0.046 A 
ATOM     14  C   LIG    1       26.480 -15.563   3.310  0.00  0.00    +0.007 A 
BRANCH  12  15
ATOM     15  O   LIG    1       27.747 -18.790   4.461  0.00  0.00    -0.495 OA
ATOM     16  C   LIG    1       28.395 -19.229   5.654  0.00  0.00    +0.277 C 
ENDBRANCH  12  15
ENDBRANCH   8   9
ENDBRANCH   6   8
ENDBRANCH   3   6
ENDBRANCH   2   3
ENDBRANCH   1   2
BRANCH   1  17
ATOM     17  C   LIG    1       23.174 -15.249   4.802  0.00  0.00    +0.042 C 
BRANCH  17  18
ATOM     18  C   LIG    1       22.511 -16.591   5.076  0.00  0.00    +0.232 C 
BRANCH  18  19
ATOM     19  O   LIG    1       21.416 -16.952   4.212  0.00  0.00    -0.461 OA
BRANCH  19  20
ATOM     20  C   LIG    1       21.254 -18.243   3.874  0.00  0.00    +0.339 C 
ATOM     21  O   LIG    1       20.327 -18.718   3.206  0.00  0.00    -0.245 OA
BRANCH  20  22
ATOM     22  C   LIG    1       22.428 -19.027   4.368  0.00  0.00    +0.063 A 
ATOM     23  C   LIG    1       23.530 -19.287   3.532  0.00  0.00    +0.064 A 
ATOM     24  C   LIG    1       24.620 -20.041   3.981  0.00  0.00    +0.162 A 
ATOM     25  C   LIG    1       24.569 -20.650   5.242  0.00  0.00    +0.162 A 
ATOM     26  C   LIG    1       23.498 -20.355   6.098  0.00  0.00    +0.050 A 
ATOM     27  C   LIG    1       22.436 -19.548   5.670  0.00  0.00    +0.019 A 
BRANCH  24  28
ATOM     28  O   LIG    1       25.739 -20.219   3.212  0.00  0.00    -0.491 OA
ATOM     29  C   LIG    1       25.611 -19.914   1.830  0.00  0.00    +0.277 C 
ENDBRANCH  24  28
BRANCH  25  30
ATOM     30  O   LIG    1       25.508 -21.513   5.756  0.00  0.00    -0.491 OA
ATOM     31  C   LIG    1       26.016 -21.176   7.049  0.00  0.00    +0.277 C 
ENDBRANCH  25  30
ENDBRANCH  20  22
ENDBRANCH  19  20
ENDBRANCH  18  19
ENDBRANCH  17  18
ENDBRANCH   1  17
TORSDOF 14
ENDMDL
MODEL 4
REMARK VINA RESULT:       0.6      1.521      5.358
REMARK  Name = *****
REMARK                            x       y       z     vdW  Elec       q    Type
REMARK                         _______ _______ _______ _____ _____    ______ ____
ROOT
ATOM      1  C   LIG    1       24.807 -20.932   6.909  0.00  0.00    +0.019 C 
ENDROOT
BRANCH   1   2
ATOM      2  C   LIG    1       23.645 -20.015   6.447  0.00  0.00    +0.085 C 
BRANCH   2   3
ATOM      3  N   LIG    1       22.939 -20.380   5.196  0.00  0.00    -0.300 NA
BRANCH   3   5
ATOM      4  C   LIG    1       23.837 -21.521   3.073  0.00  0.00    +0.020 C 
ATOM      5  C   LIG    1       23.556 -21.571   4.575  0.00  0.00    +0.081 C 
ENDBRANCH   3   5
BRANCH   3   6
ATOM      6  C   LIG    1       22.724 -19.242   4.255  0.00  0.00    +0.058 C 
ATOM      7  C   LIG    1       24.039 -18.593   3.762  0.00  0.00    +0.024 C 
BRANCH   6   8
ATOM      8  C   LIG    1       21.804 -18.080   4.731  0.00  0.00    +0.053 C 
BRANCH   8   9
ATOM      9  C   LIG    1       22.326 -16.663   4.763  0.00  0.00    -0.046 A 
ATOM     10  C   LIG    1       22.142 -15.918   5.937  0.00  0.00    +0.007 A 
ATOM     11  C   LIG    1       22.730 -14.665   6.097  0.00  0.00    +0.046 A 
ATOM     12  C   LIG    1       23.535 -14.136   5.092  0.00  0.00    +0.120 A 
ATOM     13  C   LIG    1       23.675 -14.839   3.893  0.00  0.00    +0.046 A 
ATOM     14  C   LIG    1       23.084 -16.101   3.729  0.00  0.00    +0.007 A 
BRANCH  12  15
ATOM     15  O   LIG    1       24.199 -12.942   5.184  0.00  0.00    -0.495 OA
ATOM     16  C   LIG    1       23.518 -11.836   4.591  0.00  0.00    +0.277 C 
ENDBRANCH  12  15
ENDBRANCH   8   9
ENDBRANCH   6   8
ENDBRANCH   3   6
ENDBRANCH   2   3
ENDBRANCH   1   2
BRANCH   1  17
ATOM     17  C   LIG    1       26.012 -21.050   5.957  0.00  0.00    +0.042 C 
BRANCH  17  18
ATOM     18  C   LIG    1       27.030 -19.935   6.149  0.00  0.00    +0.232 C 
BRANCH  18  19
ATOM     19  O   LIG    1       27.199 -19.028   5.042  0.00  0.00    -0.461 OA
BRANCH  19  20
ATOM     20  C   LIG    1       28.222 -18.154   5.070  0.00  0.00    +0.339 C 
ATOM     21  O   LIG    1       29.344 -18.352   5.554  0.00  0.00    -0.245 OA
BRANCH  20  22
ATOM     22  C   LIG    1       27.822 -16.910   4.342  0.00  0.00    +0.063 A 
ATOM     23  C   LIG    1       28.440 -15.678   4.619  0.00  0.00    +0.064 A 
ATOM     24  C   LIG    1       28.053 -14.506   3.958  0.00  0.00    +0.162 A 
ATOM     25  C   LIG    1       26.952 -14.532   3.091  0.00  0.00    +0.162 A 
ATOM     26  C   LIG    1       26.363 -15.764   2.773  0.00  0.00    +0.050 A 
ATOM     27  C   LIG    1       26.794 -16.947   3.389  0.00  0.00    +0.019 A 
BRANCH  24  28
ATOM     28  O   LIG    1       28.710 -13.321   4.148  0.00  0.00    -0.491 OA
ATOM     29  C   LIG    1       28.321 -12.556   5.281  0.00  0.00    +0.277 C 
ENDBRANCH  24  28
BRANCH  25  30
ATOM     30  O   LIG    1       26.388 -13.439   2.476  0.00  0.00    -0.491 OA
ATOM     31  C   LIG    1       25.126 -13.668   1.844  0.00  0.00    +0.277 C 
ENDBRANCH  25  30
ENDBRANCH  20  22
ENDBRANCH  19  20
ENDBRANCH  18  19
ENDBRANCH  17  18
ENDBRANCH   1  17
TORSDOF 14
ENDMDL
MODEL 5
REMARK VINA RESULT:       0.6      2.010      5.665
REMARK  Name = *****
REMARK                            x       y       z     vdW  Elec       q    Type
REMARK                         _______ _______ _______ _____ _____    ______ ____
ROOT
ATOM      1  C   LIG    1       25.926 -13.919   5.623  0.00  0.00    +0.019 C 
ENDROOT
BRANCH   1   2
ATOM      2  C   LIG    1       24.693 -13.402   4.836  0.00  0.00    +0.085 C 
BRANCH   2   3
ATOM      3  N   LIG    1       24.118 -14.292   3.801  0.00  0.00    -0.300 NA
BRANCH   3   5
ATOM      4  C   LIG    1       24.056 -12.090   2.474  0.00  0.00    +0.020 C 
ATOM      5  C   LIG    1       24.089 -13.618   2.486  0.00  0.00    +0.081 C 
ENDBRANCH   3   5
BRANCH   3   6
ATOM      6  C   LIG    1       22.827 -14.934   4.187  0.00  0.00    +0.058 C 
ATOM      7  C   LIG    1       22.763 -15.339   5.678  0.00  0.00    +0.024 C 
BRANCH   6   8
ATOM      8  C   LIG    1       22.369 -16.176   3.367  0.00  0.00    +0.053 C 
BRANCH   8   9
ATOM      9  C   LIG    1       22.629 -17.569   3.890  0.00  0.00    -0.046 A 
ATOM     10  C   LIG    1       23.724 -18.275   3.372  0.00  0.00    +0.007 A 
ATOM     11  C   LIG    1       24.118 -19.497   3.914  0.00  0.00    +0.046 A 
ATOM     12  C   LIG    1       23.436 -20.031   5.002  0.00  0.00    +0.120 A 
ATOM     13  C   LIG    1       22.304 -19.370   5.488  0.00  0.00    +0.046 A 
ATOM     14  C   LIG    1       21.906 -18.139   4.944  0.00  0.00    +0.007 A 
BRANCH  12  15
ATOM     15  O   LIG    1       23.786 -21.194   5.637  0.00  0.00    -0.495 OA
ATOM     16  C   LIG    1       23.377 -21.271   7.003  0.00  0.00    +0.277 C 
ENDBRANCH  12  15
ENDBRANCH   8   9
ENDBRANCH   6   8
ENDBRANCH   3   6
ENDBRANCH   2   3
ENDBRANCH   1   2
BRANCH   1  17
ATOM     17  C   LIG    1       27.302 -13.399   5.167  0.00  0.00    +0.042 C 
BRANCH  17  18
ATOM     18  C   LIG    1       27.642 -13.796   3.737  0.00  0.00    +0.232 C 
BRANCH  18  19
ATOM     19  O   LIG    1       28.101 -15.148   3.543  0.00  0.00    -0.461 OA
BRANCH  19  20
ATOM     20  C   LIG    1       27.211 -16.154   3.629  0.00  0.00    +0.339 C 
ATOM     21  O   LIG    1       26.109 -16.210   3.068  0.00  0.00    -0.245 OA
BRANCH  20  22
ATOM     22  C   LIG    1       27.797 -17.254   4.455  0.00  0.00    +0.063 A 
ATOM     23  C   LIG    1       27.163 -18.507   4.548  0.00  0.00    +0.064 A 
ATOM     24  C   LIG    1       27.694 -19.532   5.339  0.00  0.00    +0.162 A 
ATOM     25  C   LIG    1       28.810 -19.276   6.148  0.00  0.00    +0.162 A 
ATOM     26  C   LIG    1       29.474 -18.047   6.023  0.00  0.00    +0.050 A 
ATOM     27  C   LIG    1       28.978 -17.043   5.182  0.00  0.00    +0.019 A 
BRANCH  24  28
ATOM     28  O   LIG    1       27.141 -20.784   5.362  0.00  0.00    -0.491 OA
ATOM     29  C   LIG    1       26.540 -21.187   6.585  0.00  0.00    +0.277 C 
ENDBRANCH  24  28
BRANCH  25  30
ATOM     30  O   LIG    1       29.356 -20.146   7.062  0.00  0.00    -0.491 OA
ATOM     31  C   LIG    1       29.194 -21.535   6.766  0.00  0.00    +0.277 C 
ENDBRANCH  25  30
ENDBRANCH  20  22
ENDBRANCH  19  20
ENDBRANCH  18  19
ENDBRANCH  17  18
ENDBRANCH   1  17
TORSDOF 14
ENDMDL
MODEL 6
REMARK VINA RESULT:       1.6      1.316      2.340
REMARK  Name = *****
REMARK                            x       y       z     vdW  Elec       q    Type
REMARK                         _______ _______ _______ _____ _____    ______ ____
ROOT
ATOM      1  C   LIG    1       21.613 -18.181   3.374  0.00  0.00    +0.019 C 
ENDROOT
BRANCH   1   2
ATOM      2  C   LIG    1       21.206 -19.611   3.817  0.00  0.00    +0.085 C 
BRANCH   2   3
ATOM      3  N   LIG    1       22.151 -20.355   4.682  0.00  0.00    -0.300 NA
BRANCH   3   5
ATOM      4  C   LIG    1       23.141 -20.380   7.056  0.00  0.00    +0.020 C 
ATOM      5  C   LIG    1       22.347 -19.655   5.969  0.00  0.00    +0.081 C 
ENDBRANCH   3   5
BRANCH   3   6
ATOM      6  C   LIG    1       23.419 -20.758   4.006  0.00  0.00    +0.058 C 
ATOM      7  C   LIG    1       23.195 -21.546   2.695  0.00  0.00    +0.024 C 
BRANCH   6   8
ATOM      8  C   LIG    1       24.452 -21.569   4.843  0.00  0.00    +0.053 C 
BRANCH   8   9
ATOM      9  C   LIG    1       25.704 -20.899   5.358  0.00  0.00    -0.046 A 
ATOM     10  C   LIG    1       26.371 -21.490   6.441  0.00  0.00    +0.007 A 
ATOM     11  C   LIG    1       27.610 -21.020   6.870  0.00  0.00    +0.046 A 
ATOM     12  C   LIG    1       28.223 -19.960   6.210  0.00  0.00    +0.120 A 
ATOM     13  C   LIG    1       27.543 -19.322   5.170  0.00  0.00    +0.046 A 
ATOM     14  C   LIG    1       26.294 -19.793   4.736  0.00  0.00    +0.007 A 
BRANCH  12  15
ATOM     15  O   LIG    1       29.464 -19.470   6.522  0.00  0.00    -0.495 OA
ATOM     16  C   LIG    1       29.474 -18.107   6.946  0.00  0.00    +0.277 C 
ENDBRANCH  12  15
ENDBRANCH   8   9
ENDBRANCH   6   8
ENDBRANCH   3   6
ENDBRANCH   2   3
ENDBRANCH   1   2
BRANCH   1  17
ATOM     17  C   LIG    1       23.122 -17.885   3.303  0.00  0.00    +0.042 C 
BRANCH  17  18
ATOM     18  C   LIG    1       23.578 -16.874   4.346  0.00  0.00    +0.232 C 
BRANCH  18  19
ATOM     19  O   LIG    1       22.539 -16.129   5.010  0.00  0.00    -0.461 OA
BRANCH  19  20
ATOM     20  C   LIG    1       22.740 -14.824   5.267  0.00  0.00    +0.339 C 
ATOM     21  O   LIG    1       22.109 -14.128   6.073  0.00  0.00    -0.245 OA
BRANCH  20  22
ATOM     22  C   LIG    1       23.918 -14.347   4.478  0.00  0.00    +0.063 A 
ATOM     23  C   LIG    1       25.230 -14.683   4.859  0.00  0.00    +0.064 A 
ATOM     24  C   LIG    1       26.336 -14.218   4.138  0.00  0.00    +0.162 A 
ATOM     25  C   LIG    1       26.147 -13.308   3.089  0.00  0.00    +0.162 A 
ATOM     26  C   LIG    1       24.842 -13.009   2.673  0.00  0.00    +0.050 A 
ATOM     27  C   LIG    1       23.733 -13.525   3.357  0.00  0.00    +0.019 A 
BRANCH  24  28
ATOM     28  O   LIG    1       27.611 -14.615   4.441  0.00  0.00    -0.491 OA
ATOM     29  C   LIG    1       27.941 -15.964   4.142  0.00  0.00    +0.277 C 
ENDBRANCH  24  28
BRANCH  25  30
ATOM     30  O   LIG    1       27.145 -12.679   2.383  0.00  0.00    -0.491 OA
ATOM     31  C   LIG    1       28.165 -12.060   3.171  0.00  0.00    +0.277 C 
ENDBRANCH  25  30
ENDBRANCH  20  22
ENDBRANCH  19  20
ENDBRANCH  18  19
ENDBRANCH  17  18
ENDBRANCH   1  17
TORSDOF 14
ENDMDL
MODEL 7
REMARK VINA RESULT:       1.7      2.064      6.381
REMARK  Name = *****
REMARK                            x       y       z     vdW  Elec       q    Type
REMARK                         _______ _______ _______ _____ _____    ______ ____
ROOT
ATOM      1  C   LIG    1       23.843 -19.169   3.736  0.00  0.00    +0.019 C 
ENDROOT
BRANCH   1   2
ATOM      2  C   LIG    1       23.233 -17.775   3.433  0.00  0.00    +0.085 C 
BRANCH   2   3
ATOM      3  N   LIG    1       22.366 -17.167   4.469  0.00  0.00    -0.300 NA
BRANCH   3   5
ATOM      4  C   LIG    1       20.490 -18.201   3.045  0.00  0.00    +0.020 C 
ATOM      5  C   LIG    1       20.961 -17.116   4.013  0.00  0.00    +0.081 C 
ENDBRANCH   3   5
BRANCH   3   6
ATOM      6  C   LIG    1       22.876 -15.878   5.022  0.00  0.00    +0.058 C 
ATOM      7  C   LIG    1       21.947 -15.255   6.089  0.00  0.00    +0.024 C 
BRANCH   6   8
ATOM      8  C   LIG    1       23.213 -14.745   4.008  0.00  0.00    +0.053 C 
BRANCH   8   9
ATOM      9  C   LIG    1       24.635 -14.258   3.859  0.00  0.00    -0.046 A 
ATOM     10  C   LIG    1       25.278 -13.741   4.992  0.00  0.00    +0.007 A 
ATOM     11  C   LIG    1       26.633 -13.418   4.970  0.00  0.00    +0.046 A 
ATOM     12  C   LIG    1       27.383 -13.626   3.817  0.00  0.00    +0.120 A 
ATOM     13  C   LIG    1       26.742 -14.081   2.661  0.00  0.00    +0.046 A 
ATOM     14  C   LIG    1       25.377 -14.407   2.681  0.00  0.00    +0.007 A 
BRANCH  12  15
ATOM     15  O   LIG    1       28.730 -13.395   3.719  0.00  0.00    -0.495 OA
ATOM     16  C   LIG    1       29.154 -12.135   4.240  0.00  0.00    +0.277 C 
ENDBRANCH  12  15
ENDBRANCH   8   9
ENDBRANCH   6   8
ENDBRANCH   3   6
ENDBRANCH   2   3
ENDBRANCH   1   2
BRANCH   1  17
ATOM     17  C   LIG    1       23.446 -20.316   2.788  0.00  0.00    +0.042 C 
BRANCH  17  18
ATOM     18  C   LIG    1       23.003 -21.570   3.527  0.00  0.00    +0.232 C 
BRANCH  18  19
ATOM     19  O   LIG    1       23.170 -21.561   4.959  0.00  0.00    -0.461 OA
BRANCH  19  20
ATOM     20  C   LIG    1       23.429 -20.393   5.573  0.00  0.00    +0.339 C 
ATOM     21  O   LIG    1       22.594 -19.555   5.941  0.00  0.00    -0.245 OA
BRANCH  20  22
ATOM     22  C   LIG    1       24.899 -20.288   5.826  0.00  0.00    +0.063 A 
ATOM     23  C   LIG    1       25.722 -19.500   5.001  0.00  0.00    +0.064 A 
ATOM     24  C   LIG    1       27.102 -19.419   5.219  0.00  0.00    +0.162 A 
ATOM     25  C   LIG    1       27.699 -20.225   6.198  0.00  0.00    +0.162 A 
ATOM     26  C   LIG    1       26.879 -20.974   7.055  0.00  0.00    +0.050 A 
ATOM     27  C   LIG    1       25.490 -21.006   6.876  0.00  0.00    +0.019 A 
BRANCH  24  28
ATOM     28  O   LIG    1       27.899 -18.581   4.485  0.00  0.00    -0.491 OA
ATOM     29  C   LIG    1       27.316 -17.352   4.075  0.00  0.00    +0.277 C 
ENDBRANCH  24  28
BRANCH  25  30
ATOM     30  O   LIG    1       29.049 -20.339   6.432  0.00  0.00    -0.491 OA
ATOM     31  C   LIG    1       29.472 -21.572   7.019  0.00  0.00    +0.277 C 
ENDBRANCH  25  30
ENDBRANCH  20  22
ENDBRANCH  19  20
ENDBRANCH  18  19
ENDBRANCH  17  18
ENDBRANCH   1  17
TORSDOF 14
ENDMDL
MODEL 8
REMARK VINA RESULT:       1.8      2.007      4.756
REMARK  Name = *****
REMARK                            x       y       z     vdW  Elec       q    Type
REMARK                         _______ _______ _______ _____ _____    ______ ____
ROOT
ATOM      1  C   LIG    1       23.518 -20.542   6.940  0.00  0.00    +0.019 C 
ENDROOT
BRANCH   1   2
ATOM      2  C   LIG    1       24.703 -21.537   7.049  0.00  0.00    +0.085 C 
BRANCH   2   3
ATOM      3  N   LIG    1       25.909 -21.257   6.236  0.00  0.00    -0.300 NA
BRANCH   3   5
ATOM      4  C   LIG    1       28.375 -21.221   6.969  0.00  0.00    +0.020 C 
ATOM      5  C   LIG    1       26.966 -20.635   7.062  0.00  0.00    +0.081 C 
ENDBRANCH   3   5
BRANCH   3   6
ATOM      6  C   LIG    1       25.637 -20.543   4.953  0.00  0.00    +0.058 C 
ATOM      7  C   LIG    1       24.742 -21.345   3.980  0.00  0.00    +0.024 C 
BRANCH   6   8
ATOM      8  C   LIG    1       26.864 -20.053   4.130  0.00  0.00    +0.053 C 
BRANCH   8   9
ATOM      9  C   LIG    1       27.187 -18.579   4.052  0.00  0.00    -0.046 A 
ATOM     10  C   LIG    1       26.331 -17.754   3.309  0.00  0.00    +0.007 A 
ATOM     11  C   LIG    1       26.474 -16.368   3.320  0.00  0.00    +0.046 A 
ATOM     12  C   LIG    1       27.466 -15.774   4.093  0.00  0.00    +0.120 A 
ATOM     13  C   LIG    1       28.366 -16.586   4.788  0.00  0.00    +0.046 A 
ATOM     14  C   LIG    1       28.224 -17.982   4.779  0.00  0.00    +0.007 A 
BRANCH  12  15
ATOM     15  O   LIG    1       27.645 -14.420   4.211  0.00  0.00    -0.495 OA
ATOM     16  C   LIG    1       27.103 -13.852   5.403  0.00  0.00    +0.277 C 
ENDBRANCH  12  15
ENDBRANCH   8   9
ENDBRANCH   6   8
ENDBRANCH   3   6
ENDBRANCH   2   3
ENDBRANCH   1   2
BRANCH   1  17
ATOM     17  C   LIG    1       23.302 -19.876   5.568  0.00  0.00    +0.042 C 
BRANCH  17  18
ATOM     18  C   LIG    1       21.974 -19.137   5.470  0.00  0.00    +0.232 C 
BRANCH  18  19
ATOM     19  O   LIG    1       22.046 -17.735   5.148  0.00  0.00    -0.461 OA
BRANCH  19  20
ATOM     20  C   LIG    1       22.906 -17.332   4.195  0.00  0.00    +0.339 C 
ATOM     21  O   LIG    1       23.432 -18.045   3.331  0.00  0.00    -0.245 OA
BRANCH  20  22
ATOM     22  C   LIG    1       23.074 -15.849   4.285  0.00  0.00    +0.063 A 
ATOM     23  C   LIG    1       23.655 -15.120   3.231  0.00  0.00    +0.064 A 
ATOM     24  C   LIG    1       23.836 -13.735   3.320  0.00  0.00    +0.162 A 
ATOM     25  C   LIG    1       23.546 -13.073   4.521  0.00  0.00    +0.162 A 
ATOM     26  C   LIG    1       22.922 -13.784   5.556  0.00  0.00    +0.050 A 
ATOM     27  C   LIG    1       22.683 -15.159   5.442  0.00  0.00    +0.019 A 
BRANCH  24  28
ATOM     28  O   LIG    1       24.311 -13.001   2.266  0.00  0.00    -0.491 OA
ATOM     29  C   LIG    1       25.714 -12.779   2.230  0.00  0.00    +0.277 C 
ENDBRANCH  24  28
BRANCH  25  30
ATOM     30  O   LIG    1       23.793 -11.747   4.788  0.00  0.00    -0.491 OA
ATOM     31  C   LIG    1       24.663 -11.490   5.892  0.00  0.00    +0.277 C 
ENDBRANCH  25  30
ENDBRANCH  20  22
ENDBRANCH  19  20
ENDBRANCH  18  19
ENDBRANCH  17  18
ENDBRANCH   1  17
TORSDOF 14
ENDMDL
MODEL 9
REMARK VINA RESULT:       1.8      1.508      2.413
REMARK  Name = *****
REMARK                            x       y       z     vdW  Elec       q    Type
REMARK                         _______ _______ _______ _____ _____    ______ ____
ROOT
ATOM      1  C   LIG    1       22.395 -15.394   4.202  0.00  0.00    +0.019 C 
ENDROOT
BRANCH   1   2
ATOM      2  C   LIG    1       22.788 -16.874   4.448  0.00  0.00    +0.085 C 
BRANCH   2   3
ATOM      3  N   LIG    1       21.969 -17.919   3.790  0.00  0.00    -0.300 NA
BRANCH   3   5
ATOM      4  C   LIG    1       19.613 -18.091   2.772  0.00  0.00    +0.020 C 
ATOM      5  C   LIG    1       20.529 -17.597   3.891  0.00  0.00    +0.081 C 
ENDBRANCH   3   5
BRANCH   3   6
ATOM      6  C   LIG    1       22.313 -19.315   4.190  0.00  0.00    +0.058 C 
ATOM      7  C   LIG    1       21.141 -20.310   4.021  0.00  0.00    +0.024 C 
BRANCH   6   8
ATOM      8  C   LIG    1       22.880 -19.533   5.623  0.00  0.00    +0.053 C 
BRANCH   8   9
ATOM      9  C   LIG    1       24.224 -20.194   5.815  0.00  0.00    -0.046 A 
ATOM     10  C   LIG    1       25.291 -19.769   5.010  0.00  0.00    +0.007 A 
ATOM     11  C   LIG    1       26.590 -20.220   5.235  0.00  0.00    +0.046 A 
ATOM     12  C   LIG    1       26.856 -21.091   6.286  0.00  0.00    +0.120 A 
ATOM     13  C   LIG    1       25.794 -21.572   7.057  0.00  0.00    +0.046 A 
ATOM     14  C   LIG    1       24.484 -21.120   6.833  0.00  0.00    +0.007 A 
BRANCH  12  15
ATOM     15  O   LIG    1       28.107 -21.539   6.619  0.00  0.00    -0.495 OA
ATOM     16  C   LIG    1       29.157 -20.604   6.375  0.00  0.00    +0.277 C 
ENDBRANCH  12  15
ENDBRANCH   8   9
ENDBRANCH   6   8
ENDBRANCH   3   6
ENDBRANCH   2   3
ENDBRANCH   1   2
BRANCH   1  17
ATOM     17  C   LIG    1       23.547 -14.415   3.906  0.00  0.00    +0.042 C 
BRANCH  17  18
ATOM     18  C   LIG    1       23.350 -13.642   2.610  0.00  0.00    +0.232 C 
BRANCH  18  19
ATOM     19  O   LIG    1       24.549 -13.241   1.918  0.00  0.00    -0.461 OA
BRANCH  19  20
ATOM     20  C   LIG    1       25.540 -12.664   2.620  0.00  0.00    +0.339 C 
ATOM     21  O   LIG    1       25.691 -11.452   2.819  0.00  0.00    -0.245 OA
BRANCH  20  22
ATOM     22  C   LIG    1       26.409 -13.731   3.205  0.00  0.00    +0.063 A 
ATOM     23  C   LIG    1       26.211 -15.086   2.881  0.00  0.00    +0.064 A 
ATOM     24  C   LIG    1       27.005 -16.091   3.445  0.00  0.00    +0.162 A 
ATOM     25  C   LIG    1       27.937 -15.762   4.439  0.00  0.00    +0.162 A 
ATOM     26  C   LIG    1       28.174 -14.410   4.730  0.00  0.00    +0.050 A 
ATOM     27  C   LIG    1       27.421 -13.400   4.118  0.00  0.00    +0.019 A 
BRANCH  24  28
ATOM     28  O   LIG    1       26.886 -17.401   3.067  0.00  0.00    -0.491 OA
ATOM     29  C   LIG    1       25.574 -17.854   2.759  0.00  0.00    +0.277 C 
ENDBRANCH  24  28
BRANCH  25  30
ATOM     30  O   LIG    1       28.690 -16.656   5.162  0.00  0.00    -0.491 OA
ATOM     31  C   LIG    1       28.803 -17.966   4.600  0.00  0.00    +0.277 C 
ENDBRANCH  25  30
ENDBRANCH  20  22
ENDBRANCH  19  20
ENDBRANCH  18  19
ENDBRANCH  17  18
ENDBRANCH   1  17
TORSDOF 14
ENDMDL
