MODEL 1
REMARK VINA RESULT:      -7.7      0.000      0.000
REMARK  Name = *****
REMARK                            x       y       z     vdW  Elec       q    Type
REMARK                         _______ _______ _______ _____ _____    ______ ____
ROOT
ATOM      1  S   LIG    1       30.695 -19.440   8.184  0.00  0.00    +0.075 S 
ATOM      2  O   LIG    1       31.761 -19.580   7.210  0.00  0.00    -0.150 OA
ATOM      3  O   LIG    1       30.824 -20.033   9.497  0.00  0.00    -0.150 OA
ENDROOT
BRANCH   1   7
ATOM      4  C   LIG    1       26.838 -21.101   6.386  0.00  0.00    +0.025 A 
ATOM      5  C   LIG    1       27.506 -20.036   5.772  0.00  0.00    +0.024 A 
ATOM      6  C   LIG    1       28.671 -19.506   6.329  0.00  0.00    +0.030 A 
ATOM      7  C   LIG    1       29.197 -20.079   7.488  0.00  0.00    +0.109 A 
ATOM      8  C   LIG    1       28.588 -21.190   8.072  0.00  0.00    +0.030 A 
ATOM      9  C   LIG    1       27.418 -21.705   7.507  0.00  0.00    +0.024 A 
BRANCH   4  10
ATOM     10  N   LIG    1       25.741 -21.697   5.755  0.00  0.00    -0.358 N 
ATOM     11  H   LIG    1       24.899 -21.704   6.324  0.00  0.00    +0.142 HD
ATOM     12  H   LIG    1       25.943 -22.610   5.361  0.00  0.00    +0.142 HD
ENDBRANCH   4  10
ENDBRANCH   1   7
BRANCH   1  13
ATOM     13  N   LIG    1       30.350 -17.822   8.443  0.00  0.00    -0.184 N 
ATOM     14  H   LIG    1       29.347 -17.709   8.557  0.00  0.00    +0.177 HD
BRANCH  13  15
ATOM     15  C   LIG    1       31.042 -17.275   9.516  0.00  0.00    +0.235 A 
ATOM     16  N   LIG    1       30.356 -16.972  10.620  0.00  0.00    -0.222 NA
ATOM     17  C   LIG    1       31.083 -16.405  11.601  0.00  0.00    +0.116 A 
ATOM     18  C   LIG    1       32.424 -16.112  11.480  0.00  0.00    +0.039 A 
ATOM     19  C   LIG    1       33.006 -16.463  10.283  0.00  0.00    +0.116 A 
ATOM     20  N   LIG    1       32.341 -17.073   9.287  0.00  0.00    -0.222 NA
ENDBRANCH  13  15
ENDBRANCH   1  13
TORSDOF 4
ENDMDL
MODEL 2
REMARK VINA RESULT:      -7.6      3.615      5.203
REMARK  Name = *****
REMARK                            x       y       z     vdW  Elec       q    Type
REMARK                         _______ _______ _______ _____ _____    ______ ____
ROOT
ATOM      1  S   LIG    1       26.085 -21.355   8.156  0.00  0.00    +0.075 S 
ATOM      2  O   LIG    1       25.693 -21.316   9.553  0.00  0.00    -0.150 OA
ATOM      3  O   LIG    1       25.792 -20.239   7.284  0.00  0.00    -0.150 OA
ENDROOT
BRANCH   1   7
ATOM      4  C   LIG    1       24.242 -25.047   6.197  0.00  0.00    +0.025 A 
ATOM      5  C   LIG    1       23.439 -23.959   6.556  0.00  0.00    +0.024 A 
ATOM      6  C   LIG    1       23.990 -22.838   7.178  0.00  0.00    +0.030 A 
ATOM      7  C   LIG    1       25.367 -22.787   7.401  0.00  0.00    +0.109 A 
ATOM      8  C   LIG    1       26.195 -23.829   6.980  0.00  0.00    +0.030 A 
ATOM      9  C   LIG    1       25.628 -24.948   6.366  0.00  0.00    +0.024 A 
BRANCH   4  10
ATOM     10  N   LIG    1       23.697 -26.110   5.469  0.00  0.00    -0.358 N 
ATOM     11  H   LIG    1       23.957 -27.025   5.828  0.00  0.00    +0.142 HD
ATOM     12  H   LIG    1       23.843 -26.037   4.467  0.00  0.00    +0.142 HD
ENDBRANCH   4  10
ENDBRANCH   1   7
BRANCH   1  13
ATOM     13  N   LIG    1       27.733 -21.623   8.021  0.00  0.00    -0.184 N 
ATOM     14  H   LIG    1       27.890 -22.440   7.438  0.00  0.00    +0.177 HD
BRANCH  13  15
ATOM     15  C   LIG    1       28.433 -20.523   7.544  0.00  0.00    +0.235 A 
ATOM     16  N   LIG    1       28.502 -20.344   6.222  0.00  0.00    -0.222 NA
ATOM     17  C   LIG    1       29.235 -19.284   5.832  0.00  0.00    +0.116 A 
ATOM     18  C   LIG    1       29.904 -18.459   6.710  0.00  0.00    +0.039 A 
ATOM     19  C   LIG    1       29.761 -18.765   8.044  0.00  0.00    +0.116 A 
ATOM     20  N   LIG    1       29.006 -19.781   8.494  0.00  0.00    -0.222 NA
ENDBRANCH  13  15
ENDBRANCH   1  13
TORSDOF 4
ENDMDL
MODEL 3
REMARK VINA RESULT:      -7.5      3.607      4.785
REMARK  Name = *****
REMARK                            x       y       z     vdW  Elec       q    Type
REMARK                         _______ _______ _______ _____ _____    ______ ____
ROOT
ATOM      1  S   LIG    1       26.593 -21.331   8.023  0.00  0.00    +0.075 S 
ATOM      2  O   LIG    1       26.121 -22.494   8.750  0.00  0.00    -0.150 OA
ATOM      3  O   LIG    1       26.982 -20.133   8.734  0.00  0.00    -0.150 OA
ENDROOT
BRANCH   1   7
ATOM      4  C   LIG    1       23.395 -20.060   5.017  0.00  0.00    +0.025 A 
ATOM      5  C   LIG    1       23.045 -20.376   6.334  0.00  0.00    +0.024 A 
ATOM      6  C   LIG    1       24.012 -20.789   7.252  0.00  0.00    +0.030 A 
ATOM      7  C   LIG    1       25.350 -20.843   6.858  0.00  0.00    +0.109 A 
ATOM      8  C   LIG    1       25.729 -20.459   5.571  0.00  0.00    +0.030 A 
ATOM      9  C   LIG    1       24.749 -20.054   4.661  0.00  0.00    +0.024 A 
BRANCH   4  10
ATOM     10  N   LIG    1       22.437 -19.535   4.144  0.00  0.00    -0.358 N 
ATOM     11  H   LIG    1       21.484 -19.614   4.489  0.00  0.00    +0.142 HD
ATOM     12  H   LIG    1       22.527 -19.870   3.190  0.00  0.00    +0.142 HD
ENDBRANCH   4  10
ENDBRANCH   1   7
BRANCH   1  13
ATOM     13  N   LIG    1       27.899 -21.737   7.057  0.00  0.00    -0.184 N 
ATOM     14  H   LIG    1       27.607 -21.737   6.084  0.00  0.00    +0.177 HD
BRANCH  13  15
ATOM     15  C   LIG    1       29.003 -20.917   7.249  0.00  0.00    +0.235 A 
ATOM     16  N   LIG    1       29.211 -19.926   6.379  0.00  0.00    -0.222 NA
ATOM     17  C   LIG    1       30.324 -19.202   6.601  0.00  0.00    +0.116 A 
ATOM     18  C   LIG    1       31.214 -19.470   7.618  0.00  0.00    +0.039 A 
ATOM     19  C   LIG    1       30.887 -20.529   8.434  0.00  0.00    +0.116 A 
ATOM     20  N   LIG    1       29.768 -21.258   8.288  0.00  0.00    -0.222 NA
ENDBRANCH  13  15
ENDBRANCH   1  13
TORSDOF 4
ENDMDL
MODEL 4
REMARK VINA RESULT:      -7.4      3.601      4.654
REMARK  Name = *****
REMARK                            x       y       z     vdW  Elec       q    Type
REMARK                         _______ _______ _______ _____ _____    ______ ____
ROOT
ATOM      1  S   LIG    1       26.594 -21.267   8.169  0.00  0.00    +0.075 S 
ATOM      2  O   LIG    1       26.053 -22.337   8.985  0.00  0.00    -0.150 OA
ATOM      3  O   LIG    1       27.064 -20.045   8.784  0.00  0.00    -0.150 OA
ENDROOT
BRANCH   1   7
ATOM      4  C   LIG    1       23.450 -20.057   5.082  0.00  0.00    +0.025 A 
ATOM      5  C   LIG    1       24.801 -20.130   4.727  0.00  0.00    +0.024 A 
ATOM      6  C   LIG    1       25.771 -20.475   5.670  0.00  0.00    +0.030 A 
ATOM      7  C   LIG    1       25.377 -20.792   6.971  0.00  0.00    +0.109 A 
ATOM      8  C   LIG    1       24.027 -20.799   7.325  0.00  0.00    +0.030 A 
ATOM      9  C   LIG    1       23.068 -20.445   6.372  0.00  0.00    +0.024 A 
BRANCH   4  10
ATOM     10  N   LIG    1       22.479 -19.827   4.102  0.00  0.00    -0.358 N 
ATOM     11  H   LIG    1       21.810 -20.586   4.006  0.00  0.00    +0.142 HD
ATOM     12  H   LIG    1       22.862 -19.540   3.207  0.00  0.00    +0.142 HD
ENDBRANCH   4  10
ENDBRANCH   1   7
BRANCH   1  13
ATOM     13  N   LIG    1       27.865 -21.831   7.236  0.00  0.00    -0.184 N 
ATOM     14  H   LIG    1       27.574 -21.867   6.263  0.00  0.00    +0.177 HD
BRANCH  13  15
ATOM     15  C   LIG    1       29.029 -21.088   7.384  0.00  0.00    +0.235 A 
ATOM     16  N   LIG    1       29.811 -21.343   8.436  0.00  0.00    -0.222 NA
ATOM     17  C   LIG    1       30.896 -20.555   8.539  0.00  0.00    +0.116 A 
ATOM     18  C   LIG    1       31.178 -19.530   7.662  0.00  0.00    +0.039 A 
ATOM     19  C   LIG    1       30.282 -19.365   6.630  0.00  0.00    +0.116 A 
ATOM     20  N   LIG    1       29.206 -20.151   6.450  0.00  0.00    -0.222 NA
ENDBRANCH  13  15
ENDBRANCH   1  13
TORSDOF 4
ENDMDL
MODEL 5
REMARK VINA RESULT:      -7.3      7.462     10.946
REMARK  Name = *****
REMARK                            x       y       z     vdW  Elec       q    Type
REMARK                         _______ _______ _______ _____ _____    ______ ____
ROOT
ATOM      1  S   LIG    1       25.590 -26.530   6.152  0.00  0.00    +0.075 S 
ATOM      2  O   LIG    1       26.321 -27.035   7.299  0.00  0.00    -0.150 OA
ATOM      3  O   LIG    1       26.246 -26.393   4.871  0.00  0.00    -0.150 OA
ENDROOT
BRANCH   1   7
ATOM      4  C   LIG    1       23.894 -22.419   7.200  0.00  0.00    +0.025 A 
ATOM      5  C   LIG    1       23.045 -23.453   6.791  0.00  0.00    +0.024 A 
ATOM      6  C   LIG    1       23.558 -24.704   6.445  0.00  0.00    +0.030 A 
ATOM      7  C   LIG    1       24.930 -24.935   6.553  0.00  0.00    +0.109 A 
ATOM      8  C   LIG    1       25.784 -23.940   7.032  0.00  0.00    +0.030 A 
ATOM      9  C   LIG    1       25.257 -22.690   7.368  0.00  0.00    +0.024 A 
BRANCH   4  10
ATOM     10  N   LIG    1       23.357 -21.210   7.656  0.00  0.00    -0.358 N 
ATOM     11  H   LIG    1       23.262 -20.507   6.929  0.00  0.00    +0.142 HD
ATOM     12  H   LIG    1       23.818 -20.845   8.483  0.00  0.00    +0.142 HD
ENDBRANCH   4  10
ENDBRANCH   1   7
BRANCH   1  13
ATOM     13  N   LIG    1       24.226 -27.461   5.873  0.00  0.00    -0.184 N 
ATOM     14  H   LIG    1       23.904 -27.304   4.923  0.00  0.00    +0.177 HD
BRANCH  13  15
ATOM     15  C   LIG    1       24.423 -28.813   6.120  0.00  0.00    +0.235 A 
ATOM     16  N   LIG    1       23.938 -29.325   7.253  0.00  0.00    -0.222 NA
ATOM     17  C   LIG    1       24.206 -30.630   7.445  0.00  0.00    +0.116 A 
ATOM     18  C   LIG    1       24.956 -31.388   6.573  0.00  0.00    +0.039 A 
ATOM     19  C   LIG    1       25.408 -30.733   5.450  0.00  0.00    +0.116 A 
ATOM     20  N   LIG    1       25.133 -29.445   5.183  0.00  0.00    -0.222 NA
ENDBRANCH  13  15
ENDBRANCH   1  13
TORSDOF 4
ENDMDL
MODEL 6
REMARK VINA RESULT:      -7.2      7.383     10.860
REMARK  Name = *****
REMARK                            x       y       z     vdW  Elec       q    Type
REMARK                         _______ _______ _______ _____ _____    ______ ____
ROOT
ATOM      1  S   LIG    1       25.521 -26.378   5.978  0.00  0.00    +0.075 S 
ATOM      2  O   LIG    1       26.445 -26.884   6.976  0.00  0.00    -0.150 OA
ATOM      3  O   LIG    1       25.952 -26.198   4.609  0.00  0.00    -0.150 OA
ENDROOT
BRANCH   1   7
ATOM      4  C   LIG    1       23.908 -22.334   7.362  0.00  0.00    +0.025 A 
ATOM      5  C   LIG    1       25.284 -22.589   7.371  0.00  0.00    +0.024 A 
ATOM      6  C   LIG    1       25.783 -23.831   6.973  0.00  0.00    +0.030 A 
ATOM      7  C   LIG    1       24.898 -24.810   6.520  0.00  0.00    +0.109 A 
ATOM      8  C   LIG    1       23.530 -24.548   6.431  0.00  0.00    +0.030 A 
ATOM      9  C   LIG    1       23.044 -23.303   6.839  0.00  0.00    +0.024 A 
BRANCH   4  10
ATOM     10  N   LIG    1       23.432 -21.049   7.648  0.00  0.00    -0.358 N 
ATOM     11  H   LIG    1       22.427 -21.011   7.791  0.00  0.00    +0.142 HD
ATOM     12  H   LIG    1       23.753 -20.340   6.997  0.00  0.00    +0.142 HD
ENDBRANCH   4  10
ENDBRANCH   1   7
BRANCH   1  13
ATOM     13  N   LIG    1       24.153 -27.341   5.907  0.00  0.00    -0.184 N 
ATOM     14  H   LIG    1       23.686 -27.192   5.018  0.00  0.00    +0.177 HD
BRANCH  13  15
ATOM     15  C   LIG    1       24.417 -28.689   6.115  0.00  0.00    +0.235 A 
ATOM     16  N   LIG    1       24.029 -29.238   7.268  0.00  0.00    -0.222 NA
ATOM     17  C   LIG    1       24.359 -30.534   7.418  0.00  0.00    +0.116 A 
ATOM     18  C   LIG    1       25.077 -31.248   6.483  0.00  0.00    +0.039 A 
ATOM     19  C   LIG    1       25.428 -30.558   5.345  0.00  0.00    +0.116 A 
ATOM     20  N   LIG    1       25.087 -29.277   5.121  0.00  0.00    -0.222 NA
ENDBRANCH  13  15
ENDBRANCH   1  13
TORSDOF 4
ENDMDL
MODEL 7
REMARK VINA RESULT:      -7.2      3.915      7.260
REMARK  Name = *****
REMARK                            x       y       z     vdW  Elec       q    Type
REMARK                         _______ _______ _______ _____ _____    ______ ____
ROOT
ATOM      1  S   LIG    1       26.004 -21.552   6.880  0.00  0.00    +0.075 S 
ATOM      2  O   LIG    1       25.126 -20.659   7.613  0.00  0.00    -0.150 OA
ATOM      3  O   LIG    1       26.091 -22.949   7.242  0.00  0.00    -0.150 OA
ENDROOT
BRANCH   1   7
ATOM      4  C   LIG    1       30.257 -19.894   7.062  0.00  0.00    +0.025 A 
ATOM      5  C   LIG    1       29.324 -19.356   6.170  0.00  0.00    +0.024 A 
ATOM      6  C   LIG    1       28.030 -19.873   6.090  0.00  0.00    +0.030 A 
ATOM      7  C   LIG    1       27.654 -20.911   6.945  0.00  0.00    +0.109 A 
ATOM      8  C   LIG    1       28.547 -21.410   7.895  0.00  0.00    +0.030 A 
ATOM      9  C   LIG    1       29.842 -20.887   7.957  0.00  0.00    +0.024 A 
BRANCH   4  10
ATOM     10  N   LIG    1       31.510 -19.291   7.215  0.00  0.00    -0.358 N 
ATOM     11  H   LIG    1       32.100 -19.746   7.906  0.00  0.00    +0.142 HD
ATOM     12  H   LIG    1       31.465 -18.286   7.354  0.00  0.00    +0.142 HD
ENDBRANCH   4  10
ENDBRANCH   1   7
BRANCH   1  13
ATOM     13  N   LIG    1       25.635 -21.523   5.247  0.00  0.00    -0.184 N 
ATOM     14  H   LIG    1       25.421 -22.466   4.937  0.00  0.00    +0.177 HD
BRANCH  13  15
ATOM     15  C   LIG    1       24.606 -20.645   4.930  0.00  0.00    +0.235 A 
ATOM     16  N   LIG    1       23.376 -20.932   5.362  0.00  0.00    -0.222 NA
ATOM     17  C   LIG    1       22.424 -20.062   4.979  0.00  0.00    +0.116 A 
ATOM     18  C   LIG    1       22.669 -18.975   4.169  0.00  0.00    +0.039 A 
ATOM     19  C   LIG    1       23.979 -18.803   3.782  0.00  0.00    +0.116 A 
ATOM     20  N   LIG    1       24.979 -19.613   4.171  0.00  0.00    -0.222 NA
ENDBRANCH  13  15
ENDBRANCH   1  13
TORSDOF 4
ENDMDL
MODEL 8
REMARK VINA RESULT:      -7.2      7.646      9.119
REMARK  Name = *****
REMARK                            x       y       z     vdW  Elec       q    Type
REMARK                         _______ _______ _______ _____ _____    ______ ____
ROOT
ATOM      1  S   LIG    1       24.768 -22.938   6.225  0.00  0.00    +0.075 S 
ATOM      2  O   LIG    1       23.787 -23.470   7.151  0.00  0.00    -0.150 OA
ATOM      3  O   LIG    1       26.102 -22.615   6.680  0.00  0.00    -0.150 OA
ENDROOT
BRANCH   1   7
ATOM      4  C   LIG    1       23.102 -19.132   4.325  0.00  0.00    +0.025 A 
ATOM      5  C   LIG    1       22.485 -19.692   5.448  0.00  0.00    +0.024 A 
ATOM      6  C   LIG    1       22.973 -20.868   6.019  0.00  0.00    +0.030 A 
ATOM      7  C   LIG    1       24.117 -21.465   5.487  0.00  0.00    +0.109 A 
ATOM      8  C   LIG    1       24.791 -20.879   4.414  0.00  0.00    +0.030 A 
ATOM      9  C   LIG    1       24.286 -19.705   3.847  0.00  0.00    +0.024 A 
BRANCH   4  10
ATOM     10  N   LIG    1       22.675 -17.892   3.836  0.00  0.00    -0.358 N 
ATOM     11  H   LIG    1       23.367 -17.423   3.257  0.00  0.00    +0.142 HD
ATOM     12  H   LIG    1       22.296 -17.280   4.551  0.00  0.00    +0.142 HD
ENDBRANCH   4  10
ENDBRANCH   1   7
BRANCH   1  13
ATOM     13  N   LIG    1       24.965 -23.975   4.925  0.00  0.00    -0.184 N 
ATOM     14  H   LIG    1       25.742 -23.653   4.355  0.00  0.00    +0.177 HD
BRANCH  13  15
ATOM     15  C   LIG    1       25.134 -25.302   5.299  0.00  0.00    +0.235 A 
ATOM     16  N   LIG    1       24.072 -26.109   5.255  0.00  0.00    -0.222 NA
ATOM     17  C   LIG    1       24.299 -27.368   5.675  0.00  0.00    +0.116 A 
ATOM     18  C   LIG    1       25.517 -27.800   6.156  0.00  0.00    +0.039 A 
ATOM     19  C   LIG    1       26.523 -26.861   6.161  0.00  0.00    +0.116 A 
ATOM     20  N   LIG    1       26.366 -25.604   5.711  0.00  0.00    -0.222 NA
ENDBRANCH  13  15
ENDBRANCH   1  13
TORSDOF 4
ENDMDL
MODEL 9
REMARK VINA RESULT:      -7.0      4.655      8.152
REMARK  Name = *****
REMARK                            x       y       z     vdW  Elec       q    Type
REMARK                         _______ _______ _______ _____ _____    ______ ____
ROOT
ATOM      1  S   LIG    1       24.462 -21.433   6.115  0.00  0.00    +0.075 S 
ATOM      2  O   LIG    1       24.454 -21.997   4.778  0.00  0.00    -0.150 OA
ATOM      3  O   LIG    1       23.506 -20.414   6.484  0.00  0.00    -0.150 OA
ENDROOT
BRANCH   1   7
ATOM      4  C   LIG    1       28.609 -19.706   6.945  0.00  0.00    +0.025 A 
ATOM      5  C   LIG    1       27.874 -20.309   7.971  0.00  0.00    +0.024 A 
ATOM      6  C   LIG    1       26.596 -20.816   7.732  0.00  0.00    +0.030 A 
ATOM      7  C   LIG    1       26.068 -20.760   6.441  0.00  0.00    +0.109 A 
ATOM      8  C   LIG    1       26.817 -20.231   5.388  0.00  0.00    +0.030 A 
ATOM      9  C   LIG    1       28.092 -19.720   5.645  0.00  0.00    +0.024 A 
BRANCH   4  10
ATOM     10  N   LIG    1       29.932 -19.309   7.170  0.00  0.00    -0.358 N 
ATOM     11  H   LIG    1       30.095 -18.947   8.106  0.00  0.00    +0.142 HD
ATOM     12  H   LIG    1       30.302 -18.694   6.453  0.00  0.00    +0.142 HD
ENDBRANCH   4  10
ENDBRANCH   1   7
BRANCH   1  13
ATOM     13  N   LIG    1       24.305 -22.646   7.260  0.00  0.00    -0.184 N 
ATOM     14  H   LIG    1       23.371 -22.611   7.657  0.00  0.00    +0.177 HD
BRANCH  13  15
ATOM     15  C   LIG    1       24.592 -23.911   6.765  0.00  0.00    +0.235 A 
ATOM     16  N   LIG    1       23.571 -24.712   6.448  0.00  0.00    -0.222 NA
ATOM     17  C   LIG    1       23.925 -25.937   6.019  0.00  0.00    +0.116 A 
ATOM     18  C   LIG    1       25.231 -26.368   5.943  0.00  0.00    +0.039 A 
ATOM     19  C   LIG    1       26.186 -25.449   6.314  0.00  0.00    +0.116 A 
ATOM     20  N   LIG    1       25.895 -24.197   6.706  0.00  0.00    -0.222 NA
ENDBRANCH  13  15
ENDBRANCH   1  13
TORSDOF 4
ENDMDL
