MODEL 1
REMARK VINA RESULT:      -7.4      0.000      0.000
REMARK  Name = *****
REMARK                            x       y       z     vdW  Elec       q    Type
REMARK                         _______ _______ _______ _____ _____    ______ ____
ROOT
ATOM      1  C   LIG    1       27.075 -20.393   6.492  0.00  0.00    +0.000 C 
ENDROOT
BRANCH   1   2
ATOM      2  C   LIG    1       26.890 -20.433   8.016  0.00  0.00    -0.000 C 
BRANCH   2   3
ATOM      3  C   LIG    1       25.811 -21.454   8.420  0.00  0.00    -0.000 C 
BRANCH   3   4
ATOM      4  C   LIG    1       25.978 -22.806   7.708  0.00  0.00    -0.000 C 
BRANCH   4   5
ATOM      5  C   LIG    1       24.729 -23.211   6.903  0.00  0.00    -0.000 C 
BRANCH   5   6
ATOM      6  C   LIG    1       23.498 -22.376   7.307  0.00  0.00    -0.000 C 
BRANCH   6   7
ATOM      7  C   LIG    1       22.867 -21.648   6.110  0.00  0.00    -0.000 C 
BRANCH   7   8
ATOM      8  C   LIG    1       23.336 -20.195   5.896  0.00  0.00    -0.000 C 
BRANCH   8  10
ATOM      9  C   LIG    1       22.152 -18.478   4.419  0.00  0.00    +0.004 C 
ATOM     10  C   LIG    1       23.125 -19.655   4.476  0.00  0.00    -0.003 C 
ENDBRANCH   8  10
ENDBRANCH   7   8
ENDBRANCH   6   7
ENDBRANCH   5   6
ENDBRANCH   4   5
ENDBRANCH   3   4
ENDBRANCH   2   3
ENDBRANCH   1   2
BRANCH   1  11
ATOM     11  C   LIG    1       28.489 -19.984   6.059  0.00  0.00    +0.000 C 
BRANCH  11  12
ATOM     12  C   LIG    1       29.498 -19.989   7.220  0.00  0.00    +0.011 C 
BRANCH  12  13
ATOM     13  C   LIG    1       30.823 -19.276   6.945  0.00  0.00    +0.120 C 
BRANCH  13  14
ATOM     14  C   LIG    1       31.627 -19.046   8.204  0.00  0.00    +0.307 C 
ATOM     15  O   LIG    1       31.937 -19.915   8.995  0.00  0.00    -0.251 OA
BRANCH  14  16
ATOM     16  O   LIG    1       31.932 -17.721   8.308  0.00  0.00    -0.462 OA
BRANCH  16  17
ATOM     17  C   LIG    1       31.894 -17.170   9.636  0.00  0.00    +0.170 C 
ATOM     18  C   LIG    1       30.424 -16.962   9.980  0.00  0.00    +0.051 C 
ATOM     19  C   LIG    1       32.655 -15.851   9.679  0.00  0.00    +0.051 C 
ENDBRANCH  16  17
ENDBRANCH  14  16
ENDBRANCH  13  14
ENDBRANCH  12  13
ENDBRANCH  11  12
ENDBRANCH   1  11
TORSDOF 14
ENDMDL
MODEL 2
REMARK VINA RESULT:      -7.3      1.066      1.699
REMARK  Name = *****
REMARK                            x       y       z     vdW  Elec       q    Type
REMARK                         _______ _______ _______ _____ _____    ______ ____
ROOT
ATOM      1  C   LIG    1       28.283 -19.716   5.770  0.00  0.00    +0.000 C 
ENDROOT
BRANCH   1   2
ATOM      2  C   LIG    1       26.993 -20.367   6.289  0.00  0.00    -0.000 C 
BRANCH   2   3
ATOM      3  C   LIG    1       26.988 -20.447   7.826  0.00  0.00    -0.000 C 
BRANCH   3   4
ATOM      4  C   LIG    1       25.592 -20.736   8.400  0.00  0.00    -0.000 C 
BRANCH   4   5
ATOM      5  C   LIG    1       24.693 -21.507   7.415  0.00  0.00    -0.000 C 
BRANCH   5   6
ATOM      6  C   LIG    1       23.339 -20.798   7.209  0.00  0.00    -0.000 C 
BRANCH   6   7
ATOM      7  C   LIG    1       22.899 -20.795   5.737  0.00  0.00    -0.000 C 
BRANCH   7   8
ATOM      8  C   LIG    1       22.546 -19.411   5.154  0.00  0.00    -0.000 C 
BRANCH   8  10
ATOM      9  C   LIG    1       24.485 -19.986   3.592  0.00  0.00    +0.004 C 
ATOM     10  C   LIG    1       23.347 -19.016   3.908  0.00  0.00    -0.003 C 
ENDBRANCH   8  10
ENDBRANCH   7   8
ENDBRANCH   6   7
ENDBRANCH   5   6
ENDBRANCH   4   5
ENDBRANCH   3   4
ENDBRANCH   2   3
ENDBRANCH   1   2
BRANCH   1  11
ATOM     11  C   LIG    1       29.543 -20.181   6.511  0.00  0.00    +0.000 C 
BRANCH  11  12
ATOM     12  C   LIG    1       30.492 -19.025   6.867  0.00  0.00    +0.011 C 
BRANCH  12  13
ATOM     13  C   LIG    1       30.337 -18.456   8.279  0.00  0.00    +0.120 C 
BRANCH  13  14
ATOM     14  C   LIG    1       31.206 -19.171   9.288  0.00  0.00    +0.307 C 
ATOM     15  O   LIG    1       31.116 -20.351   9.566  0.00  0.00    -0.251 OA
BRANCH  14  16
ATOM     16  O   LIG    1       32.086 -18.284   9.834  0.00  0.00    -0.462 OA
BRANCH  16  17
ATOM     17  C   LIG    1       31.575 -16.963  10.082  0.00  0.00    +0.170 C 
ATOM     18  C   LIG    1       32.669 -15.986   9.665  0.00  0.00    +0.051 C 
ATOM     19  C   LIG    1       31.232 -16.801  11.557  0.00  0.00    +0.051 C 
ENDBRANCH  16  17
ENDBRANCH  14  16
ENDBRANCH  13  14
ENDBRANCH  12  13
ENDBRANCH  11  12
ENDBRANCH   1  11
TORSDOF 14
ENDMDL
MODEL 3
REMARK VINA RESULT:      -7.1      1.449      3.064
REMARK  Name = *****
REMARK                            x       y       z     vdW  Elec       q    Type
REMARK                         _______ _______ _______ _____ _____    ______ ____
ROOT
ATOM      1  C   LIG    1       27.147 -20.321   6.479  0.00  0.00    +0.000 C 
ENDROOT
BRANCH   1   2
ATOM      2  C   LIG    1       26.948 -20.530   7.987  0.00  0.00    -0.000 C 
BRANCH   2   3
ATOM      3  C   LIG    1       25.453 -20.580   8.352  0.00  0.00    -0.000 C 
BRANCH   3   4
ATOM      4  C   LIG    1       24.561 -20.927   7.150  0.00  0.00    -0.000 C 
BRANCH   4   5
ATOM      5  C   LIG    1       23.624 -22.117   7.431  0.00  0.00    -0.000 C 
BRANCH   5   6
ATOM      6  C   LIG    1       24.031 -23.363   6.618  0.00  0.00    -0.000 C 
BRANCH   6   7
ATOM      7  C   LIG    1       25.523 -23.699   6.770  0.00  0.00    -0.000 C 
BRANCH   7   8
ATOM      8  C   LIG    1       25.883 -25.192   6.630  0.00  0.00    -0.000 C 
BRANCH   8  10
ATOM      9  C   LIG    1       24.371 -27.001   5.643  0.00  0.00    +0.004 C 
ATOM     10  C   LIG    1       25.351 -25.863   5.358  0.00  0.00    -0.003 C 
ENDBRANCH   8  10
ENDBRANCH   7   8
ENDBRANCH   6   7
ENDBRANCH   5   6
ENDBRANCH   4   5
ENDBRANCH   3   4
ENDBRANCH   2   3
ENDBRANCH   1   2
BRANCH   1  11
ATOM     11  C   LIG    1       28.612 -20.109   6.079  0.00  0.00    +0.000 C 
BRANCH  11  12
ATOM     12  C   LIG    1       29.548 -19.949   7.289  0.00  0.00    +0.011 C 
BRANCH  12  13
ATOM     13  C   LIG    1       30.886 -19.265   7.001  0.00  0.00    +0.120 C 
BRANCH  13  14
ATOM     14  C   LIG    1       31.673 -18.985   8.261  0.00  0.00    +0.307 C 
ATOM     15  O   LIG    1       32.032 -19.833   9.055  0.00  0.00    -0.251 OA
BRANCH  14  16
ATOM     16  O   LIG    1       31.902 -17.645   8.361  0.00  0.00    -0.462 OA
BRANCH  16  17
ATOM     17  C   LIG    1       31.954 -17.115   9.697  0.00  0.00    +0.170 C 
ATOM     18  C   LIG    1       30.510 -16.911  10.142  0.00  0.00    +0.051 C 
ATOM     19  C   LIG    1       32.719 -15.797   9.709  0.00  0.00    +0.051 C 
ENDBRANCH  16  17
ENDBRANCH  14  16
ENDBRANCH  13  14
ENDBRANCH  12  13
ENDBRANCH  11  12
ENDBRANCH   1  11
TORSDOF 14
ENDMDL
MODEL 4
REMARK VINA RESULT:      -7.0      1.382      2.960
REMARK  Name = *****
REMARK                            x       y       z     vdW  Elec       q    Type
REMARK                         _______ _______ _______ _____ _____    ______ ____
ROOT
ATOM      1  C   LIG    1       27.071 -20.288   6.051  0.00  0.00    +0.000 C 
ENDROOT
BRANCH   1   2
ATOM      2  C   LIG    1       26.353 -19.835   4.772  0.00  0.00    -0.000 C 
BRANCH   2   3
ATOM      3  C   LIG    1       25.100 -20.687   4.503  0.00  0.00    -0.000 C 
BRANCH   3   4
ATOM      4  C   LIG    1       23.794 -19.904   4.714  0.00  0.00    -0.000 C 
BRANCH   4   5
ATOM      5  C   LIG    1       22.838 -20.601   5.700  0.00  0.00    -0.000 C 
BRANCH   5   6
ATOM      6  C   LIG    1       23.461 -20.722   7.105  0.00  0.00    -0.000 C 
BRANCH   6   7
ATOM      7  C   LIG    1       23.843 -22.170   7.452  0.00  0.00    -0.000 C 
BRANCH   7   8
ATOM      8  C   LIG    1       22.978 -23.260   6.787  0.00  0.00    -0.000 C 
BRANCH   8  10
ATOM      9  C   LIG    1       25.132 -24.398   6.012  0.00  0.00    +0.004 C 
ATOM     10  C   LIG    1       23.705 -24.585   6.527  0.00  0.00    -0.003 C 
ENDBRANCH   8  10
ENDBRANCH   7   8
ENDBRANCH   6   7
ENDBRANCH   5   6
ENDBRANCH   4   5
ENDBRANCH   3   4
ENDBRANCH   2   3
ENDBRANCH   1   2
BRANCH   1  11
ATOM     11  C   LIG    1       28.593 -20.112   5.994  0.00  0.00    +0.000 C 
BRANCH  11  12
ATOM     12  C   LIG    1       29.280 -20.369   7.346  0.00  0.00    +0.011 C 
BRANCH  12  13
ATOM     13  C   LIG    1       30.723 -19.873   7.457  0.00  0.00    +0.120 C 
BRANCH  13  14
ATOM     14  C   LIG    1       31.252 -19.951   8.870  0.00  0.00    +0.307 C 
ATOM     15  O   LIG    1       32.119 -20.718   9.244  0.00  0.00    -0.251 OA
BRANCH  14  16
ATOM     16  O   LIG    1       30.598 -19.041   9.648  0.00  0.00    -0.462 OA
BRANCH  16  17
ATOM     17  C   LIG    1       31.406 -17.983  10.191  0.00  0.00    +0.170 C 
ATOM     18  C   LIG    1       30.483 -17.126  11.049  0.00  0.00    +0.051 C 
ATOM     19  C   LIG    1       32.022 -17.162   9.065  0.00  0.00    +0.051 C 
ENDBRANCH  16  17
ENDBRANCH  14  16
ENDBRANCH  13  14
ENDBRANCH  12  13
ENDBRANCH  11  12
ENDBRANCH   1  11
TORSDOF 14
ENDMDL
MODEL 5
REMARK VINA RESULT:      -7.0      1.302      1.983
REMARK  Name = *****
REMARK                            x       y       z     vdW  Elec       q    Type
REMARK                         _______ _______ _______ _____ _____    ______ ____
ROOT
ATOM      1  C   LIG    1       28.200 -20.085   7.738  0.00  0.00    +0.000 C 
ENDROOT
BRANCH   1   2
ATOM      2  C   LIG    1       27.718 -21.531   7.923  0.00  0.00    -0.000 C 
BRANCH   2   3
ATOM      3  C   LIG    1       26.228 -21.577   8.308  0.00  0.00    -0.000 C 
BRANCH   3   4
ATOM      4  C   LIG    1       25.350 -20.718   7.385  0.00  0.00    -0.000 C 
BRANCH   4   5
ATOM      5  C   LIG    1       25.287 -21.265   5.947  0.00  0.00    -0.000 C 
BRANCH   5   6
ATOM      6  C   LIG    1       25.646 -20.180   4.912  0.00  0.00    -0.000 C 
BRANCH   6   7
ATOM      7  C   LIG    1       24.661 -20.148   3.733  0.00  0.00    -0.000 C 
BRANCH   7   8
ATOM      8  C   LIG    1       23.596 -19.034   3.791  0.00  0.00    -0.000 C 
BRANCH   8  10
ATOM      9  C   LIG    1       22.111 -20.739   4.982  0.00  0.00    +0.004 C 
ATOM     10  C   LIG    1       22.480 -19.265   4.817  0.00  0.00    -0.003 C 
ENDBRANCH   8  10
ENDBRANCH   7   8
ENDBRANCH   6   7
ENDBRANCH   5   6
ENDBRANCH   4   5
ENDBRANCH   3   4
ENDBRANCH   2   3
ENDBRANCH   1   2
BRANCH   1  11
ATOM     11  C   LIG    1       29.136 -19.901   6.537  0.00  0.00    +0.000 C 
BRANCH  11  12
ATOM     12  C   LIG    1       30.462 -19.216   6.907  0.00  0.00    +0.011 C 
BRANCH  12  13
ATOM     13  C   LIG    1       30.521 -18.610   8.310  0.00  0.00    +0.120 C 
BRANCH  13  14
ATOM     14  C   LIG    1       31.632 -19.200   9.147  0.00  0.00    +0.307 C 
ATOM     15  O   LIG    1       32.047 -20.339   9.043  0.00  0.00    -0.251 OA
BRANCH  14  16
ATOM     16  O   LIG    1       32.077 -18.263  10.032  0.00  0.00    -0.462 OA
BRANCH  16  17
ATOM     17  C   LIG    1       31.486 -16.958   9.915  0.00  0.00    +0.170 C 
ATOM     18  C   LIG    1       32.617 -15.996   9.568  0.00  0.00    +0.051 C 
ATOM     19  C   LIG    1       30.819 -16.563  11.227  0.00  0.00    +0.051 C 
ENDBRANCH  16  17
ENDBRANCH  14  16
ENDBRANCH  13  14
ENDBRANCH  12  13
ENDBRANCH  11  12
ENDBRANCH   1  11
TORSDOF 14
ENDMDL
MODEL 6
REMARK VINA RESULT:      -6.8      1.300      2.949
REMARK  Name = *****
REMARK                            x       y       z     vdW  Elec       q    Type
REMARK                         _______ _______ _______ _____ _____    ______ ____
ROOT
ATOM      1  C   LIG    1       27.015 -20.267   6.610  0.00  0.00    +0.000 C 
ENDROOT
BRANCH   1   2
ATOM      2  C   LIG    1       26.168 -20.798   5.445  0.00  0.00    -0.000 C 
BRANCH   2   3
ATOM      3  C   LIG    1       25.934 -19.708   4.383  0.00  0.00    -0.000 C 
BRANCH   3   4
ATOM      4  C   LIG    1       24.590 -19.868   3.655  0.00  0.00    -0.000 C 
BRANCH   4   5
ATOM      5  C   LIG    1       23.539 -18.841   4.115  0.00  0.00    -0.000 C 
BRANCH   5   6
ATOM      6  C   LIG    1       22.218 -19.525   4.521  0.00  0.00    -0.000 C 
BRANCH   6   7
ATOM      7  C   LIG    1       22.450 -20.810   5.330  0.00  0.00    -0.000 C 
BRANCH   7   8
ATOM      8  C   LIG    1       23.076 -20.611   6.725  0.00  0.00    -0.000 C 
BRANCH   8  10
ATOM      9  C   LIG    1       22.959 -23.164   6.721  0.00  0.00    +0.004 C 
ATOM     10  C   LIG    1       23.335 -21.906   7.504  0.00  0.00    -0.003 C 
ENDBRANCH   8  10
ENDBRANCH   7   8
ENDBRANCH   6   7
ENDBRANCH   5   6
ENDBRANCH   4   5
ENDBRANCH   3   4
ENDBRANCH   2   3
ENDBRANCH   1   2
BRANCH   1  11
ATOM     11  C   LIG    1       28.450 -19.904   6.207  0.00  0.00    +0.000 C 
BRANCH  11  12
ATOM     12  C   LIG    1       29.510 -20.520   7.135  0.00  0.00    +0.011 C 
BRANCH  12  13
ATOM     13  C   LIG    1       30.625 -19.573   7.582  0.00  0.00    +0.120 C 
BRANCH  13  14
ATOM     14  C   LIG    1       31.208 -19.961   8.921  0.00  0.00    +0.307 C 
ATOM     15  O   LIG    1       31.016 -21.025   9.479  0.00  0.00    -0.251 OA
BRANCH  14  16
ATOM     16  O   LIG    1       31.966 -18.932   9.398  0.00  0.00    -0.462 OA
BRANCH  16  17
ATOM     17  C   LIG    1       31.320 -17.648   9.451  0.00  0.00    +0.170 C 
ATOM     18  C   LIG    1       32.428 -16.603   9.503  0.00  0.00    +0.051 C 
ATOM     19  C   LIG    1       30.429 -17.559  10.683  0.00  0.00    +0.051 C 
ENDBRANCH  16  17
ENDBRANCH  14  16
ENDBRANCH  13  14
ENDBRANCH  12  13
ENDBRANCH  11  12
ENDBRANCH   1  11
TORSDOF 14
ENDMDL
MODEL 7
REMARK VINA RESULT:      -6.5      4.492      7.451
REMARK  Name = *****
REMARK                            x       y       z     vdW  Elec       q    Type
REMARK                         _______ _______ _______ _____ _____    ______ ____
ROOT
ATOM      1  C   LIG    1       26.014 -20.796   8.530  0.00  0.00    +0.000 C 
ENDROOT
BRANCH   1   2
ATOM      2  C   LIG    1       27.342 -20.089   8.226  0.00  0.00    -0.000 C 
BRANCH   2   3
ATOM      3  C   LIG    1       27.972 -20.619   6.925  0.00  0.00    -0.000 C 
BRANCH   3   4
ATOM      4  C   LIG    1       27.558 -19.803   5.690  0.00  0.00    -0.000 C 
BRANCH   4   5
ATOM      5  C   LIG    1       26.322 -20.385   4.980  0.00  0.00    -0.000 C 
BRANCH   5   6
ATOM      6  C   LIG    1       25.762 -19.409   3.926  0.00  0.00    -0.000 C 
BRANCH   6   7
ATOM      7  C   LIG    1       24.312 -19.738   3.537  0.00  0.00    -0.000 C 
BRANCH   7   8
ATOM      8  C   LIG    1       23.473 -20.427   4.633  0.00  0.00    -0.000 C 
BRANCH   8  10
ATOM      9  C   LIG    1       22.199 -18.212   4.583  0.00  0.00    +0.004 C 
ATOM     10  C   LIG    1       22.465 -19.513   5.340  0.00  0.00    -0.003 C 
ENDBRANCH   8  10
ENDBRANCH   7   8
ENDBRANCH   6   7
ENDBRANCH   5   6
ENDBRANCH   4   5
ENDBRANCH   3   4
ENDBRANCH   2   3
ENDBRANCH   1   2
BRANCH   1  11
ATOM     11  C   LIG    1       26.060 -22.311   8.293  0.00  0.00    +0.000 C 
BRANCH  11  12
ATOM     12  C   LIG    1       25.142 -22.768   7.147  0.00  0.00    +0.011 C 
BRANCH  12  13
ATOM     13  C   LIG    1       25.259 -24.243   6.758  0.00  0.00    +0.120 C 
BRANCH  13  14
ATOM     14  C   LIG    1       23.925 -24.850   6.388  0.00  0.00    +0.307 C 
ATOM     15  O   LIG    1       22.847 -24.441   6.777  0.00  0.00    -0.251 OA
BRANCH  14  16
ATOM     16  O   LIG    1       24.128 -25.921   5.569  0.00  0.00    -0.462 OA
BRANCH  16  17
ATOM     17  C   LIG    1       25.094 -26.885   6.023  0.00  0.00    +0.170 C 
ATOM     18  C   LIG    1       26.089 -27.075   4.884  0.00  0.00    +0.051 C 
ATOM     19  C   LIG    1       24.403 -28.198   6.368  0.00  0.00    +0.051 C 
ENDBRANCH  16  17
ENDBRANCH  14  16
ENDBRANCH  13  14
ENDBRANCH  12  13
ENDBRANCH  11  12
ENDBRANCH   1  11
TORSDOF 14
ENDMDL
MODEL 8
REMARK VINA RESULT:      -6.4      4.559      8.362
REMARK  Name = *****
REMARK                            x       y       z     vdW  Elec       q    Type
REMARK                         _______ _______ _______ _____ _____    ______ ____
ROOT
ATOM      1  C   LIG    1       23.483 -22.410   7.239  0.00  0.00    +0.000 C 
ENDROOT
BRANCH   1   2
ATOM      2  C   LIG    1       23.187 -20.932   6.946  0.00  0.00    -0.000 C 
BRANCH   2   3
ATOM      3  C   LIG    1       22.612 -20.748   5.529  0.00  0.00    -0.000 C 
BRANCH   3   4
ATOM      4  C   LIG    1       22.558 -19.275   5.098  0.00  0.00    -0.000 C 
BRANCH   4   5
ATOM      5  C   LIG    1       23.335 -19.008   3.795  0.00  0.00    -0.000 C 
BRANCH   5   6
ATOM      6  C   LIG    1       24.489 -20.013   3.608  0.00  0.00    -0.000 C 
BRANCH   6   7
ATOM      7  C   LIG    1       25.822 -19.482   4.160  0.00  0.00    -0.000 C 
BRANCH   7   8
ATOM      8  C   LIG    1       26.345 -20.192   5.424  0.00  0.00    -0.000 C 
BRANCH   8  10
ATOM      9  C   LIG    1       28.354 -20.822   6.874  0.00  0.00    +0.004 C 
ATOM     10  C   LIG    1       27.836 -19.977   5.710  0.00  0.00    -0.003 C 
ENDBRANCH   8  10
ENDBRANCH   7   8
ENDBRANCH   6   7
ENDBRANCH   5   6
ENDBRANCH   4   5
ENDBRANCH   3   4
ENDBRANCH   2   3
ENDBRANCH   1   2
BRANCH   1  11
ATOM     11  C   LIG    1       24.981 -22.734   7.296  0.00  0.00    +0.000 C 
BRANCH  11  12
ATOM     12  C   LIG    1       25.432 -23.689   6.177  0.00  0.00    +0.011 C 
BRANCH  12  13
ATOM     13  C   LIG    1       25.925 -25.061   6.641  0.00  0.00    +0.120 C 
BRANCH  13  14
ATOM     14  C   LIG    1       24.917 -26.155   6.379  0.00  0.00    +0.307 C 
ATOM     15  O   LIG    1       23.752 -25.968   6.082  0.00  0.00    -0.251 OA
BRANCH  14  16
ATOM     16  O   LIG    1       25.517 -27.369   6.538  0.00  0.00    -0.462 OA
BRANCH  16  17
ATOM     17  C   LIG    1       24.635 -28.483   6.754  0.00  0.00    +0.170 C 
ATOM     18  C   LIG    1       25.220 -29.286   7.911  0.00  0.00    +0.051 C 
ATOM     19  C   LIG    1       24.543 -29.333   5.494  0.00  0.00    +0.051 C 
ENDBRANCH  16  17
ENDBRANCH  14  16
ENDBRANCH  13  14
ENDBRANCH  12  13
ENDBRANCH  11  12
ENDBRANCH   1  11
TORSDOF 14
ENDMDL
MODEL 9
REMARK VINA RESULT:      -6.3      3.272      8.133
REMARK  Name = *****
REMARK                            x       y       z     vdW  Elec       q    Type
REMARK                         _______ _______ _______ _____ _____    ______ ____
ROOT
ATOM      1  C   LIG    1       24.598 -20.729   7.400  0.00  0.00    +0.000 C 
ENDROOT
BRANCH   1   2
ATOM      2  C   LIG    1       25.639 -20.899   8.516  0.00  0.00    -0.000 C 
BRANCH   2   3
ATOM      3  C   LIG    1       26.997 -20.299   8.108  0.00  0.00    -0.000 C 
BRANCH   3   4
ATOM      4  C   LIG    1       27.462 -20.773   6.723  0.00  0.00    -0.000 C 
BRANCH   4   5
ATOM      5  C   LIG    1       28.970 -20.552   6.496  0.00  0.00    -0.000 C 
BRANCH   5   6
ATOM      6  C   LIG    1       29.783 -20.830   7.776  0.00  0.00    -0.000 C 
BRANCH   6   7
ATOM      7  C   LIG    1       30.775 -19.700   8.094  0.00  0.00    -0.000 C 
BRANCH   7   8
ATOM      8  C   LIG    1       30.145 -18.314   8.337  0.00  0.00    -0.000 C 
BRANCH   8  10
ATOM      9  C   LIG    1       30.425 -17.306  10.669  0.00  0.00    +0.004 C 
ATOM     10  C   LIG    1       30.965 -17.386   9.241  0.00  0.00    -0.003 C 
ENDBRANCH   8  10
ENDBRANCH   7   8
ENDBRANCH   6   7
ENDBRANCH   5   6
ENDBRANCH   4   5
ENDBRANCH   3   4
ENDBRANCH   2   3
ENDBRANCH   1   2
BRANCH   1  11
ATOM     11  C   LIG    1       23.425 -21.712   7.504  0.00  0.00    +0.000 C 
BRANCH  11  12
ATOM     12  C   LIG    1       23.414 -22.755   6.374  0.00  0.00    +0.011 C 
BRANCH  12  13
ATOM     13  C   LIG    1       24.746 -22.956   5.650  0.00  0.00    +0.120 C 
BRANCH  13  14
ATOM     14  C   LIG    1       25.549 -24.100   6.224  0.00  0.00    +0.307 C 
ATOM     15  O   LIG    1       26.043 -24.109   7.336  0.00  0.00    -0.251 OA
BRANCH  14  16
ATOM     16  O   LIG    1       25.636 -25.099   5.300  0.00  0.00    -0.462 OA
BRANCH  16  17
ATOM     17  C   LIG    1       25.738 -26.433   5.825  0.00  0.00    +0.170 C 
ATOM     18  C   LIG    1       26.524 -27.246   4.803  0.00  0.00    +0.051 C 
ATOM     19  C   LIG    1       24.348 -27.022   6.036  0.00  0.00    +0.051 C 
ENDBRANCH  16  17
ENDBRANCH  14  16
ENDBRANCH  13  14
ENDBRANCH  12  13
ENDBRANCH  11  12
ENDBRANCH   1  11
TORSDOF 14
ENDMDL
