MODEL 1
REMARK VINA RESULT:       6.2      0.000      0.000
REMARK  Name = *****
REMARK                            x       y       z     vdW  Elec       q    Type
REMARK                         _______ _______ _______ _____ _____    ______ ____
ROOT
ATOM      1  C   LIG    1       24.769 -19.973   2.951  0.00  0.00    +0.049 C 
ATOM      2  C   LIG    1       25.029 -19.202   4.252  0.00  0.00    +0.084 C 
ATOM      3  N   LIG    1       24.955 -17.776   4.068  0.00  0.00    -0.268 N 
ATOM      4  C   LIG    1       23.694 -17.297   4.433  0.00  0.00    +0.239 C 
ATOM      5  O   LIG    1       23.288 -16.165   4.211  0.00  0.00    -0.273 OA
ATOM      6  CA  LIG    1       22.942 -18.429   5.120  0.00  0.00    +0.173 C 
ATOM      7  N   LIG    1       23.955 -19.506   5.214  0.00  0.00    -0.282 NA
ATOM      8  H   LIG    1       24.340 -19.464   6.155  0.00  0.00    +0.125 HD
ATOM      9  C   LIG    1       26.326 -19.677   4.910  0.00  0.00    +0.049 C 
ENDROOT
BRANCH   3  10
ATOM     10  CA  LIG    1       25.766 -16.976   3.093  0.00  0.00    +0.194 C 
ATOM     11  C   LIG    1       25.290 -15.512   2.836  0.00  0.00    +0.165 C 
ATOM     12  S   LIG    1       24.358 -14.684   4.171  0.00  0.00    -0.127 S 
ATOM     13  C   LIG    1       25.787 -13.729   4.838  0.00  0.00    +0.042 C 
ATOM     14  CA  LIG    1       26.926 -13.843   3.795  0.00  0.00    +0.201 C 
ATOM     15  C   LIG    1       26.235 -14.367   6.162  0.00  0.00    +0.025 C 
ATOM     16  C   LIG    1       25.242 -12.332   5.151  0.00  0.00    +0.025 C 
ATOM     17  N   LIG    1       26.689 -15.069   3.002  0.00  0.00    -0.271 N 
ATOM     18  C   LIG    1       27.092 -16.287   3.488  0.00  0.00    +0.240 C 
ATOM     19  O   LIG    1       28.128 -16.582   4.055  0.00  0.00    -0.273 OA
BRANCH  14  20
ATOM     20  C   LIG    1       27.107 -12.624   2.882  0.00  0.00    +0.327 C 
ATOM     21  O   LIG    1       26.243 -12.186   2.136  0.00  0.00    -0.249 OA
BRANCH  20  22
ATOM     22  OXT LIG    1       28.305 -12.006   3.022  0.00  0.00    -0.479 OA
ATOM     23  HXT LIG    1       29.014 -12.531   2.598  0.00  0.00    +0.295 HD
ENDBRANCH  20  22
ENDBRANCH  14  20
ENDBRANCH   3  10
BRANCH   6  24
ATOM     24  C   LIG    1       21.671 -18.900   4.429  0.00  0.00    -0.022 A 
ATOM     25  C   LIG    1       21.263 -20.243   4.455  0.00  0.00    +0.006 A 
ATOM     26  C   LIG    1       20.106 -20.655   3.786  0.00  0.00    +0.000 A 
ATOM     27  C   LIG    1       19.350 -19.740   3.059  0.00  0.00    +0.000 A 
ATOM     28  C   LIG    1       19.755 -18.411   2.990  0.00  0.00    +0.000 A 
ATOM     29  C   LIG    1       20.909 -18.000   3.659  0.00  0.00    +0.006 A 
ENDBRANCH   6  24
TORSDOF 4
ENDMDL
MODEL 2
REMARK VINA RESULT:       8.0      1.924      4.334
REMARK  Name = *****
REMARK                            x       y       z     vdW  Elec       q    Type
REMARK                         _______ _______ _______ _____ _____    ______ ____
ROOT
ATOM      1  C   LIG    1       22.527 -18.900   5.543  0.00  0.00    +0.049 C 
ATOM      2  C   LIG    1       22.735 -18.578   4.058  0.00  0.00    +0.084 C 
ATOM      3  N   LIG    1       23.443 -17.340   3.859  0.00  0.00    -0.268 N 
ATOM      4  C   LIG    1       24.804 -17.580   3.651  0.00  0.00    +0.239 C 
ATOM      5  O   LIG    1       25.669 -16.715   3.637  0.00  0.00    -0.273 OA
ATOM      6  CA  LIG    1       24.995 -19.079   3.469  0.00  0.00    +0.173 C 
ATOM      7  N   LIG    1       23.610 -19.603   3.461  0.00  0.00    -0.282 NA
ATOM      8  H   LIG    1       23.349 -19.725   2.485  0.00  0.00    +0.125 HD
ATOM      9  C   LIG    1       21.410 -18.665   3.297  0.00  0.00    +0.049 C 
ENDROOT
BRANCH   3  10
ATOM     10  CA  LIG    1       23.028 -16.000   4.388  0.00  0.00    +0.194 C 
ATOM     11  C   LIG    1       24.111 -15.207   5.186  0.00  0.00    +0.165 C 
ATOM     12  S   LIG    1       25.861 -15.553   4.797  0.00  0.00    -0.127 S 
ATOM     13  C   LIG    1       26.106 -14.093   3.698  0.00  0.00    +0.042 C 
ATOM     14  CA  LIG    1       24.877 -13.173   3.898  0.00  0.00    +0.201 C 
ATOM     15  C   LIG    1       26.157 -14.574   2.239  0.00  0.00    +0.025 C 
ATOM     16  C   LIG    1       27.486 -13.531   4.055  0.00  0.00    +0.025 C 
ATOM     17  N   LIG    1       23.763 -14.011   4.392  0.00  0.00    -0.271 N 
ATOM     18  C   LIG    1       23.004 -14.732   3.505  0.00  0.00    +0.240 C 
ATOM     19  O   LIG    1       22.570 -14.398   2.418  0.00  0.00    -0.273 OA
BRANCH  14  20
ATOM     20  C   LIG    1       25.103 -11.964   4.815  0.00  0.00    +0.327 C 
ATOM     21  O   LIG    1       26.191 -11.447   5.021  0.00  0.00    -0.249 OA
BRANCH  20  22
ATOM     22  OXT LIG    1       23.962 -11.449   5.335  0.00  0.00    -0.479 OA
ATOM     23  HXT LIG    1       23.567 -10.798   4.721  0.00  0.00    +0.295 HD
ENDBRANCH  20  22
ENDBRANCH  14  20
ENDBRANCH   3  10
BRANCH   6  24
ATOM     24  C   LIG    1       25.860 -19.770   4.512  0.00  0.00    -0.022 A 
ATOM     25  C   LIG    1       25.363 -20.795   5.333  0.00  0.00    +0.006 A 
ATOM     26  C   LIG    1       26.170 -21.393   6.305  0.00  0.00    +0.000 A 
ATOM     27  C   LIG    1       27.481 -20.964   6.492  0.00  0.00    +0.000 A 
ATOM     28  C   LIG    1       27.985 -19.926   5.716  0.00  0.00    +0.000 A 
ATOM     29  C   LIG    1       27.179 -19.330   4.744  0.00  0.00    +0.006 A 
ENDBRANCH   6  24
TORSDOF 4
ENDMDL
MODEL 3
REMARK VINA RESULT:       8.6      2.013      3.150
REMARK  Name = *****
REMARK                            x       y       z     vdW  Elec       q    Type
REMARK                         _______ _______ _______ _____ _____    ______ ____
ROOT
ATOM      1  C   LIG    1       23.276 -16.220   5.934  0.00  0.00    +0.049 C 
ATOM      2  C   LIG    1       23.507 -16.019   4.431  0.00  0.00    +0.084 C 
ATOM      3  N   LIG    1       24.834 -16.403   4.023  0.00  0.00    -0.268 N 
ATOM      4  C   LIG    1       24.833 -17.702   3.506  0.00  0.00    +0.239 C 
ATOM      5  O   LIG    1       25.838 -18.351   3.255  0.00  0.00    -0.273 OA
ATOM      6  CA  LIG    1       23.384 -18.141   3.340  0.00  0.00    +0.173 C 
ATOM      7  N   LIG    1       22.615 -16.922   3.682  0.00  0.00    -0.282 NA
ATOM      8  H   LIG    1       22.367 -16.476   2.801  0.00  0.00    +0.125 HD
ATOM      9  C   LIG    1       23.114 -14.601   4.011  0.00  0.00    +0.049 C 
ENDROOT
BRANCH   3  10
ATOM     10  CA  LIG    1       26.113 -15.860   4.586  0.00  0.00    +0.194 C 
ATOM     11  C   LIG    1       27.020 -15.064   3.596  0.00  0.00    +0.165 C 
ATOM     12  S   LIG    1       26.203 -14.245   2.182  0.00  0.00    -0.127 S 
ATOM     13  C   LIG    1       26.152 -12.563   2.938  0.00  0.00    +0.042 C 
ATOM     14  CA  LIG    1       27.067 -12.607   4.186  0.00  0.00    +0.201 C 
ATOM     15  C   LIG    1       24.709 -12.257   3.367  0.00  0.00    +0.025 C 
ATOM     16  C   LIG    1       26.524 -11.592   1.812  0.00  0.00    +0.025 C 
ATOM     17  N   LIG    1       27.158 -14.016   4.628  0.00  0.00    -0.271 N 
ATOM     18  C   LIG    1       26.166 -14.553   5.409  0.00  0.00    +0.240 C 
ATOM     19  O   LIG    1       25.581 -14.058   6.354  0.00  0.00    -0.273 OA
BRANCH  14  20
ATOM     20  C   LIG    1       28.463 -11.998   4.001  0.00  0.00    +0.327 C 
ATOM     21  O   LIG    1       29.012 -11.846   2.919  0.00  0.00    -0.249 OA
BRANCH  20  22
ATOM     22  OXT LIG    1       29.027 -11.559   5.153  0.00  0.00    -0.479 OA
ATOM     23  HXT LIG    1       29.781 -10.966   4.962  0.00  0.00    +0.295 HD
ENDBRANCH  20  22
ENDBRANCH  14  20
ENDBRANCH   3  10
BRANCH   6  24
ATOM     24  C   LIG    1       22.954 -19.339   4.172  0.00  0.00    -0.022 A 
ATOM     25  C   LIG    1       21.697 -19.944   4.013  0.00  0.00    +0.006 A 
ATOM     26  C   LIG    1       21.313 -21.026   4.811  0.00  0.00    +0.000 A 
ATOM     27  C   LIG    1       22.166 -21.508   5.800  0.00  0.00    +0.000 A 
ATOM     28  C   LIG    1       23.401 -20.902   6.001  0.00  0.00    +0.000 A 
ATOM     29  C   LIG    1       23.784 -19.823   5.203  0.00  0.00    +0.006 A 
ENDBRANCH   6  24
TORSDOF 4
ENDMDL
