MODEL 1
REMARK VINA RESULT:       3.0      0.000      0.000
REMARK  Name = *****
REMARK                            x       y       z     vdW  Elec       q    Type
REMARK                         _______ _______ _______ _____ _____    ______ ____
ROOT
ATOM      1  C   LIG    1       26.584 -20.177   5.388  0.00  0.00    +0.107 A 
ATOM      2  C   LIG    1       25.752 -19.230   4.771  0.00  0.00    +0.053 A 
ATOM      3  C   LIG    1       24.357 -19.414   4.630  0.00  0.00    +0.050 A 
ATOM      4  N   LIG    1       23.528 -18.440   3.997  0.00  0.00    -0.298 N 
ATOM      5  C   LIG    1       22.143 -18.602   3.698  0.00  0.00    +0.048 A 
ATOM      6  C   LIG    1       21.401 -19.698   4.182  0.00  0.00    +0.034 A 
ATOM      7  S   LIG    1       22.104 -21.021   5.140  0.00  0.00    -0.086 S 
ATOM      8  C   LIG    1       20.018 -19.807   3.925  0.00  0.00    +0.017 A 
ATOM      9  C   LIG    1       19.351 -18.855   3.161  0.00  0.00    +0.001 A 
ATOM     10  C   LIG    1       20.066 -17.795   2.633  0.00  0.00    +0.002 A 
ATOM     11  C   LIG    1       21.435 -17.679   2.894  0.00  0.00    +0.024 A 
ATOM     12  C   LIG    1       23.836 -20.617   5.148  0.00  0.00    +0.034 A 
ATOM     13  C   LIG    1       24.676 -21.569   5.767  0.00  0.00    +0.019 A 
ATOM     14  C   LIG    1       26.044 -21.348   5.901  0.00  0.00    +0.030 A 
ENDROOT
BRANCH   1  15
ATOM     15  S   LIG    1       28.304 -19.775   5.639  0.00  0.00    +0.060 S 
ATOM     16  O   LIG    1       28.495 -19.597   7.062  0.00  0.00    -0.153 OA
ATOM     17  O   LIG    1       29.064 -20.766   4.902  0.00  0.00    -0.153 OA
BRANCH  15  19
ATOM     18  C   LIG    1       27.565 -17.754   3.948  0.00  0.00    +0.131 C 
ATOM     19  N   LIG    1       28.541 -18.269   4.912  0.00  0.00    -0.183 NA
ATOM     20  C   LIG    1       29.250 -17.238   5.674  0.00  0.00    +0.131 C 
ENDBRANCH  15  19
ENDBRANCH   1  15
BRANCH   4  21
ATOM     21  C   LIG    1       24.141 -17.130   3.644  0.00  0.00    +0.112 C 
BRANCH  21  22
ATOM     22  C   LIG    1       23.599 -16.012   4.549  0.00  0.00    +0.035 C 
BRANCH  22  23
ATOM     23  C   LIG    1       23.155 -14.778   3.748  0.00  0.00    +0.086 C 
BRANCH  23  24
ATOM     24  N   LIG    1       23.866 -13.542   4.139  0.00  0.00    -0.302 NA
ATOM     25  C   LIG    1       25.128 -13.822   4.846  0.00  0.00    +0.085 C 
ATOM     26  C   LIG    1       26.181 -14.472   3.945  0.00  0.00    +0.019 C 
ATOM     27  C   LIG    1       26.528 -13.582   2.740  0.00  0.00    -0.007 C 
ATOM     28  C   LIG    1       25.228 -13.117   2.057  0.00  0.00    +0.019 C 
ATOM     29  C   LIG    1       24.143 -12.624   3.023  0.00  0.00    +0.085 C 
BRANCH  27  30
ATOM     30  C   LIG    1       27.445 -12.392   3.084  0.00  0.00    +0.031 C 
BRANCH  30  31
ATOM     31  C   LIG    1       28.737 -12.804   3.789  0.00  0.00    +0.156 C 
BRANCH  31  32
ATOM     32  O   LIG    1       28.502 -12.976   5.181  0.00  0.00    -0.395 OA
ATOM     33  H   LIG    1       28.741 -13.889   5.411  0.00  0.00    +0.209 HD
ENDBRANCH  31  32
ENDBRANCH  30  31
ENDBRANCH  27  30
ENDBRANCH  23  24
ENDBRANCH  22  23
ENDBRANCH  21  22
ENDBRANCH   4  21
TORSDOF 9
ENDMDL
MODEL 2
REMARK VINA RESULT:       3.2      3.047      5.788
REMARK  Name = *****
REMARK                            x       y       z     vdW  Elec       q    Type
REMARK                         _______ _______ _______ _____ _____    ______ ____
ROOT
ATOM      1  C   LIG    1       22.173 -19.714   4.362  0.00  0.00    +0.107 A 
ATOM      2  C   LIG    1       23.482 -19.269   4.118  0.00  0.00    +0.053 A 
ATOM      3  C   LIG    1       24.598 -19.743   4.845  0.00  0.00    +0.050 A 
ATOM      4  N   LIG    1       25.921 -19.277   4.584  0.00  0.00    -0.298 N 
ATOM      5  C   LIG    1       27.078 -19.603   5.351  0.00  0.00    +0.048 A 
ATOM      6  C   LIG    1       27.051 -20.591   6.356  0.00  0.00    +0.034 A 
ATOM      7  S   LIG    1       25.585 -21.479   6.828  0.00  0.00    -0.086 S 
ATOM      8  C   LIG    1       28.223 -20.940   7.061  0.00  0.00    +0.017 A 
ATOM      9  C   LIG    1       29.432 -20.299   6.810  0.00  0.00    +0.001 A 
ATOM     10  C   LIG    1       29.475 -19.291   5.863  0.00  0.00    +0.002 A 
ATOM     11  C   LIG    1       28.318 -18.949   5.156  0.00  0.00    +0.024 A 
ATOM     12  C   LIG    1       24.326 -20.700   5.844  0.00  0.00    +0.034 A 
ATOM     13  C   LIG    1       23.007 -21.144   6.088  0.00  0.00    +0.019 A 
ATOM     14  C   LIG    1       21.933 -20.665   5.342  0.00  0.00    +0.030 A 
ENDROOT
BRANCH   1  15
ATOM     15  S   LIG    1       20.863 -19.154   3.288  0.00  0.00    +0.060 S 
ATOM     16  O   LIG    1       21.418 -19.059   1.955  0.00  0.00    -0.153 OA
ATOM     17  O   LIG    1       19.721 -20.005   3.563  0.00  0.00    -0.153 OA
BRANCH  15  19
ATOM     18  C   LIG    1       21.469 -16.801   4.547  0.00  0.00    +0.131 C 
ATOM     19  N   LIG    1       20.492 -17.583   3.785  0.00  0.00    -0.183 NA
ATOM     20  C   LIG    1       19.593 -16.787   2.945  0.00  0.00    +0.131 C 
ENDBRANCH  15  19
ENDBRANCH   1  15
BRANCH   4  21
ATOM     21  C   LIG    1       26.129 -18.404   3.396  0.00  0.00    +0.112 C 
BRANCH  21  22
ATOM     22  C   LIG    1       26.763 -17.065   3.806  0.00  0.00    +0.035 C 
BRANCH  22  23
ATOM     23  C   LIG    1       26.317 -15.907   2.901  0.00  0.00    +0.086 C 
BRANCH  23  24
ATOM     24  N   LIG    1       26.475 -14.579   3.532  0.00  0.00    -0.302 NA
ATOM     25  C   LIG    1       26.229 -13.477   2.585  0.00  0.00    +0.085 C 
ATOM     26  C   LIG    1       24.767 -13.397   2.137  0.00  0.00    +0.019 C 
ATOM     27  C   LIG    1       23.817 -13.189   3.327  0.00  0.00    -0.007 C 
ATOM     28  C   LIG    1       24.145 -14.216   4.429  0.00  0.00    +0.019 C 
ATOM     29  C   LIG    1       25.642 -14.373   4.725  0.00  0.00    +0.085 C 
BRANCH  27  30
ATOM     30  C   LIG    1       23.808 -11.750   3.878  0.00  0.00    +0.031 C 
BRANCH  30  31
ATOM     31  C   LIG    1       23.948 -11.680   5.398  0.00  0.00    +0.156 C 
BRANCH  31  32
ATOM     32  O   LIG    1       22.679 -11.448   5.997  0.00  0.00    -0.395 OA
ATOM     33  H   LIG    1       22.094 -11.078   5.315  0.00  0.00    +0.209 HD
ENDBRANCH  31  32
ENDBRANCH  30  31
ENDBRANCH  27  30
ENDBRANCH  23  24
ENDBRANCH  22  23
ENDBRANCH  21  22
ENDBRANCH   4  21
TORSDOF 9
ENDMDL
MODEL 3
REMARK VINA RESULT:       5.8      2.961      5.573
REMARK  Name = *****
REMARK                            x       y       z     vdW  Elec       q    Type
REMARK                         _______ _______ _______ _____ _____    ______ ____
ROOT
ATOM      1  C   LIG    1       22.169 -19.411   4.291  0.00  0.00    +0.107 A 
ATOM      2  C   LIG    1       23.524 -19.120   4.068  0.00  0.00    +0.053 A 
ATOM      3  C   LIG    1       24.568 -19.722   4.806  0.00  0.00    +0.050 A 
ATOM      4  N   LIG    1       25.939 -19.411   4.566  0.00  0.00    -0.298 N 
ATOM      5  C   LIG    1       27.041 -19.872   5.346  0.00  0.00    +0.048 A 
ATOM      6  C   LIG    1       26.886 -20.856   6.343  0.00  0.00    +0.034 A 
ATOM      7  S   LIG    1       25.321 -21.571   6.790  0.00  0.00    -0.086 S 
ATOM      8  C   LIG    1       27.999 -21.341   7.062  0.00  0.00    +0.017 A 
ATOM      9  C   LIG    1       29.277 -20.842   6.831  0.00  0.00    +0.001 A 
ATOM     10  C   LIG    1       29.450 -19.841   5.892  0.00  0.00    +0.002 A 
ATOM     11  C   LIG    1       28.350 -19.365   5.171  0.00  0.00    +0.024 A 
ATOM     12  C   LIG    1       24.173 -20.647   5.795  0.00  0.00    +0.034 A 
ATOM     13  C   LIG    1       22.809 -20.937   6.018  0.00  0.00    +0.019 A 
ATOM     14  C   LIG    1       21.807 -20.333   5.262  0.00  0.00    +0.030 A 
ENDROOT
BRANCH   1  15
ATOM     15  S   LIG    1       20.948 -18.699   3.204  0.00  0.00    +0.060 S 
ATOM     16  O   LIG    1       21.446 -18.842   1.853  0.00  0.00    -0.153 OA
ATOM     17  O   LIG    1       19.674 -19.271   3.594  0.00  0.00    -0.153 OA
BRANCH  15  19
ATOM     18  C   LIG    1       21.599 -16.533   4.745  0.00  0.00    +0.131 C 
ATOM     19  N   LIG    1       20.921 -17.046   3.552  0.00  0.00    -0.183 NA
ATOM     20  C   LIG    1       20.861 -16.105   2.430  0.00  0.00    +0.131 C 
ENDBRANCH  15  19
ENDBRANCH   1  15
BRANCH   4  21
ATOM     21  C   LIG    1       26.263 -18.562   3.387  0.00  0.00    +0.112 C 
BRANCH  21  22
ATOM     22  C   LIG    1       26.639 -17.137   3.826  0.00  0.00    +0.035 C 
BRANCH  22  23
ATOM     23  C   LIG    1       25.754 -16.071   3.164  0.00  0.00    +0.086 C 
BRANCH  23  24
ATOM     24  N   LIG    1       26.480 -14.820   2.855  0.00  0.00    -0.302 NA
ATOM     25  C   LIG    1       25.730 -13.620   3.270  0.00  0.00    +0.085 C 
ATOM     26  C   LIG    1       25.604 -13.497   4.791  0.00  0.00    +0.019 C 
ATOM     27  C   LIG    1       26.979 -13.426   5.473  0.00  0.00    -0.007 C 
ATOM     28  C   LIG    1       27.871 -14.567   4.946  0.00  0.00    +0.019 C 
ATOM     29  C   LIG    1       27.835 -14.750   3.423  0.00  0.00    +0.085 C 
BRANCH  27  30
ATOM     30  C   LIG    1       27.674 -12.057   5.342  0.00  0.00    +0.031 C 
BRANCH  30  31
ATOM     31  C   LIG    1       29.021 -12.125   4.622  0.00  0.00    +0.156 C 
BRANCH  31  32
ATOM     32  O   LIG    1       28.822 -12.343   3.231  0.00  0.00    -0.395 OA
ATOM     33  H   LIG    1       28.743 -13.301   3.091  0.00  0.00    +0.209 HD
ENDBRANCH  31  32
ENDBRANCH  30  31
ENDBRANCH  27  30
ENDBRANCH  23  24
ENDBRANCH  22  23
ENDBRANCH  21  22
ENDBRANCH   4  21
TORSDOF 9
ENDMDL
