MODEL 1
REMARK VINA RESULT:      -9.7      0.000      0.000
REMARK  Name = *****
REMARK                            x       y       z     vdW  Elec       q    Type
REMARK                         _______ _______ _______ _____ _____    ______ ____
ROOT
ATOM      1  N   LIG    1       24.521 -25.434   6.527  0.00  0.00    -0.302 NA
ATOM      2  C   LIG    1       23.674 -24.439   5.856  0.00  0.00    +0.085 C 
ATOM      3  C   LIG    1       23.410 -23.233   6.754  0.00  0.00    +0.022 C 
ATOM      4  C   LIG    1       24.680 -22.438   7.121  0.00  0.00    +0.032 C 
ATOM      5  C   LIG    1       25.671 -23.468   7.728  0.00  0.00    +0.022 C 
ATOM      6  C   LIG    1       25.770 -24.845   7.037  0.00  0.00    +0.085 C 
ENDROOT
BRANCH   1   7
ATOM      7  C   LIG    1       24.794 -26.553   5.596  0.00  0.00    +0.084 C 
BRANCH   7   8
ATOM      8  C   LIG    1       24.142 -27.883   6.006  0.00  0.00    +0.018 C 
BRANCH   8   9
ATOM      9  C   LIG    1       25.158 -29.026   5.940  0.00  0.00    +0.037 C 
BRANCH   9  10
ATOM     10  C   LIG    1       24.985 -30.063   7.061  0.00  0.00    +0.144 C 
BRANCH  10  14
ATOM     11  C   LIG    1       25.953 -28.801  11.129  0.00  0.00    -0.031 A 
ATOM     12  C   LIG    1       26.642 -28.251  10.030  0.00  0.00    +0.005 A 
ATOM     13  C   LIG    1       26.313 -28.615   8.721  0.00  0.00    +0.006 A 
ATOM     14  C   LIG    1       25.292 -29.537   8.455  0.00  0.00    -0.019 A 
ATOM     15  C   LIG    1       24.570 -30.040   9.543  0.00  0.00    +0.006 A 
ATOM     16  C   LIG    1       24.897 -29.677  10.855  0.00  0.00    +0.005 A 
BRANCH  11  18
ATOM     17  C   LIG    1       25.122 -28.584  13.499  0.00  0.00    +0.027 C 
ATOM     18  C   LIG    1       26.349 -28.395  12.566  0.00  0.00    +0.087 C 
ATOM     19  C   LIG    1       26.776 -26.930  12.683  0.00  0.00    +0.027 C 
BRANCH  18  20
ATOM     20  C   LIG    1       27.502 -29.239  13.107  0.00  0.00    +0.315 C 
ATOM     21  O   LIG    1       27.434 -30.495  13.244  0.00  0.00    -0.250 OA
BRANCH  20  22
ATOM     22  O   LIG    1       28.608 -28.569  13.509  0.00  0.00    -0.480 OA
ATOM     23  H   LIG    1       29.424 -29.078  13.433  0.00  0.00    +0.295 HD
ENDBRANCH  20  22
ENDBRANCH  18  20
ENDBRANCH  11  18
ENDBRANCH  10  14
BRANCH  10  24
ATOM     24  O   LIG    1       23.661 -30.593   7.024  0.00  0.00    -0.387 OA
ATOM     25  H   LIG    1       23.064 -29.934   7.413  0.00  0.00    +0.210 HD
ENDBRANCH  10  24
ENDBRANCH   9  10
ENDBRANCH   8   9
ENDBRANCH   7   8
ENDBRANCH   1   7
BRANCH   4  26
ATOM     26  C   LIG    1       25.292 -21.538   5.958  0.00  0.00    +0.119 C 
BRANCH  26  27
ATOM     27  C   LIG    1       26.568 -20.782   6.445  0.00  0.00    -0.011 A 
ATOM     28  C   LIG    1       26.816 -20.577   7.818  0.00  0.00    +0.007 A 
ATOM     29  C   LIG    1       27.973 -19.931   8.275  0.00  0.00    +0.000 A 
ATOM     30  C   LIG    1       28.926 -19.484   7.369  0.00  0.00    +0.000 A 
ATOM     31  C   LIG    1       28.701 -19.641   6.007  0.00  0.00    +0.000 A 
ATOM     32  C   LIG    1       27.528 -20.263   5.552  0.00  0.00    +0.007 A 
ENDBRANCH  26  27
BRANCH  26  33
ATOM     33  C   LIG    1       24.248 -20.532   5.335  0.00  0.00    -0.011 A 
ATOM     34  C   LIG    1       23.045 -20.160   5.979  0.00  0.00    +0.007 A 
ATOM     35  C   LIG    1       22.184 -19.177   5.459  0.00  0.00    +0.000 A 
ATOM     36  C   LIG    1       22.482 -18.537   4.267  0.00  0.00    +0.000 A 
ATOM     37  C   LIG    1       23.618 -18.922   3.566  0.00  0.00    +0.000 A 
ATOM     38  C   LIG    1       24.480 -19.908   4.086  0.00  0.00    +0.007 A 
ENDBRANCH  26  33
BRANCH  26  39
ATOM     39  O   LIG    1       25.750 -22.503   4.993  0.00  0.00    -0.379 OA
ATOM     40  H   LIG    1       25.972 -23.326   5.440  0.00  0.00    +0.211 HD
ENDBRANCH  26  39
ENDBRANCH   4  26
TORSDOF 13
ENDMDL
MODEL 2
REMARK VINA RESULT:      -9.5      2.487      9.446
REMARK  Name = *****
REMARK                            x       y       z     vdW  Elec       q    Type
REMARK                         _______ _______ _______ _____ _____    ______ ____
ROOT
ATOM      1  N   LIG    1       24.466 -31.060   9.000  0.00  0.00    -0.302 NA
ATOM      2  C   LIG    1       23.546 -30.062   9.561  0.00  0.00    +0.085 C 
ATOM      3  C   LIG    1       22.646 -30.671  10.634  0.00  0.00    +0.022 C 
ATOM      4  C   LIG    1       23.410 -31.193  11.868  0.00  0.00    +0.032 C 
ATOM      5  C   LIG    1       24.488 -32.170  11.323  0.00  0.00    +0.022 C 
ATOM      6  C   LIG    1       25.242 -31.748  10.045  0.00  0.00    +0.085 C 
ENDROOT
BRANCH   1   7
ATOM      7  C   LIG    1       25.353 -30.408   8.010  0.00  0.00    +0.084 C 
BRANCH   7   8
ATOM      8  C   LIG    1       24.620 -29.484   7.024  0.00  0.00    +0.018 C 
BRANCH   8   9
ATOM      9  C   LIG    1       25.175 -28.060   7.105  0.00  0.00    +0.037 C 
BRANCH   9  10
ATOM     10  C   LIG    1       24.558 -27.104   6.070  0.00  0.00    +0.144 C 
BRANCH  10  14
ATOM     11  C   LIG    1       24.981 -22.836   6.894  0.00  0.00    -0.031 A 
ATOM     12  C   LIG    1       23.705 -23.403   6.711  0.00  0.00    +0.005 A 
ATOM     13  C   LIG    1       23.552 -24.774   6.488  0.00  0.00    +0.006 A 
ATOM     14  C   LIG    1       24.659 -25.632   6.439  0.00  0.00    -0.019 A 
ATOM     15  C   LIG    1       25.923 -25.078   6.677  0.00  0.00    +0.006 A 
ATOM     16  C   LIG    1       26.077 -23.705   6.901  0.00  0.00    +0.005 A 
BRANCH  11  18
ATOM     17  C   LIG    1       23.707 -20.695   7.276  0.00  0.00    +0.027 C 
ATOM     18  C   LIG    1       25.122 -21.314   7.121  0.00  0.00    +0.087 C 
ATOM     19  C   LIG    1       25.798 -20.590   5.953  0.00  0.00    +0.027 C 
BRANCH  18  20
ATOM     20  C   LIG    1       25.932 -20.990   8.374  0.00  0.00    +0.315 C 
ATOM     21  O   LIG    1       27.009 -20.324   8.348  0.00  0.00    -0.250 OA
BRANCH  20  22
ATOM     22  O   LIG    1       25.481 -21.510   9.541  0.00  0.00    -0.480 OA
ATOM     23  H   LIG    1       25.642 -22.456   9.636  0.00  0.00    +0.295 HD
ENDBRANCH  20  22
ENDBRANCH  18  20
ENDBRANCH  11  18
ENDBRANCH  10  14
BRANCH  10  24
ATOM     24  O   LIG    1       25.157 -27.327   4.796  0.00  0.00    -0.387 OA
ATOM     25  H   LIG    1       25.943 -26.760   4.731  0.00  0.00    +0.210 HD
ENDBRANCH  10  24
ENDBRANCH   9  10
ENDBRANCH   8   9
ENDBRANCH   7   8
ENDBRANCH   1   7
BRANCH   4  26
ATOM     26  C   LIG    1       23.968 -30.078  12.858  0.00  0.00    +0.119 C 
BRANCH  26  27
ATOM     27  C   LIG    1       22.993 -28.862  12.943  0.00  0.00    -0.011 A 
ATOM     28  C   LIG    1       21.598 -29.035  12.823  0.00  0.00    +0.007 A 
ATOM     29  C   LIG    1       20.705 -27.961  12.930  0.00  0.00    +0.000 A 
ATOM     30  C   LIG    1       21.181 -26.679  13.176  0.00  0.00    +0.000 A 
ATOM     31  C   LIG    1       22.551 -26.466  13.269  0.00  0.00    +0.000 A 
ATOM     32  C   LIG    1       23.445 -27.540  13.133  0.00  0.00    +0.007 A 
ENDBRANCH  26  27
BRANCH  26  33
ATOM     33  C   LIG    1       25.429 -29.601  12.500  0.00  0.00    -0.011 A 
ATOM     34  C   LIG    1       26.584 -30.047  13.184  0.00  0.00    +0.007 A 
ATOM     35  C   LIG    1       27.884 -29.700  12.776  0.00  0.00    +0.000 A 
ATOM     36  C   LIG    1       28.083 -28.879  11.679  0.00  0.00    +0.000 A 
ATOM     37  C   LIG    1       26.975 -28.361  11.020  0.00  0.00    +0.000 A 
ATOM     38  C   LIG    1       25.672 -28.709  11.429  0.00  0.00    +0.007 A 
ENDBRANCH  26  33
BRANCH  26  39
ATOM     39  O   LIG    1       23.913 -30.716  14.147  0.00  0.00    -0.379 OA
ATOM     40  H   LIG    1       23.233 -30.299  14.686  0.00  0.00    +0.211 HD
ENDBRANCH  26  39
ENDBRANCH   4  26
TORSDOF 13
ENDMDL
MODEL 3
REMARK VINA RESULT:      -9.4      1.177      1.575
REMARK  Name = *****
REMARK                            x       y       z     vdW  Elec       q    Type
REMARK                         _______ _______ _______ _____ _____    ______ ____
ROOT
ATOM      1  N   LIG    1       24.184 -25.182   6.729  0.00  0.00    -0.302 NA
ATOM      2  C   LIG    1       23.387 -24.126   6.092  0.00  0.00    +0.085 C 
ATOM      3  C   LIG    1       23.318 -22.875   6.963  0.00  0.00    +0.022 C 
ATOM      4  C   LIG    1       24.686 -22.202   7.201  0.00  0.00    +0.032 C 
ATOM      5  C   LIG    1       25.616 -23.311   7.765  0.00  0.00    +0.022 C 
ATOM      6  C   LIG    1       25.522 -24.708   7.118  0.00  0.00    +0.085 C 
ENDROOT
BRANCH   1   7
ATOM      7  C   LIG    1       24.269 -26.349   5.820  0.00  0.00    +0.084 C 
BRANCH   7   8
ATOM      8  C   LIG    1       25.442 -27.295   6.121  0.00  0.00    +0.018 C 
BRANCH   8   9
ATOM      9  C   LIG    1       25.309 -28.593   5.321  0.00  0.00    +0.037 C 
BRANCH   9  10
ATOM     10  C   LIG    1       24.614 -29.721   6.100  0.00  0.00    +0.144 C 
BRANCH  10  14
ATOM     11  C   LIG    1       24.953 -29.644  10.455  0.00  0.00    -0.031 A 
ATOM     12  C   LIG    1       25.957 -29.068   9.652  0.00  0.00    +0.005 A 
ATOM     13  C   LIG    1       25.841 -29.049   8.259  0.00  0.00    +0.006 A 
ATOM     14  C   LIG    1       24.727 -29.600   7.612  0.00  0.00    -0.019 A 
ATOM     15  C   LIG    1       23.703 -30.121   8.412  0.00  0.00    +0.006 A 
ATOM     16  C   LIG    1       23.817 -30.141   9.807  0.00  0.00    +0.005 A 
BRANCH  11  18
ATOM     17  C   LIG    1       26.538 -30.183  12.339  0.00  0.00    +0.027 C 
ATOM     18  C   LIG    1       25.115 -29.668  11.991  0.00  0.00    +0.087 C 
ATOM     19  C   LIG    1       24.122 -30.602  12.688  0.00  0.00    +0.027 C 
BRANCH  18  20
ATOM     20  C   LIG    1       24.936 -28.284  12.611  0.00  0.00    +0.315 C 
ATOM     21  O   LIG    1       25.907 -27.531  12.914  0.00  0.00    -0.250 OA
BRANCH  20  22
ATOM     22  O   LIG    1       23.667 -27.907  12.897  0.00  0.00    -0.480 OA
ATOM     23  H   LIG    1       23.027 -28.628  12.868  0.00  0.00    +0.295 HD
ENDBRANCH  20  22
ENDBRANCH  18  20
ENDBRANCH  11  18
ENDBRANCH  10  14
BRANCH  10  24
ATOM     24  O   LIG    1       23.242 -29.793   5.720  0.00  0.00    -0.387 OA
ATOM     25  H   LIG    1       22.897 -30.655   6.003  0.00  0.00    +0.210 HD
ENDBRANCH  10  24
ENDBRANCH   9  10
ENDBRANCH   8   9
ENDBRANCH   7   8
ENDBRANCH   1   7
BRANCH   4  26
ATOM     26  C   LIG    1       25.287 -21.401   5.963  0.00  0.00    +0.119 C 
BRANCH  26  27
ATOM     27  C   LIG    1       26.598 -20.653   6.360  0.00  0.00    -0.011 A 
ATOM     28  C   LIG    1       26.975 -20.508   7.711  0.00  0.00    +0.007 A 
ATOM     29  C   LIG    1       28.165 -19.870   8.085  0.00  0.00    +0.000 A 
ATOM     30  C   LIG    1       29.024 -19.370   7.114  0.00  0.00    +0.000 A 
ATOM     31  C   LIG    1       28.670 -19.468   5.774  0.00  0.00    +0.000 A 
ATOM     32  C   LIG    1       27.464 -20.082   5.404  0.00  0.00    +0.007 A 
ENDBRANCH  26  27
BRANCH  26  33
ATOM     33  C   LIG    1       24.253 -20.409   5.302  0.00  0.00    -0.011 A 
ATOM     34  C   LIG    1       23.028 -20.043   5.909  0.00  0.00    +0.007 A 
ATOM     35  C   LIG    1       22.175 -19.071   5.358  0.00  0.00    +0.000 A 
ATOM     36  C   LIG    1       22.501 -18.437   4.170  0.00  0.00    +0.000 A 
ATOM     37  C   LIG    1       23.660 -18.817   3.505  0.00  0.00    +0.000 A 
ATOM     38  C   LIG    1       24.515 -19.791   4.056  0.00  0.00    +0.007 A 
ENDBRANCH  26  33
BRANCH  26  39
ATOM     39  O   LIG    1       25.688 -22.443   5.053  0.00  0.00    -0.379 OA
ATOM     40  H   LIG    1       25.247 -22.319   4.206  0.00  0.00    +0.211 HD
ENDBRANCH  26  39
ENDBRANCH   4  26
TORSDOF 13
ENDMDL
MODEL 4
REMARK VINA RESULT:      -9.3      2.444      9.173
REMARK  Name = *****
REMARK                            x       y       z     vdW  Elec       q    Type
REMARK                         _______ _______ _______ _____ _____    ______ ____
ROOT
ATOM      1  N   LIG    1       24.544 -31.084   8.515  0.00  0.00    -0.302 NA
ATOM      2  C   LIG    1       23.645 -30.162   9.221  0.00  0.00    +0.085 C 
ATOM      3  C   LIG    1       23.302 -30.675  10.618  0.00  0.00    +0.022 C 
ATOM      4  C   LIG    1       24.519 -30.786  11.559  0.00  0.00    +0.032 C 
ATOM      5  C   LIG    1       25.563 -31.657  10.808  0.00  0.00    +0.022 C 
ATOM      6  C   LIG    1       25.750 -31.392   9.299  0.00  0.00    +0.085 C 
ENDROOT
BRANCH   1   7
ATOM      7  C   LIG    1       24.892 -30.514   7.193  0.00  0.00    +0.084 C 
BRANCH   7   8
ATOM      8  C   LIG    1       24.138 -29.218   6.851  0.00  0.00    +0.018 C 
BRANCH   8   9
ATOM      9  C   LIG    1       25.097 -28.025   6.831  0.00  0.00    +0.037 C 
BRANCH   9  10
ATOM     10  C   LIG    1       24.769 -26.996   5.737  0.00  0.00    +0.144 C 
BRANCH  10  14
ATOM     11  C   LIG    1       24.978 -22.782   6.869  0.00  0.00    -0.031 A 
ATOM     12  C   LIG    1       23.736 -23.383   6.585  0.00  0.00    +0.005 A 
ATOM     13  C   LIG    1       23.650 -24.740   6.262  0.00  0.00    +0.006 A 
ATOM     14  C   LIG    1       24.792 -25.550   6.209  0.00  0.00    -0.019 A 
ATOM     15  C   LIG    1       26.019 -24.968   6.546  0.00  0.00    +0.006 A 
ATOM     16  C   LIG    1       26.107 -23.609   6.871  0.00  0.00    +0.005 A 
BRANCH  11  18
ATOM     17  C   LIG    1       23.610 -20.757   7.485  0.00  0.00    +0.027 C 
ATOM     18  C   LIG    1       25.046 -21.276   7.205  0.00  0.00    +0.087 C 
ATOM     19  C   LIG    1       25.611 -20.428   6.062  0.00  0.00    +0.027 C 
BRANCH  18  20
ATOM     20  C   LIG    1       25.909 -20.997   8.434  0.00  0.00    +0.315 C 
ATOM     21  O   LIG    1       26.994 -20.347   8.384  0.00  0.00    -0.250 OA
BRANCH  20  22
ATOM     22  O   LIG    1       25.496 -21.543   9.603  0.00  0.00    -0.480 OA
ATOM     23  H   LIG    1       26.013 -21.266  10.368  0.00  0.00    +0.295 HD
ENDBRANCH  20  22
ENDBRANCH  18  20
ENDBRANCH  11  18
ENDBRANCH  10  14
BRANCH  10  24
ATOM     24  O   LIG    1       25.663 -27.162   4.639  0.00  0.00    -0.387 OA
ATOM     25  H   LIG    1       26.111 -28.017   4.744  0.00  0.00    +0.210 HD
ENDBRANCH  10  24
ENDBRANCH   9  10
ENDBRANCH   8   9
ENDBRANCH   7   8
ENDBRANCH   1   7
BRANCH   4  26
ATOM     26  C   LIG    1       25.087 -29.409  12.120  0.00  0.00    +0.119 C 
BRANCH  26  27
ATOM     27  C   LIG    1       26.172 -29.652  13.216  0.00  0.00    -0.011 A 
ATOM     28  C   LIG    1       25.851 -30.293  14.431  0.00  0.00    +0.007 A 
ATOM     29  C   LIG    1       26.818 -30.551  15.412  0.00  0.00    +0.000 A 
ATOM     30  C   LIG    1       28.142 -30.188  15.199  0.00  0.00    +0.000 A 
ATOM     31  C   LIG    1       28.488 -29.527  14.027  0.00  0.00    +0.000 A 
ATOM     32  C   LIG    1       27.513 -29.245  13.058  0.00  0.00    +0.007 A 
ENDBRANCH  26  27
BRANCH  26  33
ATOM     33  C   LIG    1       23.960 -28.441  12.651  0.00  0.00    -0.011 A 
ATOM     34  C   LIG    1       24.225 -27.166  13.203  0.00  0.00    +0.007 A 
ATOM     35  C   LIG    1       23.202 -26.273  13.565  0.00  0.00    +0.000 A 
ATOM     36  C   LIG    1       21.871 -26.623  13.407  0.00  0.00    +0.000 A 
ATOM     37  C   LIG    1       21.565 -27.893  12.935  0.00  0.00    +0.000 A 
ATOM     38  C   LIG    1       22.591 -28.788  12.572  0.00  0.00    +0.007 A 
ENDBRANCH  26  33
BRANCH  26  39
ATOM     39  O   LIG    1       25.786 -28.851  10.992  0.00  0.00    -0.379 OA
ATOM     40  H   LIG    1       26.141 -27.987  11.227  0.00  0.00    +0.211 HD
ENDBRANCH  26  39
ENDBRANCH   4  26
TORSDOF 13
ENDMDL
MODEL 5
REMARK VINA RESULT:      -9.1      2.779      9.711
REMARK  Name = *****
REMARK                            x       y       z     vdW  Elec       q    Type
REMARK                         _______ _______ _______ _____ _____    ______ ____
ROOT
ATOM      1  N   LIG    1       24.902 -25.943   5.955  0.00  0.00    -0.302 NA
ATOM      2  C   LIG    1       24.354 -26.949   5.037  0.00  0.00    +0.085 C 
ATOM      3  C   LIG    1       25.376 -28.040   4.728  0.00  0.00    +0.022 C 
ATOM      4  C   LIG    1       25.800 -28.867   5.959  0.00  0.00    +0.032 C 
ATOM      5  C   LIG    1       26.280 -27.839   7.021  0.00  0.00    +0.022 C 
ATOM      6  C   LIG    1       25.448 -26.549   7.181  0.00  0.00    +0.085 C 
ENDROOT
BRANCH   1   7
ATOM      7  C   LIG    1       23.856 -24.943   6.268  0.00  0.00    +0.084 C 
BRANCH   7   8
ATOM      8  C   LIG    1       24.399 -23.630   6.855  0.00  0.00    +0.018 C 
BRANCH   8   9
ATOM      9  C   LIG    1       24.633 -22.599   5.747  0.00  0.00    +0.037 C 
BRANCH   9  10
ATOM     10  C   LIG    1       24.639 -21.148   6.254  0.00  0.00    +0.144 C 
BRANCH  10  14
ATOM     11  C   LIG    1       28.643 -19.893   7.467  0.00  0.00    -0.031 A 
ATOM     12  C   LIG    1       28.291 -19.931   6.103  0.00  0.00    +0.005 A 
ATOM     13  C   LIG    1       27.001 -20.291   5.703  0.00  0.00    +0.006 A 
ATOM     14  C   LIG    1       26.014 -20.625   6.640  0.00  0.00    -0.019 A 
ATOM     15  C   LIG    1       26.347 -20.534   7.997  0.00  0.00    +0.006 A 
ATOM     16  C   LIG    1       27.639 -20.173   8.399  0.00  0.00    +0.005 A 
BRANCH  11  18
ATOM     17  C   LIG    1       30.029 -18.239   8.770  0.00  0.00    +0.027 C 
ATOM     18  C   LIG    1       30.082 -19.510   7.880  0.00  0.00    +0.087 C 
ATOM     19  C   LIG    1       30.984 -19.181   6.688  0.00  0.00    +0.027 C 
BRANCH  18  20
ATOM     20  C   LIG    1       30.772 -20.623   8.666  0.00  0.00    +0.315 C 
ATOM     21  O   LIG    1       30.249 -21.760   8.860  0.00  0.00    -0.250 OA
BRANCH  20  22
ATOM     22  O   LIG    1       31.969 -20.321   9.223  0.00  0.00    -0.480 OA
ATOM     23  H   LIG    1       32.067 -19.392   9.462  0.00  0.00    +0.295 HD
ENDBRANCH  20  22
ENDBRANCH  18  20
ENDBRANCH  11  18
ENDBRANCH  10  14
BRANCH  10  24
ATOM     24  O   LIG    1       24.054 -20.295   5.272  0.00  0.00    -0.387 OA
ATOM     25  H   LIG    1       24.479 -19.425   5.341  0.00  0.00    +0.210 HD
ENDBRANCH  10  24
ENDBRANCH   9  10
ENDBRANCH   8   9
ENDBRANCH   7   8
ENDBRANCH   1   7
BRANCH   4  26
ATOM     26  C   LIG    1       24.726 -29.915   6.491  0.00  0.00    +0.119 C 
BRANCH  26  27
ATOM     27  C   LIG    1       24.915 -30.189   8.016  0.00  0.00    -0.011 A 
ATOM     28  C   LIG    1       23.943 -29.784   8.956  0.00  0.00    +0.007 A 
ATOM     29  C   LIG    1       24.079 -30.051  10.325  0.00  0.00    +0.000 A 
ATOM     30  C   LIG    1       25.186 -30.746  10.794  0.00  0.00    +0.000 A 
ATOM     31  C   LIG    1       26.178 -31.132   9.901  0.00  0.00    +0.000 A 
ATOM     32  C   LIG    1       26.053 -30.839   8.535  0.00  0.00    +0.007 A 
ENDBRANCH  26  27
BRANCH  26  33
ATOM     33  C   LIG    1       24.718 -31.266   5.676  0.00  0.00    -0.011 A 
ATOM     34  C   LIG    1       23.699 -32.240   5.793  0.00  0.00    +0.007 A 
ATOM     35  C   LIG    1       23.651 -33.383   4.975  0.00  0.00    +0.000 A 
ATOM     36  C   LIG    1       24.627 -33.609   4.019  0.00  0.00    +0.000 A 
ATOM     37  C   LIG    1       25.685 -32.713   3.919  0.00  0.00    +0.000 A 
ATOM     38  C   LIG    1       25.734 -31.568   4.738  0.00  0.00    +0.007 A 
ENDBRANCH  26  33
BRANCH  26  39
ATOM     39  O   LIG    1       23.479 -29.208   6.369  0.00  0.00    -0.379 OA
ATOM     40  H   LIG    1       22.776 -29.827   6.146  0.00  0.00    +0.211 HD
ENDBRANCH  26  39
ENDBRANCH   4  26
TORSDOF 13
ENDMDL
MODEL 6
REMARK VINA RESULT:      -8.9      2.413      9.288
REMARK  Name = *****
REMARK                            x       y       z     vdW  Elec       q    Type
REMARK                         _______ _______ _______ _____ _____    ______ ____
ROOT
ATOM      1  N   LIG    1       25.785 -30.288   8.294  0.00  0.00    -0.302 NA
ATOM      2  C   LIG    1       25.858 -31.164   9.471  0.00  0.00    +0.085 C 
ATOM      3  C   LIG    1       27.006 -30.765  10.395  0.00  0.00    +0.022 C 
ATOM      4  C   LIG    1       26.859 -29.355  11.002  0.00  0.00    +0.032 C 
ATOM      5  C   LIG    1       26.655 -28.390   9.801  0.00  0.00    +0.022 C 
ATOM      6  C   LIG    1       25.724 -28.865   8.665  0.00  0.00    +0.085 C 
ENDROOT
BRANCH   1   7
ATOM      7  C   LIG    1       24.623 -30.678   7.463  0.00  0.00    +0.084 C 
BRANCH   7   8
ATOM      8  C   LIG    1       24.664 -30.126   6.029  0.00  0.00    +0.018 C 
BRANCH   8   9
ATOM      9  C   LIG    1       24.098 -28.704   5.982  0.00  0.00    +0.037 C 
BRANCH   9  10
ATOM     10  C   LIG    1       25.024 -27.702   5.274  0.00  0.00    +0.144 C 
BRANCH  10  14
ATOM     11  C   LIG    1       25.013 -23.569   6.689  0.00  0.00    -0.031 A 
ATOM     12  C   LIG    1       23.802 -24.220   6.382  0.00  0.00    +0.005 A 
ATOM     13  C   LIG    1       23.788 -25.555   5.968  0.00  0.00    +0.006 A 
ATOM     14  C   LIG    1       24.973 -26.292   5.844  0.00  0.00    -0.019 A 
ATOM     15  C   LIG    1       26.171 -25.664   6.203  0.00  0.00    +0.006 A 
ATOM     16  C   LIG    1       26.187 -24.327   6.618  0.00  0.00    +0.005 A 
BRANCH  11  18
ATOM     17  C   LIG    1       23.544 -21.675   7.468  0.00  0.00    +0.027 C 
ATOM     18  C   LIG    1       25.001 -22.087   7.126  0.00  0.00    +0.087 C 
ATOM     19  C   LIG    1       25.489 -21.132   6.033  0.00  0.00    +0.027 C 
BRANCH  18  20
ATOM     20  C   LIG    1       25.875 -21.841   8.354  0.00  0.00    +0.315 C 
ATOM     21  O   LIG    1       25.409 -21.756   9.528  0.00  0.00    -0.250 OA
BRANCH  20  22
ATOM     22  O   LIG    1       27.196 -21.645   8.131  0.00  0.00    -0.480 OA
ATOM     23  H   LIG    1       27.689 -22.456   7.958  0.00  0.00    +0.295 HD
ENDBRANCH  20  22
ENDBRANCH  18  20
ENDBRANCH  11  18
ENDBRANCH  10  14
BRANCH  10  24
ATOM     24  O   LIG    1       26.364 -28.187   5.299  0.00  0.00    -0.387 OA
ATOM     25  H   LIG    1       26.402 -28.990   4.754  0.00  0.00    +0.210 HD
ENDBRANCH  10  24
ENDBRANCH   9  10
ENDBRANCH   8   9
ENDBRANCH   7   8
ENDBRANCH   1   7
BRANCH   4  26
ATOM     26  C   LIG    1       25.774 -29.210  12.159  0.00  0.00    +0.119 C 
BRANCH  26  27
ATOM     27  C   LIG    1       25.708 -27.742  12.687  0.00  0.00    -0.011 A 
ATOM     28  C   LIG    1       24.518 -27.215  13.230  0.00  0.00    +0.007 A 
ATOM     29  C   LIG    1       24.449 -25.912  13.740  0.00  0.00    +0.000 A 
ATOM     30  C   LIG    1       25.576 -25.100  13.736  0.00  0.00    +0.000 A 
ATOM     31  C   LIG    1       26.757 -25.575  13.180  0.00  0.00    +0.000 A 
ATOM     32  C   LIG    1       26.816 -26.871  12.644  0.00  0.00    +0.007 A 
ENDBRANCH  26  27
BRANCH  26  33
ATOM     33  C   LIG    1       25.993 -30.224  13.348  0.00  0.00    -0.011 A 
ATOM     34  C   LIG    1       25.037 -31.195  13.728  0.00  0.00    +0.007 A 
ATOM     35  C   LIG    1       25.297 -32.163  14.714  0.00  0.00    +0.000 A 
ATOM     36  C   LIG    1       26.516 -32.190  15.372  0.00  0.00    +0.000 A 
ATOM     37  C   LIG    1       27.457 -31.212  15.079  0.00  0.00    +0.000 A 
ATOM     38  C   LIG    1       27.197 -30.241  14.091  0.00  0.00    +0.007 A 
ENDBRANCH  26  33
BRANCH  26  39
ATOM     39  O   LIG    1       24.527 -29.440  11.479  0.00  0.00    -0.379 OA
ATOM     40  H   LIG    1       23.920 -28.714  11.662  0.00  0.00    +0.211 HD
ENDBRANCH  26  39
ENDBRANCH   4  26
TORSDOF 13
ENDMDL
MODEL 7
REMARK VINA RESULT:      -8.8      2.239      9.172
REMARK  Name = *****
REMARK                            x       y       z     vdW  Elec       q    Type
REMARK                         _______ _______ _______ _____ _____    ______ ____
ROOT
ATOM      1  N   LIG    1       25.751 -30.227   7.959  0.00  0.00    -0.302 NA
ATOM      2  C   LIG    1       26.019 -31.214   9.012  0.00  0.00    +0.085 C 
ATOM      3  C   LIG    1       27.237 -30.827   9.847  0.00  0.00    +0.022 C 
ATOM      4  C   LIG    1       27.067 -29.505  10.624  0.00  0.00    +0.032 C 
ATOM      5  C   LIG    1       26.661 -28.438   9.571  0.00  0.00    +0.022 C 
ATOM      6  C   LIG    1       25.639 -28.861   8.495  0.00  0.00    +0.085 C 
ENDROOT
BRANCH   1   7
ATOM      7  C   LIG    1       24.529 -30.618   7.219  0.00  0.00    +0.084 C 
BRANCH   7   8
ATOM      8  C   LIG    1       24.522 -30.180   5.745  0.00  0.00    +0.018 C 
BRANCH   8   9
ATOM      9  C   LIG    1       24.000 -28.748   5.609  0.00  0.00    +0.037 C 
BRANCH   9  10
ATOM     10  C   LIG    1       25.068 -27.751   5.130  0.00  0.00    +0.144 C 
BRANCH  10  14
ATOM     11  C   LIG    1       24.924 -23.698   6.752  0.00  0.00    -0.031 A 
ATOM     12  C   LIG    1       23.734 -24.370   6.408  0.00  0.00    +0.005 A 
ATOM     13  C   LIG    1       23.763 -25.682   5.927  0.00  0.00    +0.006 A 
ATOM     14  C   LIG    1       24.971 -26.375   5.770  0.00  0.00    -0.019 A 
ATOM     15  C   LIG    1       26.148 -25.728   6.165  0.00  0.00    +0.006 A 
ATOM     16  C   LIG    1       26.121 -24.413   6.647  0.00  0.00    +0.005 A 
BRANCH  11  18
ATOM     17  C   LIG    1       25.724 -22.124   8.551  0.00  0.00    +0.027 C 
ATOM     18  C   LIG    1       24.864 -22.241   7.263  0.00  0.00    +0.087 C 
ATOM     19  C   LIG    1       23.449 -21.788   7.630  0.00  0.00    +0.027 C 
BRANCH  18  20
ATOM     20  C   LIG    1       25.396 -21.246   6.234  0.00  0.00    +0.315 C 
ATOM     21  O   LIG    1       25.113 -21.308   5.001  0.00  0.00    -0.250 OA
BRANCH  20  22
ATOM     22  O   LIG    1       26.261 -20.307   6.687  0.00  0.00    -0.480 OA
ATOM     23  H   LIG    1       26.499 -20.409   7.616  0.00  0.00    +0.295 HD
ENDBRANCH  20  22
ENDBRANCH  18  20
ENDBRANCH  11  18
ENDBRANCH  10  14
BRANCH  10  24
ATOM     24  O   LIG    1       26.366 -28.298   5.349  0.00  0.00    -0.387 OA
ATOM     25  H   LIG    1       26.974 -27.562   5.531  0.00  0.00    +0.210 HD
ENDBRANCH  10  24
ENDBRANCH   9  10
ENDBRANCH   8   9
ENDBRANCH   7   8
ENDBRANCH   1   7
BRANCH   4  26
ATOM     26  C   LIG    1       26.118 -29.571  11.900  0.00  0.00    +0.119 C 
BRANCH  26  27
ATOM     27  C   LIG    1       24.840 -30.420  11.607  0.00  0.00    -0.011 A 
ATOM     28  C   LIG    1       23.744 -29.872  10.908  0.00  0.00    +0.007 A 
ATOM     29  C   LIG    1       22.604 -30.629  10.606  0.00  0.00    +0.000 A 
ATOM     30  C   LIG    1       22.533 -31.964  10.982  0.00  0.00    +0.000 A 
ATOM     31  C   LIG    1       23.580 -32.528  11.700  0.00  0.00    +0.000 A 
ATOM     32  C   LIG    1       24.709 -31.760  12.025  0.00  0.00    +0.007 A 
ENDBRANCH  26  27
BRANCH  26  33
ATOM     33  C   LIG    1       25.729 -28.148  12.461  0.00  0.00    -0.011 A 
ATOM     34  C   LIG    1       24.463 -27.850  13.019  0.00  0.00    +0.007 A 
ATOM     35  C   LIG    1       24.175 -26.611  13.616  0.00  0.00    +0.000 A 
ATOM     36  C   LIG    1       25.134 -25.612  13.666  0.00  0.00    +0.000 A 
ATOM     37  C   LIG    1       26.368 -25.838  13.068  0.00  0.00    +0.000 A 
ATOM     38  C   LIG    1       26.656 -27.080  12.469  0.00  0.00    +0.007 A 
ENDBRANCH  26  33
BRANCH  26  39
ATOM     39  O   LIG    1       26.886 -30.332  12.850  0.00  0.00    -0.379 OA
ATOM     40  H   LIG    1       26.947 -29.845  13.679  0.00  0.00    +0.211 HD
ENDBRANCH  26  39
ENDBRANCH   4  26
TORSDOF 13
ENDMDL
MODEL 8
REMARK VINA RESULT:      -8.4      2.612      9.540
REMARK  Name = *****
REMARK                            x       y       z     vdW  Elec       q    Type
REMARK                         _______ _______ _______ _____ _____    ______ ____
ROOT
ATOM      1  N   LIG    1       25.287 -31.921   7.346  0.00  0.00    -0.302 NA
ATOM      2  C   LIG    1       23.908 -31.824   7.841  0.00  0.00    +0.085 C 
ATOM      3  C   LIG    1       23.740 -32.548   9.175  0.00  0.00    +0.022 C 
ATOM      4  C   LIG    1       24.579 -31.949  10.321  0.00  0.00    +0.032 C 
ATOM      5  C   LIG    1       26.044 -31.912   9.806  0.00  0.00    +0.022 C 
ATOM      6  C   LIG    1       26.268 -31.469   8.345  0.00  0.00    +0.085 C 
ENDROOT
BRANCH   1   7
ATOM      7  C   LIG    1       25.410 -31.156   6.084  0.00  0.00    +0.084 C 
BRANCH   7   8
ATOM      8  C   LIG    1       24.368 -30.037   5.924  0.00  0.00    +0.018 C 
BRANCH   8   9
ATOM      9  C   LIG    1       24.874 -28.735   6.551  0.00  0.00    +0.037 C 
BRANCH   9  10
ATOM     10  C   LIG    1       25.212 -27.651   5.516  0.00  0.00    +0.144 C 
BRANCH  10  14
ATOM     11  C   LIG    1       24.957 -23.478   6.784  0.00  0.00    -0.031 A 
ATOM     12  C   LIG    1       23.793 -24.184   6.418  0.00  0.00    +0.005 A 
ATOM     13  C   LIG    1       23.856 -25.531   6.050  0.00  0.00    +0.006 A 
ATOM     14  C   LIG    1       25.072 -26.227   6.033  0.00  0.00    -0.019 A 
ATOM     15  C   LIG    1       26.219 -25.542   6.451  0.00  0.00    +0.006 A 
ATOM     16  C   LIG    1       26.159 -24.193   6.820  0.00  0.00    +0.005 A 
BRANCH  11  18
ATOM     17  C   LIG    1       25.490 -21.786   8.575  0.00  0.00    +0.027 C 
ATOM     18  C   LIG    1       24.862 -21.985   7.169  0.00  0.00    +0.087 C 
ATOM     19  C   LIG    1       23.421 -21.473   7.249  0.00  0.00    +0.027 C 
BRANCH  18  20
ATOM     20  C   LIG    1       25.598 -21.086   6.178  0.00  0.00    +0.315 C 
ATOM     21  O   LIG    1       26.476 -20.244   6.528  0.00  0.00    -0.250 OA
BRANCH  20  22
ATOM     22  O   LIG    1       25.222 -21.176   4.880  0.00  0.00    -0.480 OA
ATOM     23  H   LIG    1       24.302 -21.437   4.756  0.00  0.00    +0.295 HD
ENDBRANCH  20  22
ENDBRANCH  18  20
ENDBRANCH  11  18
ENDBRANCH  10  14
BRANCH  10  24
ATOM     24  O   LIG    1       26.532 -27.858   5.019  0.00  0.00    -0.387 OA
ATOM     25  H   LIG    1       26.688 -27.217   4.306  0.00  0.00    +0.210 HD
ENDBRANCH  10  24
ENDBRANCH   9  10
ENDBRANCH   8   9
ENDBRANCH   7   8
ENDBRANCH   1   7
BRANCH   4  26
ATOM     26  C   LIG    1       24.052 -30.569  10.915  0.00  0.00    +0.119 C 
BRANCH  26  27
ATOM     27  C   LIG    1       25.196 -29.796  11.645  0.00  0.00    -0.011 A 
ATOM     28  C   LIG    1       25.883 -28.740  11.010  0.00  0.00    +0.007 A 
ATOM     29  C   LIG    1       26.889 -28.013  11.661  0.00  0.00    +0.000 A 
ATOM     30  C   LIG    1       27.228 -28.312  12.974  0.00  0.00    +0.000 A 
ATOM     31  C   LIG    1       26.593 -29.366  13.620  0.00  0.00    +0.000 A 
ATOM     32  C   LIG    1       25.606 -30.111  12.957  0.00  0.00    +0.007 A 
ENDBRANCH  26  27
BRANCH  26  33
ATOM     33  C   LIG    1       22.798 -30.735  11.859  0.00  0.00    -0.011 A 
ATOM     34  C   LIG    1       22.473 -31.945  12.515  0.00  0.00    +0.007 A 
ATOM     35  C   LIG    1       21.418 -32.042  13.440  0.00  0.00    +0.000 A 
ATOM     36  C   LIG    1       20.634 -30.939  13.734  0.00  0.00    +0.000 A 
ATOM     37  C   LIG    1       20.874 -29.748  13.059  0.00  0.00    +0.000 A 
ATOM     38  C   LIG    1       21.931 -29.651  12.132  0.00  0.00    +0.007 A 
ENDBRANCH  26  33
BRANCH  26  39
ATOM     39  O   LIG    1       23.741 -29.796   9.741  0.00  0.00    -0.379 OA
ATOM     40  H   LIG    1       23.308 -28.975  10.000  0.00  0.00    +0.211 HD
ENDBRANCH  26  39
ENDBRANCH   4  26
TORSDOF 13
ENDMDL
MODEL 9
REMARK VINA RESULT:      -8.3      2.476      3.148
REMARK  Name = *****
REMARK                            x       y       z     vdW  Elec       q    Type
REMARK                         _______ _______ _______ _____ _____    ______ ____
ROOT
ATOM      1  N   LIG    1       25.039 -25.390   6.831  0.00  0.00    -0.302 NA
ATOM      2  C   LIG    1       24.188 -24.679   5.869  0.00  0.00    +0.085 C 
ATOM      3  C   LIG    1       23.499 -23.478   6.510  0.00  0.00    +0.022 C 
ATOM      4  C   LIG    1       24.474 -22.389   7.004  0.00  0.00    +0.032 C 
ATOM      5  C   LIG    1       25.483 -23.110   7.940  0.00  0.00    +0.022 C 
ATOM      6  C   LIG    1       26.001 -24.491   7.490  0.00  0.00    +0.085 C 
ENDROOT
BRANCH   1   7
ATOM      7  C   LIG    1       25.727 -26.508   6.146  0.00  0.00    +0.084 C 
BRANCH   7   8
ATOM      8  C   LIG    1       24.946 -27.092   4.959  0.00  0.00    +0.018 C 
BRANCH   8   9
ATOM      9  C   LIG    1       24.130 -28.312   5.396  0.00  0.00    +0.037 C 
BRANCH   9  10
ATOM     10  C   LIG    1       24.999 -29.512   5.804  0.00  0.00    +0.144 C 
BRANCH  10  14
ATOM     11  C   LIG    1       23.401 -31.427   9.391  0.00  0.00    -0.031 A 
ATOM     12  C   LIG    1       23.460 -32.133   8.173  0.00  0.00    +0.005 A 
ATOM     13  C   LIG    1       24.007 -31.546   7.028  0.00  0.00    +0.006 A 
ATOM     14  C   LIG    1       24.515 -30.241   7.049  0.00  0.00    -0.019 A 
ATOM     15  C   LIG    1       24.509 -29.560   8.272  0.00  0.00    +0.006 A 
ATOM     16  C   LIG    1       23.962 -30.146   9.420  0.00  0.00    +0.005 A 
BRANCH  11  18
ATOM     17  C   LIG    1       23.734 -31.906  11.843  0.00  0.00    +0.027 C 
ATOM     18  C   LIG    1       22.775 -32.093  10.636  0.00  0.00    +0.087 C 
ATOM     19  C   LIG    1       22.557 -33.599  10.470  0.00  0.00    +0.027 C 
BRANCH  18  20
ATOM     20  C   LIG    1       21.421 -31.484  10.996  0.00  0.00    +0.315 C 
ATOM     21  O   LIG    1       20.538 -31.203  10.133  0.00  0.00    -0.250 OA
BRANCH  20  22
ATOM     22  O   LIG    1       21.217 -31.185  12.301  0.00  0.00    -0.480 OA
ATOM     23  H   LIG    1       22.027 -31.019  12.796  0.00  0.00    +0.295 HD
ENDBRANCH  20  22
ENDBRANCH  18  20
ENDBRANCH  11  18
ENDBRANCH  10  14
BRANCH  10  24
ATOM     24  O   LIG    1       25.096 -30.427   4.714  0.00  0.00    -0.387 OA
ATOM     25  H   LIG    1       25.419 -31.274   5.063  0.00  0.00    +0.210 HD
ENDBRANCH  10  24
ENDBRANCH   9  10
ENDBRANCH   8   9
ENDBRANCH   7   8
ENDBRANCH   1   7
BRANCH   4  26
ATOM     26  C   LIG    1       25.146 -21.497   5.869  0.00  0.00    +0.119 C 
BRANCH  26  27
ATOM     27  C   LIG    1       26.437 -20.795   6.396  0.00  0.00    -0.011 A 
ATOM     28  C   LIG    1       26.656 -20.611   7.778  0.00  0.00    +0.007 A 
ATOM     29  C   LIG    1       27.824 -20.015   8.271  0.00  0.00    +0.000 A 
ATOM     30  C   LIG    1       28.818 -19.598   7.394  0.00  0.00    +0.000 A 
ATOM     31  C   LIG    1       28.623 -19.735   6.026  0.00  0.00    +0.000 A 
ATOM     32  C   LIG    1       27.440 -20.307   5.533  0.00  0.00    +0.007 A 
ENDBRANCH  26  27
BRANCH  26  33
ATOM     33  C   LIG    1       24.154 -20.444   5.237  0.00  0.00    -0.011 A 
ATOM     34  C   LIG    1       22.928 -20.071   5.836  0.00  0.00    +0.007 A 
ATOM     35  C   LIG    1       22.114 -19.050   5.315  0.00  0.00    +0.000 A 
ATOM     36  C   LIG    1       22.483 -18.371   4.165  0.00  0.00    +0.000 A 
ATOM     37  C   LIG    1       23.645 -18.753   3.506  0.00  0.00    +0.000 A 
ATOM     38  C   LIG    1       24.460 -19.777   4.027  0.00  0.00    +0.007 A 
ENDBRANCH  26  33
BRANCH  26  39
ATOM     39  O   LIG    1       25.591 -22.464   4.902  0.00  0.00    -0.379 OA
ATOM     40  H   LIG    1       26.144 -22.032   4.243  0.00  0.00    +0.211 HD
ENDBRANCH  26  39
ENDBRANCH   4  26
TORSDOF 13
ENDMDL
