MODEL 1
REMARK VINA RESULT:      -8.3      0.000      0.000
REMARK  Name = *****
REMARK                            x       y       z     vdW  Elec       q    Type
REMARK                         _______ _______ _______ _____ _____    ______ ____
ROOT
ATOM      1  C   LIG    1       24.577 -21.836   6.285  0.00  0.00    +0.158 C 
ATOM      2  N   LIG    1       24.509 -21.573   7.694  0.00  0.00    -0.293 N 
ATOM      3  H   LIG    1       23.799 -22.041   8.240  0.00  0.00    +0.151 HD
ATOM      4  C   LIG    1       25.618 -21.217   8.413  0.00  0.00    +0.247 C 
ATOM      5  O   LIG    1       25.671 -21.340   9.629  0.00  0.00    -0.270 OA
ATOM      6  C   LIG    1       26.730 -20.639   7.634  0.00  0.00    +0.059 A 
ATOM      7  C   LIG    1       26.523 -20.421   6.268  0.00  0.00    +0.042 A 
ATOM      8  C   LIG    1       27.518 -19.769   5.536  0.00  0.00    +0.045 A 
ATOM      9  C   LIG    1       28.736 -19.418   6.137  0.00  0.00    +0.069 A 
ATOM     10  C   LIG    1       28.943 -19.693   7.492  0.00  0.00    +0.124 A 
ATOM     11 CL   LIG    1       29.913 -18.655   5.129  0.00  0.00    -0.082 Cl
ATOM     12  C   LIG    1       27.931 -20.293   8.251  0.00  0.00    +0.045 A 
ATOM     13  N   LIG    1       25.294 -20.734   5.650  0.00  0.00    -0.325 N 
ATOM     14  H   LIG    1       24.704 -19.902   5.674  0.00  0.00    +0.148 HD
ENDROOT
BRANCH  10  15
ATOM     15  S   LIG    1       30.477 -19.281   8.253  0.00  0.00    +0.057 S 
ATOM     16  O   LIG    1       30.568 -19.965   9.519  0.00  0.00    -0.153 OA
ATOM     17  O   LIG    1       30.709 -17.864   8.089  0.00  0.00    -0.153 OA
BRANCH  15  18
ATOM     18  N   LIG    1       31.640 -20.016   7.284  0.00  0.00    -0.203 NA
ATOM     19  H   LIG    1       31.660 -21.019   7.475  0.00  0.00    +0.144 HD
ATOM     20  H   LIG    1       32.542 -19.555   7.420  0.00  0.00    +0.144 HD
ENDBRANCH  15  18
ENDBRANCH  10  15
BRANCH   1  22
ATOM     21  C   LIG    1       24.537 -24.346   6.705  0.00  0.00    +0.007 C 
ATOM     22  C   LIG    1       25.216 -23.199   5.972  0.00  0.00    +0.038 C 
ENDBRANCH   1  22
TORSDOF 3
ENDMDL
MODEL 2
REMARK VINA RESULT:      -8.3      2.711      5.754
REMARK  Name = *****
REMARK                            x       y       z     vdW  Elec       q    Type
REMARK                         _______ _______ _______ _____ _____    ______ ____
ROOT
ATOM      1  C   LIG    1       31.405 -18.896   7.721  0.00  0.00    +0.158 C 
ATOM      2  N   LIG    1       31.517 -20.192   8.326  0.00  0.00    -0.293 N 
ATOM      3  H   LIG    1       32.254 -20.351   8.998  0.00  0.00    +0.151 HD
ATOM      4  C   LIG    1       30.426 -21.002   8.498  0.00  0.00    +0.247 C 
ATOM      5  O   LIG    1       30.419 -21.918   9.308  0.00  0.00    -0.270 OA
ATOM      6  C   LIG    1       29.276 -20.725   7.615  0.00  0.00    +0.059 A 
ATOM      7  C   LIG    1       29.431 -19.740   6.634  0.00  0.00    +0.042 A 
ATOM      8  C   LIG    1       28.399 -19.542   5.714  0.00  0.00    +0.045 A 
ATOM      9  C   LIG    1       27.195 -20.255   5.826  0.00  0.00    +0.069 A 
ATOM     10  C   LIG    1       27.041 -21.198   6.846  0.00  0.00    +0.124 A 
ATOM     11 CL   LIG    1       25.968 -19.902   4.662  0.00  0.00    -0.082 Cl
ATOM     12  C   LIG    1       28.091 -21.447   7.738  0.00  0.00    +0.045 A 
ATOM     13  N   LIG    1       30.644 -19.035   6.483  0.00  0.00    -0.325 N 
ATOM     14  H   LIG    1       31.217 -19.531   5.800  0.00  0.00    +0.148 HD
ENDROOT
BRANCH  10  15
ATOM     15  S   LIG    1       25.526 -22.082   7.012  0.00  0.00    +0.057 S 
ATOM     16  O   LIG    1       24.463 -21.140   7.261  0.00  0.00    -0.153 OA
ATOM     17  O   LIG    1       25.762 -23.257   7.818  0.00  0.00    -0.153 OA
BRANCH  15  18
ATOM     18  N   LIG    1       25.216 -22.680   5.469  0.00  0.00    -0.203 NA
ATOM     19  H   LIG    1       25.849 -23.458   5.270  0.00  0.00    +0.144 HD
ATOM     20  H   LIG    1       25.273 -21.920   4.788  0.00  0.00    +0.144 HD
ENDBRANCH  15  18
ENDBRANCH  10  15
BRANCH   1  22
ATOM     21  C   LIG    1       31.830 -16.994   9.360  0.00  0.00    +0.007 C 
ATOM     22  C   LIG    1       30.783 -17.856   8.668  0.00  0.00    +0.038 C 
ENDBRANCH   1  22
TORSDOF 3
ENDMDL
MODEL 3
REMARK VINA RESULT:      -7.6      3.183      5.646
REMARK  Name = *****
REMARK                            x       y       z     vdW  Elec       q    Type
REMARK                         _______ _______ _______ _____ _____    ______ ____
ROOT
ATOM      1  C   LIG    1       29.932 -19.709   6.611  0.00  0.00    +0.158 C 
ATOM      2  N   LIG    1       29.639 -20.807   7.486  0.00  0.00    -0.293 N 
ATOM      3  H   LIG    1       30.314 -21.053   8.197  0.00  0.00    +0.151 HD
ATOM      4  C   LIG    1       28.352 -21.152   7.801  0.00  0.00    +0.247 C 
ATOM      5  O   LIG    1       28.082 -21.817   8.791  0.00  0.00    -0.270 OA
ATOM      6  C   LIG    1       27.318 -20.706   6.848  0.00  0.00    +0.059 A 
ATOM      7  C   LIG    1       27.742 -20.063   5.680  0.00  0.00    +0.042 A 
ATOM      8  C   LIG    1       26.790 -19.736   4.712  0.00  0.00    +0.045 A 
ATOM      9  C   LIG    1       25.426 -19.968   4.942  0.00  0.00    +0.069 A 
ATOM     10  C   LIG    1       25.017 -20.565   6.139  0.00  0.00    +0.124 A 
ATOM     11 CL   LIG    1       24.330 -19.486   3.697  0.00  0.00    -0.082 Cl
ATOM     12  C   LIG    1       25.967 -20.950   7.093  0.00  0.00    +0.045 A 
ATOM     13  N   LIG    1       29.111 -19.850   5.413  0.00  0.00    -0.325 N 
ATOM     14  H   LIG    1       29.456 -20.642   4.870  0.00  0.00    +0.148 HD
ENDROOT
BRANCH  10  15
ATOM     15  S   LIG    1       23.305 -20.839   6.452  0.00  0.00    +0.057 S 
ATOM     16  O   LIG    1       22.555 -19.719   5.940  0.00  0.00    -0.153 OA
ATOM     17  O   LIG    1       23.158 -21.359   7.791  0.00  0.00    -0.153 OA
BRANCH  15  18
ATOM     18  N   LIG    1       22.894 -22.126   5.448  0.00  0.00    -0.203 NA
ATOM     19  H   LIG    1       21.925 -22.400   5.623  0.00  0.00    +0.144 HD
ATOM     20  H   LIG    1       23.565 -22.887   5.575  0.00  0.00    +0.144 HD
ENDBRANCH  15  18
ENDBRANCH  10  15
BRANCH   1  22
ATOM     21  C   LIG    1       30.431 -18.256   8.641  0.00  0.00    +0.007 C 
ATOM     22  C   LIG    1       29.733 -18.345   7.291  0.00  0.00    +0.038 C 
ENDBRANCH   1  22
TORSDOF 3
ENDMDL
MODEL 4
REMARK VINA RESULT:      -7.5      2.381      3.014
REMARK  Name = *****
REMARK                            x       y       z     vdW  Elec       q    Type
REMARK                         _______ _______ _______ _____ _____    ______ ____
ROOT
ATOM      1  C   LIG    1       24.173 -22.245   6.181  0.00  0.00    +0.158 C 
ATOM      2  N   LIG    1       24.443 -21.587   4.935  0.00  0.00    -0.293 N 
ATOM      3  H   LIG    1       23.678 -21.432   4.292  0.00  0.00    +0.151 HD
ATOM      4  C   LIG    1       25.468 -20.689   4.803  0.00  0.00    +0.247 C 
ATOM      5  O   LIG    1       25.499 -19.867   3.898  0.00  0.00    -0.270 OA
ATOM      6  C   LIG    1       26.552 -20.803   5.798  0.00  0.00    +0.059 A 
ATOM      7  C   LIG    1       26.487 -21.858   6.714  0.00  0.00    +0.042 A 
ATOM      8  C   LIG    1       27.559 -22.053   7.588  0.00  0.00    +0.045 A 
ATOM      9  C   LIG    1       28.639 -21.158   7.607  0.00  0.00    +0.069 A 
ATOM     10  C   LIG    1       28.659 -20.079   6.718  0.00  0.00    +0.124 A 
ATOM     11 CL   LIG    1       29.890 -21.468   8.757  0.00  0.00    -0.082 Cl
ATOM     12  C   LIG    1       27.619 -19.906   5.797  0.00  0.00    +0.045 A 
ATOM     13  N   LIG    1       25.428 -22.789   6.690  0.00  0.00    -0.325 N 
ATOM     14  H   LIG    1       25.707 -23.575   6.102  0.00  0.00    +0.148 HD
ENDROOT
BRANCH  10  15
ATOM     15  S   LIG    1       29.998 -18.933   6.749  0.00  0.00    +0.057 S 
ATOM     16  O   LIG    1       31.226 -19.646   6.501  0.00  0.00    -0.153 OA
ATOM     17  O   LIG    1       29.805 -18.028   7.858  0.00  0.00    -0.153 OA
BRANCH  15  18
ATOM     18  N   LIG    1       29.770 -17.981   5.380  0.00  0.00    -0.203 NA
ATOM     19  H   LIG    1       30.670 -17.818   4.924  0.00  0.00    +0.144 HD
ATOM     20  H   LIG    1       29.278 -17.123   5.636  0.00  0.00    +0.144 HD
ENDBRANCH  15  18
ENDBRANCH  10  15
BRANCH   1  22
ATOM     21  C   LIG    1       22.855 -20.097   6.546  0.00  0.00    +0.007 C 
ATOM     22  C   LIG    1       23.489 -21.317   7.199  0.00  0.00    +0.038 C 
ENDBRANCH   1  22
TORSDOF 3
ENDMDL
MODEL 5
REMARK VINA RESULT:      -7.1      2.644      3.230
REMARK  Name = *****
REMARK                            x       y       z     vdW  Elec       q    Type
REMARK                         _______ _______ _______ _____ _____    ______ ____
ROOT
ATOM      1  C   LIG    1       25.709 -21.137   5.700  0.00  0.00    +0.158 C 
ATOM      2  N   LIG    1       26.364 -20.183   4.852  0.00  0.00    -0.293 N 
ATOM      3  H   LIG    1       25.824 -19.723   4.132  0.00  0.00    +0.151 HD
ATOM      4  C   LIG    1       27.442 -19.457   5.284  0.00  0.00    +0.247 C 
ATOM      5  O   LIG    1       27.782 -18.415   4.743  0.00  0.00    -0.270 OA
ATOM      6  C   LIG    1       28.191 -20.035   6.417  0.00  0.00    +0.059 A 
ATOM      7  C   LIG    1       27.799 -21.295   6.881  0.00  0.00    +0.042 A 
ATOM      8  C   LIG    1       28.565 -21.911   7.874  0.00  0.00    +0.045 A 
ATOM      9  C   LIG    1       29.653 -21.243   8.456  0.00  0.00    +0.069 A 
ATOM     10  C   LIG    1       29.996 -19.962   8.013  0.00  0.00    +0.124 A 
ATOM     11 CL   LIG    1       30.505 -22.078   9.705  0.00  0.00    -0.082 Cl
ATOM     12  C   LIG    1       29.272 -19.358   6.978  0.00  0.00    +0.045 A 
ATOM     13  N   LIG    1       26.730 -21.999   6.288  0.00  0.00    -0.325 N 
ATOM     14  H   LIG    1       27.111 -22.601   5.558  0.00  0.00    +0.148 HD
ENDROOT
BRANCH  10  15
ATOM     15  S   LIG    1       31.344 -19.102   8.753  0.00  0.00    +0.057 S 
ATOM     16  O   LIG    1       31.675 -17.963   7.934  0.00  0.00    -0.153 OA
ATOM     17  O   LIG    1       32.314 -20.070   9.210  0.00  0.00    -0.153 OA
BRANCH  15  18
ATOM     18  N   LIG    1       30.703 -18.445  10.164  0.00  0.00    -0.203 NA
ATOM     19  H   LIG    1       30.864 -19.086  10.943  0.00  0.00    +0.144 HD
ATOM     20  H   LIG    1       29.718 -18.215  10.018  0.00  0.00    +0.144 HD
ENDBRANCH  15  18
ENDBRANCH  10  15
BRANCH   1  22
ATOM     21  C   LIG    1       23.473 -21.141   6.916  0.00  0.00    +0.007 C 
ATOM     22  C   LIG    1       24.830 -20.469   6.768  0.00  0.00    +0.038 C 
ENDBRANCH   1  22
TORSDOF 3
ENDMDL
MODEL 6
REMARK VINA RESULT:      -6.9      2.946      3.755
REMARK  Name = *****
REMARK                            x       y       z     vdW  Elec       q    Type
REMARK                         _______ _______ _______ _____ _____    ______ ____
ROOT
ATOM      1  C   LIG    1       23.221 -20.699   4.322  0.00  0.00    +0.158 C 
ATOM      2  N   LIG    1       24.082 -20.055   3.372  0.00  0.00    -0.293 N 
ATOM      3  H   LIG    1       23.664 -19.592   2.576  0.00  0.00    +0.151 HD
ATOM      4  C   LIG    1       25.299 -19.543   3.734  0.00  0.00    +0.247 C 
ATOM      5  O   LIG    1       25.873 -18.697   3.064  0.00  0.00    -0.270 OA
ATOM      6  C   LIG    1       25.891 -20.107   4.963  0.00  0.00    +0.059 A 
ATOM      7  C   LIG    1       25.215 -21.161   5.587  0.00  0.00    +0.042 A 
ATOM      8  C   LIG    1       25.815 -21.786   6.682  0.00  0.00    +0.045 A 
ATOM      9  C   LIG    1       27.028 -21.310   7.202  0.00  0.00    +0.069 A 
ATOM     10  C   LIG    1       27.662 -20.221   6.595  0.00  0.00    +0.124 A 
ATOM     11 CL   LIG    1       27.660 -22.129   8.585  0.00  0.00    -0.082 Cl
ATOM     12  C   LIG    1       27.100 -19.623   5.461  0.00  0.00    +0.045 A 
ATOM     13  N   LIG    1       24.012 -21.678   5.062  0.00  0.00    -0.325 N 
ATOM     14  H   LIG    1       24.243 -22.451   4.438  0.00  0.00    +0.148 HD
ENDROOT
BRANCH  10  15
ATOM     15  S   LIG    1       29.173 -19.598   7.253  0.00  0.00    +0.057 S 
ATOM     16  O   LIG    1       28.963 -19.230   8.631  0.00  0.00    -0.153 OA
ATOM     17  O   LIG    1       29.778 -18.726   6.273  0.00  0.00    -0.153 OA
BRANCH  15  18
ATOM     18  N   LIG    1       30.190 -20.938   7.315  0.00  0.00    -0.203 NA
ATOM     19  H   LIG    1       30.232 -21.378   6.394  0.00  0.00    +0.144 HD
ATOM     20  H   LIG    1       29.881 -21.568   8.058  0.00  0.00    +0.144 HD
ENDBRANCH  15  18
ENDBRANCH  10  15
BRANCH   1  22
ATOM     21  C   LIG    1       22.165 -18.394   4.554  0.00  0.00    +0.007 C 
ATOM     22  C   LIG    1       22.521 -19.697   5.255  0.00  0.00    +0.038 C 
ENDBRANCH   1  22
TORSDOF 3
ENDMDL
MODEL 7
REMARK VINA RESULT:      -6.9      3.457      5.810
REMARK  Name = *****
REMARK                            x       y       z     vdW  Elec       q    Type
REMARK                         _______ _______ _______ _____ _____    ______ ____
ROOT
ATOM      1  C   LIG    1       30.409 -19.618   8.346  0.00  0.00    +0.158 C 
ATOM      2  N   LIG    1       30.436 -18.743   7.209  0.00  0.00    -0.293 N 
ATOM      3  H   LIG    1       31.319 -18.339   6.929  0.00  0.00    +0.151 HD
ATOM      4  C   LIG    1       29.532 -18.864   6.188  0.00  0.00    +0.247 C 
ATOM      5  O   LIG    1       29.742 -18.397   5.077  0.00  0.00    -0.270 OA
ATOM      6  C   LIG    1       28.274 -19.557   6.523  0.00  0.00    +0.059 A 
ATOM      7  C   LIG    1       28.076 -19.939   7.855  0.00  0.00    +0.042 A 
ATOM      8  C   LIG    1       26.845 -20.491   8.217  0.00  0.00    +0.045 A 
ATOM      9  C   LIG    1       25.859 -20.739   7.250  0.00  0.00    +0.069 A 
ATOM     10  C   LIG    1       26.097 -20.397   5.916  0.00  0.00    +0.124 A 
ATOM     11 CL   LIG    1       24.391 -21.465   7.800  0.00  0.00    -0.082 Cl
ATOM     12  C   LIG    1       27.304 -19.789   5.550  0.00  0.00    +0.045 A 
ATOM     13  N   LIG    1       29.040 -19.670   8.849  0.00  0.00    -0.325 N 
ATOM     14  H   LIG    1       28.813 -18.772   9.277  0.00  0.00    +0.148 HD
ENDROOT
BRANCH  10  15
ATOM     15  S   LIG    1       24.877 -20.725   4.688  0.00  0.00    +0.057 S 
ATOM     16  O   LIG    1       23.765 -19.830   4.887  0.00  0.00    -0.153 OA
ATOM     17  O   LIG    1       24.739 -22.156   4.545  0.00  0.00    -0.153 OA
BRANCH  15  18
ATOM     18  N   LIG    1       25.583 -20.220   3.246  0.00  0.00    -0.203 NA
ATOM     19  H   LIG    1       25.171 -20.735   2.465  0.00  0.00    +0.144 HD
ATOM     20  H   LIG    1       26.598 -20.315   3.309  0.00  0.00    +0.144 HD
ENDBRANCH  15  18
ENDBRANCH  10  15
BRANCH   1  22
ATOM     21  C   LIG    1       31.023 -21.917   9.249  0.00  0.00    +0.007 C 
ATOM     22  C   LIG    1       30.961 -21.016   8.025  0.00  0.00    +0.038 C 
ENDBRANCH   1  22
TORSDOF 3
ENDMDL
MODEL 8
REMARK VINA RESULT:      -5.9      4.949      6.517
REMARK  Name = *****
REMARK                            x       y       z     vdW  Elec       q    Type
REMARK                         _______ _______ _______ _____ _____    ______ ____
ROOT
ATOM      1  C   LIG    1       25.863 -27.749   6.648  0.00  0.00    +0.158 C 
ATOM      2  N   LIG    1       26.195 -27.574   5.263  0.00  0.00    -0.293 N 
ATOM      3  H   LIG    1       26.324 -28.395   4.688  0.00  0.00    +0.151 HD
ATOM      4  C   LIG    1       25.803 -26.464   4.564  0.00  0.00    +0.247 C 
ATOM      5  O   LIG    1       25.750 -26.451   3.342  0.00  0.00    -0.270 OA
ATOM      6  C   LIG    1       25.486 -25.273   5.376  0.00  0.00    +0.059 A 
ATOM      7  C   LIG    1       25.702 -25.351   6.756  0.00  0.00    +0.042 A 
ATOM      8  C   LIG    1       25.520 -24.201   7.528  0.00  0.00    +0.045 A 
ATOM      9  C   LIG    1       25.046 -23.015   6.946  0.00  0.00    +0.069 A 
ATOM     10  C   LIG    1       24.787 -22.974   5.572  0.00  0.00    +0.124 A 
ATOM     11 CL   LIG    1       24.816 -21.666   7.999  0.00  0.00    -0.082 Cl
ATOM     12  C   LIG    1       25.022 -24.103   4.778  0.00  0.00    +0.045 A 
ATOM     13  N   LIG    1       26.209 -26.521   7.358  0.00  0.00    -0.325 N 
ATOM     14  H   LIG    1       27.225 -26.443   7.400  0.00  0.00    +0.148 HD
ENDROOT
BRANCH  10  15
ATOM     15  S   LIG    1       24.169 -21.499   4.833  0.00  0.00    +0.057 S 
ATOM     16  O   LIG    1       25.220 -20.511   4.817  0.00  0.00    -0.153 OA
ATOM     17  O   LIG    1       22.841 -21.249   5.342  0.00  0.00    -0.153 OA
BRANCH  15  18
ATOM     18  N   LIG    1       23.936 -21.904   3.216  0.00  0.00    -0.203 NA
ATOM     19  H   LIG    1       24.579 -22.653   2.955  0.00  0.00    +0.144 HD
ATOM     20  H   LIG    1       24.024 -21.066   2.637  0.00  0.00    +0.144 HD
ENDBRANCH  15  18
ENDBRANCH  10  15
BRANCH   1  22
ATOM     21  C   LIG    1       23.982 -29.345   6.017  0.00  0.00    +0.007 C 
ATOM     22  C   LIG    1       24.391 -28.141   6.854  0.00  0.00    +0.038 C 
ENDBRANCH   1  22
TORSDOF 3
ENDMDL
MODEL 9
REMARK VINA RESULT:      -5.9      4.944      6.610
REMARK  Name = *****
REMARK                            x       y       z     vdW  Elec       q    Type
REMARK                         _______ _______ _______ _____ _____    ______ ____
ROOT
ATOM      1  C   LIG    1       25.142 -20.671   7.078  0.00  0.00    +0.158 C 
ATOM      2  N   LIG    1       24.330 -20.763   5.899  0.00  0.00    -0.293 N 
ATOM      3  H   LIG    1       24.046 -19.909   5.438  0.00  0.00    +0.151 HD
ATOM      4  C   LIG    1       24.392 -21.848   5.066  0.00  0.00    +0.247 C 
ATOM      5  O   LIG    1       24.006 -21.799   3.907  0.00  0.00    -0.270 OA
ATOM      6  C   LIG    1       24.917 -23.089   5.668  0.00  0.00    +0.059 A 
ATOM      7  C   LIG    1       25.212 -23.075   7.035  0.00  0.00    +0.042 A 
ATOM      8  C   LIG    1       25.598 -24.269   7.649  0.00  0.00    +0.045 A 
ATOM      9  C   LIG    1       25.774 -25.438   6.893  0.00  0.00    +0.069 A 
ATOM     10  C   LIG    1       25.525 -25.417   5.517  0.00  0.00    +0.124 A 
ATOM     11 CL   LIG    1       26.297 -26.847   7.744  0.00  0.00    -0.082 Cl
ATOM     12  C   LIG    1       25.080 -24.242   4.901  0.00  0.00    +0.045 A 
ATOM     13  N   LIG    1       25.011 -21.921   7.820  0.00  0.00    -0.325 N 
ATOM     14  H   LIG    1       24.073 -21.967   8.221  0.00  0.00    +0.148 HD
ENDROOT
BRANCH  10  15
ATOM     15  S   LIG    1       25.765 -26.872   4.553  0.00  0.00    +0.057 S 
ATOM     16  O   LIG    1       25.827 -26.502   3.161  0.00  0.00    -0.153 OA
ATOM     17  O   LIG    1       24.908 -27.914   5.068  0.00  0.00    -0.153 OA
BRANCH  15  18
ATOM     18  N   LIG    1       27.325 -27.377   4.933  0.00  0.00    -0.203 NA
ATOM     19  H   LIG    1       27.491 -28.303   4.534  0.00  0.00    +0.144 HD
ATOM     20  H   LIG    1       27.461 -27.337   5.945  0.00  0.00    +0.144 HD
ENDBRANCH  15  18
ENDBRANCH  10  15
BRANCH   1  22
ATOM     21  C   LIG    1       27.498 -20.364   7.993  0.00  0.00    +0.007 C 
ATOM     22  C   LIG    1       26.609 -20.340   6.758  0.00  0.00    +0.038 C 
ENDBRANCH   1  22
TORSDOF 3
ENDMDL
