MODEL 1
REMARK VINA RESULT:      -3.5      0.000      0.000
REMARK  Name = *****
REMARK                            x       y       z     vdW  Elec       q    Type
REMARK                         _______ _______ _______ _____ _____    ______ ____
ROOT
ATOM      1  C   LIG    1       26.058 -20.899   5.973  0.00  0.00    +0.143 A 
ATOM      2  C   LIG    1       26.513 -19.766   5.289  0.00  0.00    +0.075 A 
ATOM      3  C   LIG    1       25.742 -19.100   4.232  0.00  0.00    +0.202 C 
ATOM      4  C   LIG    1       25.989 -17.666   4.005  0.00  0.00    +0.075 A 
ATOM      5  C   LIG    1       27.278 -17.184   4.198  0.00  0.00    +0.037 A 
ATOM      6  C   LIG    1       28.288 -18.076   4.812  0.00  0.00    +0.195 C 
ATOM      7  O   LIG    1       29.475 -17.780   4.798  0.00  0.00    -0.287 OA
ATOM      8  C   LIG    1       27.595 -15.879   3.802  0.00  0.00    +0.027 A 
ATOM      9  C   LIG    1       26.594 -15.041   3.274  0.00  0.00    +0.063 A 
ATOM     10  C   LIG    1       25.278 -15.507   3.156  0.00  0.00    +0.062 A 
ATOM     11  C   LIG    1       24.988 -16.820   3.517  0.00  0.00    +0.144 A 
ATOM     12  O   LIG    1       25.016 -19.741   3.483  0.00  0.00    -0.286 OA
ATOM     13  C   LIG    1       27.815 -19.303   5.505  0.00  0.00    +0.037 A 
ATOM     14  C   LIG    1       28.680 -20.009   6.350  0.00  0.00    +0.012 A 
ATOM     15  C   LIG    1       28.219 -21.139   7.032  0.00  0.00    +0.004 A 
ATOM     16  C   LIG    1       26.904 -21.571   6.859  0.00  0.00    +0.047 A 
ENDROOT
BRANCH   9  17
ATOM     17  C   LIG    1       26.997 -13.705   2.757  0.00  0.00    +0.337 C 
ATOM     18  O   LIG    1       26.267 -13.039   2.068  0.00  0.00    -0.245 OA
BRANCH  17  19
ATOM     19  O   LIG    1       28.237 -13.309   3.117  0.00  0.00    -0.477 OA
ATOM     20  H   LIG    1       28.905 -13.229   2.411  0.00  0.00    +0.295 HD
ENDBRANCH  17  19
ENDBRANCH   9  17
BRANCH   1  21
ATOM     21  O   LIG    1       24.845 -21.571   5.700  0.00  0.00    -0.425 OA
BRANCH  21  23
ATOM     22  C   LIG    1       22.596 -21.541   5.019  0.00  0.00    +0.136 C 
ATOM     23  C   LIG    1       23.584 -21.093   6.063  0.00  0.00    +0.309 C 
ATOM     24  O   LIG    1       23.318 -20.439   7.062  0.00  0.00    -0.251 OA
ENDBRANCH  21  23
ENDBRANCH   1  21
BRANCH  11  25
ATOM     25  O   LIG    1       23.700 -17.385   3.423  0.00  0.00    -0.425 OA
BRANCH  25  26
ATOM     26  C   LIG    1       22.596 -17.101   4.218  0.00  0.00    +0.309 C 
ATOM     27  O   LIG    1       22.402 -16.080   4.861  0.00  0.00    -0.251 OA
ATOM     28  C   LIG    1       21.698 -18.300   4.175  0.00  0.00    +0.136 C 
ENDBRANCH  25  26
ENDBRANCH  11  25
TORSDOF 6
ENDMDL
MODEL 2
REMARK VINA RESULT:      -1.7      1.791      7.200
REMARK  Name = *****
REMARK                            x       y       z     vdW  Elec       q    Type
REMARK                         _______ _______ _______ _____ _____    ______ ____
ROOT
ATOM      1  C   LIG    1       26.050 -14.307   3.708  0.00  0.00    +0.143 A 
ATOM      2  C   LIG    1       25.171 -15.391   3.796  0.00  0.00    +0.075 A 
ATOM      3  C   LIG    1       25.571 -16.777   3.525  0.00  0.00    +0.202 C 
ATOM      4  C   LIG    1       24.810 -17.851   4.185  0.00  0.00    +0.075 A 
ATOM      5  C   LIG    1       23.452 -17.654   4.405  0.00  0.00    +0.037 A 
ATOM      6  C   LIG    1       22.878 -16.312   4.155  0.00  0.00    +0.195 C 
ATOM      7  O   LIG    1       21.666 -16.148   4.119  0.00  0.00    -0.287 OA
ATOM      8  C   LIG    1       22.660 -18.721   4.845  0.00  0.00    +0.027 A 
ATOM      9  C   LIG    1       23.252 -19.968   5.127  0.00  0.00    +0.063 A 
ATOM     10  C   LIG    1       24.636 -20.137   4.979  0.00  0.00    +0.062 A 
ATOM     11  C   LIG    1       25.402 -19.077   4.503  0.00  0.00    +0.144 A 
ATOM     12  O   LIG    1       26.420 -17.033   2.681  0.00  0.00    -0.286 OA
ATOM     13  C   LIG    1       23.809 -15.162   4.019  0.00  0.00    +0.037 A 
ATOM     14  C   LIG    1       23.320 -13.851   4.087  0.00  0.00    +0.012 A 
ATOM     15  C   LIG    1       24.203 -12.772   4.000  0.00  0.00    +0.004 A 
ATOM     16  C   LIG    1       25.570 -13.000   3.831  0.00  0.00    +0.047 A 
ENDROOT
BRANCH   9  17
ATOM     17  C   LIG    1       22.360 -21.106   5.477  0.00  0.00    +0.337 C 
ATOM     18  O   LIG    1       22.323 -21.572   6.588  0.00  0.00    -0.245 OA
BRANCH  17  19
ATOM     19  O   LIG    1       21.610 -21.572   4.456  0.00  0.00    -0.477 OA
ATOM     20  H   LIG    1       21.574 -22.539   4.329  0.00  0.00    +0.295 HD
ENDBRANCH  17  19
ENDBRANCH   9  17
BRANCH   1  21
ATOM     21  O   LIG    1       27.399 -14.396   3.298  0.00  0.00    -0.425 OA
BRANCH  21  23
ATOM     22  C   LIG    1       28.042 -13.127   5.169  0.00  0.00    +0.136 C 
ATOM     23  C   LIG    1       28.424 -13.583   3.786  0.00  0.00    +0.309 C 
ATOM     24  O   LIG    1       29.462 -13.300   3.204  0.00  0.00    -0.251 OA
ENDBRANCH  21  23
ENDBRANCH   1  21
BRANCH  11  25
ATOM     25  O   LIG    1       26.797 -19.154   4.309  0.00  0.00    -0.425 OA
BRANCH  25  26
ATOM     26  C   LIG    1       27.755 -19.554   5.233  0.00  0.00    +0.309 C 
ATOM     27  O   LIG    1       27.727 -20.562   5.923  0.00  0.00    -0.251 OA
ATOM     28  C   LIG    1       28.817 -18.498   5.257  0.00  0.00    +0.136 C 
ENDBRANCH  25  26
ENDBRANCH  11  25
TORSDOF 6
ENDMDL
