MODEL 1
REMARK VINA RESULT:      -1.6      0.000      0.000
REMARK  Name = *****
REMARK                            x       y       z     vdW  Elec       q    Type
REMARK                         _______ _______ _______ _____ _____    ______ ____
ROOT
ATOM      1  O   LIG    1       27.344 -16.564   3.119  0.00  0.00    -0.459 OA
ENDROOT
BRANCH   1   2
ATOM      2  C   LIG    1       27.622 -17.437   4.076  0.00  0.00    +0.340 C 
ATOM      3  O   LIG    1       28.592 -17.378   4.808  0.00  0.00    -0.245 OA
BRANCH   2   4
ATOM      4  C   LIG    1       26.605 -18.486   4.216  0.00  0.00    +0.066 A 
ATOM      5  C   LIG    1       25.365 -18.316   3.599  0.00  0.00    +0.064 A 
ATOM      6  C   LIG    1       24.303 -19.193   3.844  0.00  0.00    +0.166 A 
ATOM      7  C   LIG    1       24.503 -20.301   4.698  0.00  0.00    +0.203 A 
ATOM      8  C   LIG    1       25.781 -20.508   5.279  0.00  0.00    +0.166 A 
ATOM      9  C   LIG    1       26.813 -19.596   5.040  0.00  0.00    +0.064 A 
BRANCH   6  10
ATOM     10  O   LIG    1       23.041 -18.940   3.373  0.00  0.00    -0.491 OA
ATOM     11  C   LIG    1       22.102 -18.311   4.242  0.00  0.00    +0.277 C 
ENDBRANCH   6  10
BRANCH   7  12
ATOM     12  O   LIG    1       23.530 -21.185   5.100  0.00  0.00    -0.488 OA
ATOM     13  C   LIG    1       22.916 -21.019   6.372  0.00  0.00    +0.277 C 
ENDBRANCH   7  12
BRANCH   8  14
ATOM     14  O   LIG    1       25.938 -21.569   6.147  0.00  0.00    -0.491 OA
ATOM     15  C   LIG    1       27.031 -21.478   7.062  0.00  0.00    +0.277 C 
ENDBRANCH   8  14
ENDBRANCH   2   4
ENDBRANCH   1   2
BRANCH   1  16
ATOM     16  C   LIG    1       26.074 -15.874   3.113  0.00  0.00    +0.259 C 
BRANCH  16  17
ATOM     17  C   LIG    1       26.174 -14.314   3.428  0.00  0.00    +0.081 C 
BRANCH  17  18
ATOM     18  C   LIG    1       24.926 -13.820   4.268  0.00  0.00    -0.024 A 
ATOM     19  C   LIG    1       24.750 -12.463   4.600  0.00  0.00    +0.005 A 
ATOM     20  C   LIG    1       23.641 -12.012   5.340  0.00  0.00    +0.000 A 
ATOM     21  C   LIG    1       22.660 -12.900   5.764  0.00  0.00    +0.000 A 
ATOM     22  C   LIG    1       22.791 -14.240   5.451  0.00  0.00    +0.000 A 
ATOM     23  C   LIG    1       23.902 -14.683   4.717  0.00  0.00    +0.005 A 
ENDBRANCH  17  18
BRANCH  17  24
ATOM     24  N   LIG    1       27.484 -14.044   4.147  0.00  0.00    -0.296 NA
ATOM     25  C   LIG    1       27.386 -13.641   5.556  0.00  0.00    +0.105 C 
ATOM     26  C   LIG    1       28.435 -13.171   3.450  0.00  0.00    +0.105 C 
ENDBRANCH  17  24
BRANCH  17  28
ATOM     27  C   LIG    1       25.249 -12.342   1.861  0.00  0.00    +0.006 C 
ATOM     28  C   LIG    1       26.161 -13.560   2.032  0.00  0.00    +0.027 C 
ENDBRANCH  17  28
ENDBRANCH  16  17
ENDBRANCH   1  16
TORSDOF 10
ENDMDL
MODEL 2
REMARK VINA RESULT:      -0.8      1.816      3.943
REMARK  Name = *****
REMARK                            x       y       z     vdW  Elec       q    Type
REMARK                         _______ _______ _______ _____ _____    ______ ____
ROOT
ATOM      1  O   LIG    1       23.347 -15.014   3.761  0.00  0.00    -0.459 OA
ENDROOT
BRANCH   1   2
ATOM      2  C   LIG    1       22.693 -15.916   4.476  0.00  0.00    +0.340 C 
ATOM      3  O   LIG    1       21.763 -15.670   5.221  0.00  0.00    -0.245 OA
BRANCH   2   4
ATOM      4  C   LIG    1       23.167 -17.287   4.251  0.00  0.00    +0.066 A 
ATOM      5  C   LIG    1       22.312 -18.355   4.528  0.00  0.00    +0.064 A 
ATOM      6  C   LIG    1       22.766 -19.678   4.502  0.00  0.00    +0.166 A 
ATOM      7  C   LIG    1       24.107 -19.943   4.143  0.00  0.00    +0.203 A 
ATOM      8  C   LIG    1       24.962 -18.862   3.803  0.00  0.00    +0.166 A 
ATOM      9  C   LIG    1       24.487 -17.548   3.869  0.00  0.00    +0.064 A 
BRANCH   6  10
ATOM     10  O   LIG    1       21.980 -20.715   4.932  0.00  0.00    -0.491 OA
ATOM     11  C   LIG    1       22.367 -21.423   6.106  0.00  0.00    +0.277 C 
ENDBRANCH   6  10
BRANCH   7  12
ATOM     12  O   LIG    1       24.712 -21.177   4.167  0.00  0.00    -0.488 OA
ATOM     13  C   LIG    1       25.471 -21.563   5.306  0.00  0.00    +0.277 C 
ENDBRANCH   7  12
BRANCH   8  14
ATOM     14  O   LIG    1       26.278 -19.141   3.503  0.00  0.00    -0.491 OA
ATOM     15  C   LIG    1       27.251 -18.240   4.033  0.00  0.00    +0.277 C 
ENDBRANCH   8  14
ENDBRANCH   2   4
ENDBRANCH   1   2
BRANCH   1  16
ATOM     16  C   LIG    1       23.105 -13.605   3.974  0.00  0.00    +0.259 C 
BRANCH  16  17
ATOM     17  C   LIG    1       24.376 -12.676   3.720  0.00  0.00    +0.081 C 
BRANCH  17  18
ATOM     18  C   LIG    1       25.721 -13.447   4.041  0.00  0.00    -0.024 A 
ATOM     19  C   LIG    1       26.306 -14.329   3.113  0.00  0.00    +0.005 A 
ATOM     20  C   LIG    1       27.505 -15.014   3.386  0.00  0.00    +0.000 A 
ATOM     21  C   LIG    1       28.171 -14.831   4.592  0.00  0.00    +0.000 A 
ATOM     22  C   LIG    1       27.633 -13.966   5.527  0.00  0.00    +0.000 A 
ATOM     23  C   LIG    1       26.435 -13.290   5.250  0.00  0.00    +0.005 A 
ENDBRANCH  17  18
BRANCH  17  24
ATOM     24  N   LIG    1       24.338 -12.177   2.286  0.00  0.00    -0.296 NA
ATOM     25  C   LIG    1       25.525 -11.453   1.813  0.00  0.00    +0.105 C 
ATOM     26  C   LIG    1       23.127 -11.452   1.887  0.00  0.00    +0.105 C 
ENDBRANCH  17  24
BRANCH  17  28
ATOM     27  C   LIG    1       23.129 -11.448   5.754  0.00  0.00    +0.006 C 
ATOM     28  C   LIG    1       24.257 -11.448   4.719  0.00  0.00    +0.027 C 
ENDBRANCH  17  28
ENDBRANCH  16  17
ENDBRANCH   1  16
TORSDOF 10
ENDMDL
MODEL 3
REMARK VINA RESULT:      -0.5      1.500      4.172
REMARK  Name = *****
REMARK                            x       y       z     vdW  Elec       q    Type
REMARK                         _______ _______ _______ _____ _____    ______ ____
ROOT
ATOM      1  O   LIG    1       22.646 -16.383   3.999  0.00  0.00    -0.459 OA
ENDROOT
BRANCH   1   2
ATOM      2  C   LIG    1       22.370 -17.671   3.874  0.00  0.00    +0.340 C 
ATOM      3  O   LIG    1       21.286 -18.121   3.552  0.00  0.00    -0.245 OA
BRANCH   2   4
ATOM      4  C   LIG    1       23.530 -18.538   4.116  0.00  0.00    +0.066 A 
ATOM      5  C   LIG    1       23.358 -19.710   4.853  0.00  0.00    +0.064 A 
ATOM      6  C   LIG    1       24.453 -20.479   5.265  0.00  0.00    +0.166 A 
ATOM      7  C   LIG    1       25.757 -20.085   4.886  0.00  0.00    +0.203 A 
ATOM      8  C   LIG    1       25.927 -18.926   4.087  0.00  0.00    +0.166 A 
ATOM      9  C   LIG    1       24.816 -18.161   3.718  0.00  0.00    +0.064 A 
BRANCH   6  10
ATOM     10  O   LIG    1       24.305 -21.535   6.124  0.00  0.00    -0.491 OA
ATOM     11  C   LIG    1       23.232 -21.508   7.061  0.00  0.00    +0.277 C 
ENDBRANCH   6  10
BRANCH   7  12
ATOM     12  O   LIG    1       26.923 -20.687   5.295  0.00  0.00    -0.488 OA
ATOM     13  C   LIG    1       27.497 -20.326   6.545  0.00  0.00    +0.277 C 
ENDBRANCH   7  12
BRANCH   8  14
ATOM     14  O   LIG    1       27.212 -18.535   3.771  0.00  0.00    -0.491 OA
ATOM     15  C   LIG    1       27.692 -17.359   4.424  0.00  0.00    +0.277 C 
ENDBRANCH   8  14
ENDBRANCH   2   4
ENDBRANCH   1   2
BRANCH   1  16
ATOM     16  C   LIG    1       23.984 -15.899   3.740  0.00  0.00    +0.259 C 
BRANCH  16  17
ATOM     17  C   LIG    1       24.234 -14.390   4.191  0.00  0.00    +0.081 C 
BRANCH  17  18
ATOM     18  C   LIG    1       25.775 -14.029   4.151  0.00  0.00    -0.024 A 
ATOM     19  C   LIG    1       26.450 -13.547   5.289  0.00  0.00    +0.005 A 
ATOM     20  C   LIG    1       27.821 -13.230   5.267  0.00  0.00    +0.000 A 
ATOM     21  C   LIG    1       28.571 -13.397   4.109  0.00  0.00    +0.000 A 
ATOM     22  C   LIG    1       27.947 -13.877   2.972  0.00  0.00    +0.000 A 
ATOM     23  C   LIG    1       26.579 -14.186   3.000  0.00  0.00    +0.005 A 
ENDBRANCH  17  18
BRANCH  17  24
ATOM     24  N   LIG    1       23.414 -13.472   3.301  0.00  0.00    -0.296 NA
ATOM     25  C   LIG    1       23.590 -13.638   1.852  0.00  0.00    +0.105 C 
ATOM     26  C   LIG    1       23.446 -12.045   3.641  0.00  0.00    +0.105 C 
ENDBRANCH  17  24
BRANCH  17  28
ATOM     27  C   LIG    1       22.301 -14.686   6.029  0.00  0.00    +0.006 C 
ATOM     28  C   LIG    1       23.735 -14.268   5.693  0.00  0.00    +0.027 C 
ENDBRANCH  17  28
ENDBRANCH  16  17
ENDBRANCH   1  16
TORSDOF 10
ENDMDL
MODEL 4
REMARK VINA RESULT:       0.4      2.422      6.865
REMARK  Name = *****
REMARK                            x       y       z     vdW  Elec       q    Type
REMARK                         _______ _______ _______ _____ _____    ______ ____
ROOT
ATOM      1  O   LIG    1       25.789 -18.526   4.041  0.00  0.00    -0.459 OA
ENDROOT
BRANCH   1   2
ATOM      2  C   LIG    1       26.785 -17.657   3.962  0.00  0.00    +0.340 C 
ATOM      3  O   LIG    1       27.963 -17.939   4.075  0.00  0.00    -0.245 OA
BRANCH   2   4
ATOM      4  C   LIG    1       26.338 -16.290   3.668  0.00  0.00    +0.066 A 
ATOM      5  C   LIG    1       27.277 -15.343   3.258  0.00  0.00    +0.064 A 
ATOM      6  C   LIG    1       26.942 -13.990   3.137  0.00  0.00    +0.166 A 
ATOM      7  C   LIG    1       25.613 -13.580   3.392  0.00  0.00    +0.203 A 
ATOM      8  C   LIG    1       24.644 -14.552   3.752  0.00  0.00    +0.166 A 
ATOM      9  C   LIG    1       25.017 -15.892   3.895  0.00  0.00    +0.064 A 
BRANCH   6  10
ATOM     10  O   LIG    1       27.893 -13.034   2.896  0.00  0.00    -0.491 OA
ATOM     11  C   LIG    1       28.736 -12.623   3.970  0.00  0.00    +0.277 C 
ENDBRANCH   6  10
BRANCH   7  12
ATOM     12  O   LIG    1       25.167 -12.280   3.404  0.00  0.00    -0.488 OA
ATOM     13  C   LIG    1       24.500 -11.757   2.262  0.00  0.00    +0.277 C 
ENDBRANCH   7  12
BRANCH   8  14
ATOM     14  O   LIG    1       23.366 -14.121   4.042  0.00  0.00    -0.491 OA
ATOM     15  C   LIG    1       22.658 -14.869   5.032  0.00  0.00    +0.277 C 
ENDBRANCH   8  14
ENDBRANCH   2   4
ENDBRANCH   1   2
BRANCH   1  16
ATOM     16  C   LIG    1       25.252 -18.898   5.331  0.00  0.00    +0.259 C 
BRANCH  16  17
ATOM     17  C   LIG    1       24.183 -20.080   5.279  0.00  0.00    +0.081 C 
BRANCH  17  18
ATOM     18  C   LIG    1       22.817 -19.587   4.649  0.00  0.00    -0.024 A 
ATOM     19  C   LIG    1       22.641 -18.261   4.212  0.00  0.00    +0.005 A 
ATOM     20  C   LIG    1       21.433 -17.814   3.644  0.00  0.00    +0.000 A 
ATOM     21  C   LIG    1       20.360 -18.682   3.480  0.00  0.00    +0.000 A 
ATOM     22  C   LIG    1       20.496 -19.997   3.889  0.00  0.00    +0.000 A 
ATOM     23  C   LIG    1       21.701 -20.433   4.459  0.00  0.00    +0.005 A 
ENDBRANCH  17  18
BRANCH  17  24
ATOM     24  N   LIG    1       24.777 -21.243   4.505  0.00  0.00    -0.296 NA
ATOM     25  C   LIG    1       26.191 -21.547   4.762  0.00  0.00    +0.105 C 
ATOM     26  C   LIG    1       24.528 -21.250   3.058  0.00  0.00    +0.105 C 
ENDBRANCH  17  24
BRANCH  17  28
ATOM     27  C   LIG    1       22.829 -21.570   7.053  0.00  0.00    +0.006 C 
ATOM     28  C   LIG    1       23.907 -20.519   6.780  0.00  0.00    +0.027 C 
ENDBRANCH  17  28
ENDBRANCH  16  17
ENDBRANCH   1  16
TORSDOF 10
ENDMDL
MODEL 5
REMARK VINA RESULT:       1.2      2.465      6.949
REMARK  Name = *****
REMARK                            x       y       z     vdW  Elec       q    Type
REMARK                         _______ _______ _______ _____ _____    ______ ____
ROOT
ATOM      1  O   LIG    1       25.190 -18.262   3.889  0.00  0.00    -0.459 OA
ENDROOT
BRANCH   1   2
ATOM      2  C   LIG    1       26.311 -17.616   3.606  0.00  0.00    +0.340 C 
ATOM      3  O   LIG    1       27.368 -18.150   3.326  0.00  0.00    -0.245 OA
BRANCH   2   4
ATOM      4  C   LIG    1       26.155 -16.157   3.613  0.00  0.00    +0.066 A 
ATOM      5  C   LIG    1       24.890 -15.610   3.833  0.00  0.00    +0.064 A 
ATOM      6  C   LIG    1       24.649 -14.241   3.674  0.00  0.00    +0.166 A 
ATOM      7  C   LIG    1       25.720 -13.386   3.328  0.00  0.00    +0.203 A 
ATOM      8  C   LIG    1       27.019 -13.932   3.161  0.00  0.00    +0.166 A 
ATOM      9  C   LIG    1       27.221 -15.309   3.296  0.00  0.00    +0.064 A 
BRANCH   6  10
ATOM     10  O   LIG    1       23.382 -13.725   3.727  0.00  0.00    -0.491 OA
ATOM     11  C   LIG    1       23.174 -12.496   4.418  0.00  0.00    +0.277 C 
ENDBRANCH   6  10
BRANCH   7  12
ATOM     12  O   LIG    1       25.612 -12.045   3.048  0.00  0.00    -0.488 OA
ATOM     13  C   LIG    1       24.919 -11.626   1.878  0.00  0.00    +0.277 C 
ENDBRANCH   7  12
BRANCH   8  14
ATOM     14  O   LIG    1       28.038 -13.086   2.776  0.00  0.00    -0.491 OA
ATOM     15  C   LIG    1       29.130 -12.959   3.687  0.00  0.00    +0.277 C 
ENDBRANCH   8  14
ENDBRANCH   2   4
ENDBRANCH   1   2
BRANCH   1  16
ATOM     16  C   LIG    1       25.016 -18.881   5.184  0.00  0.00    +0.259 C 
BRANCH  16  17
ATOM     17  C   LIG    1       23.952 -20.069   5.205  0.00  0.00    +0.081 C 
BRANCH  17  18
ATOM     18  C   LIG    1       22.565 -19.604   4.601  0.00  0.00    -0.024 A 
ATOM     19  C   LIG    1       21.522 -20.518   4.358  0.00  0.00    +0.005 A 
ATOM     20  C   LIG    1       20.282 -20.115   3.828  0.00  0.00    +0.000 A 
ATOM     21  C   LIG    1       20.034 -18.779   3.534  0.00  0.00    +0.000 A 
ATOM     22  C   LIG    1       21.031 -17.848   3.766  0.00  0.00    +0.000 A 
ATOM     23  C   LIG    1       22.265 -18.259   4.290  0.00  0.00    +0.005 A 
ENDBRANCH  17  18
BRANCH  17  24
ATOM     24  N   LIG    1       24.529 -21.254   4.452  0.00  0.00    -0.296 NA
ATOM     25  C   LIG    1       25.939 -21.571   4.711  0.00  0.00    +0.105 C 
ATOM     26  C   LIG    1       24.275 -21.287   3.007  0.00  0.00    +0.105 C 
ENDBRANCH  17  24
BRANCH  17  28
ATOM     27  C   LIG    1       22.729 -21.571   7.061  0.00  0.00    +0.006 C 
ATOM     28  C   LIG    1       23.725 -20.458   6.727  0.00  0.00    +0.027 C 
ENDBRANCH  17  28
ENDBRANCH  16  17
ENDBRANCH   1  16
TORSDOF 10
ENDMDL
