MODEL 1
REMARK VINA RESULT:      -3.4      0.000      0.000
REMARK  Name = *****
REMARK                            x       y       z     vdW  Elec       q    Type
REMARK                         _______ _______ _______ _____ _____    ______ ____
ROOT
ATOM      1  C   LIG    1       24.960 -17.660   3.504  0.00  0.00    +0.165 C 
ENDROOT
BRANCH   1   4
ATOM      2  C   LIG    1       26.366 -14.061   3.102  0.00  0.00    +0.162 C 
ATOM      3  N   LIG    1       25.527 -15.200   3.511  0.00  0.00    -0.288 N 
ATOM      4  C   LIG    1       25.994 -16.501   3.450  0.00  0.00    +0.237 C 
ATOM      5  O   LIG    1       27.195 -16.743   3.280  0.00  0.00    -0.274 OA
ATOM      6  C   LIG    1       24.135 -14.795   3.636  0.00  0.00    +0.109 C 
ATOM      7  C   LIG    1       24.184 -13.278   3.696  0.00  0.00    +0.021 C 
ATOM      8  C   LIG    1       25.345 -12.967   2.757  0.00  0.00    +0.033 C 
BRANCH   2  12
ATOM      9  N   LIG    1       28.522 -12.958   3.659  0.00  0.00    -0.328 N 
ATOM     10  H   LIG    1       28.566 -12.638   2.693  0.00  0.00    +0.145 HD
ATOM     11  H   LIG    1       29.098 -12.480   4.338  0.00  0.00    +0.145 HD
ATOM     12  C   LIG    1       27.372 -13.512   4.134  0.00  0.00    +0.231 C 
ATOM     13  O   LIG    1       27.189 -13.610   5.347  0.00  0.00    -0.274 OA
ENDBRANCH   2  12
ENDBRANCH   1   4
BRANCH   1  14
ATOM     14  N   LIG    1       25.570 -18.753   4.298  0.00  0.00    -0.302 N 
ATOM     15  H   LIG    1       26.279 -18.471   4.972  0.00  0.00    +0.149 HD
ATOM     16  C   LIG    1       25.471 -20.076   3.916  0.00  0.00    +0.234 C 
ATOM     17  O   LIG    1       24.689 -20.450   3.049  0.00  0.00    -0.274 OA
BRANCH  16  18
ATOM     18  C   LIG    1       26.350 -21.060   4.734  0.00  0.00    +0.159 C 
ATOM     19  N   LIG    1       27.580 -20.445   5.121  0.00  0.00    -0.304 N 
ATOM     20  H   LIG    1       28.351 -20.187   4.529  0.00  0.00    +0.149 HD
ATOM     21  C   LIG    1       27.541 -19.948   6.414  0.00  0.00    +0.214 C 
ATOM     22  O   LIG    1       28.432 -19.263   6.940  0.00  0.00    -0.276 OA
ATOM     23  C   LIG    1       26.237 -20.392   7.061  0.00  0.00    +0.098 C 
ATOM     24  C   LIG    1       25.707 -21.430   6.075  0.00  0.00    +0.041 C 
ENDBRANCH  16  18
ENDBRANCH   1  14
BRANCH   1  25
ATOM     25  C   LIG    1       23.647 -17.215   4.150  0.00  0.00    +0.088 C 
BRANCH  25  26
ATOM     26  C   LIG    1       22.668 -18.321   4.340  0.00  0.00    +0.061 A 
ATOM     27  N   LIG    1       22.888 -19.302   5.280  0.00  0.00    -0.241 NA
ATOM     28  C   LIG    1       21.879 -20.134   5.166  0.00  0.00    +0.196 A 
ATOM     29  N   LIG    1       21.005 -19.729   4.197  0.00  0.00    -0.351 N 
ATOM     30  H   LIG    1       20.159 -20.210   3.924  0.00  0.00    +0.166 HD
ATOM     31  C   LIG    1       21.495 -18.571   3.660  0.00  0.00    +0.107 A 
ENDBRANCH  25  26
ENDBRANCH   1  25
TORSDOF 6
ENDMDL
MODEL 2
REMARK VINA RESULT:      -2.7      2.381      7.289
REMARK  Name = *****
REMARK                            x       y       z     vdW  Elec       q    Type
REMARK                         _______ _______ _______ _____ _____    ______ ____
ROOT
ATOM      1  C   LIG    1       26.912 -16.404   3.429  0.00  0.00    +0.165 C 
ENDROOT
BRANCH   1   4
ATOM      2  C   LIG    1       27.124 -19.990   4.908  0.00  0.00    +0.162 C 
ATOM      3  N   LIG    1       27.267 -18.534   4.736  0.00  0.00    -0.288 N 
ATOM      4  C   LIG    1       26.461 -17.827   3.862  0.00  0.00    +0.237 C 
ATOM      5  O   LIG    1       25.446 -18.335   3.372  0.00  0.00    -0.274 OA
ATOM      6  C   LIG    1       28.517 -18.067   5.317  0.00  0.00    +0.109 C 
ATOM      7  C   LIG    1       28.963 -19.203   6.222  0.00  0.00    +0.021 C 
ATOM      8  C   LIG    1       28.498 -20.425   5.438  0.00  0.00    +0.033 C 
BRANCH   2  12
ATOM      9  N   LIG    1       24.767 -20.630   5.366  0.00  0.00    -0.328 N 
ATOM     10  H   LIG    1       24.633 -20.714   4.360  0.00  0.00    +0.145 HD
ATOM     11  H   LIG    1       24.098 -21.090   5.968  0.00  0.00    +0.145 HD
ATOM     12  C   LIG    1       26.025 -20.488   5.869  0.00  0.00    +0.231 C 
ATOM     13  O   LIG    1       26.242 -20.701   7.060  0.00  0.00    -0.274 OA
ENDBRANCH   2  12
ENDBRANCH   1   4
BRANCH   1  14
ATOM     14  N   LIG    1       25.733 -15.514   3.555  0.00  0.00    -0.302 N 
ATOM     15  H   LIG    1       24.993 -15.840   4.174  0.00  0.00    +0.149 HD
ATOM     16  C   LIG    1       25.472 -14.514   2.639  0.00  0.00    +0.234 C 
ATOM     17  O   LIG    1       26.304 -14.145   1.818  0.00  0.00    -0.274 OA
BRANCH  16  18
ATOM     18  C   LIG    1       24.088 -13.829   2.795  0.00  0.00    +0.159 C 
ATOM     19  N   LIG    1       23.860 -13.445   4.153  0.00  0.00    -0.304 N 
ATOM     20  H   LIG    1       23.695 -14.045   4.943  0.00  0.00    +0.149 HD
ATOM     21  C   LIG    1       24.159 -12.112   4.384  0.00  0.00    +0.214 C 
ATOM     22  O   LIG    1       24.166 -11.567   5.499  0.00  0.00    -0.276 OA
ATOM     23  C   LIG    1       24.466 -11.449   3.049  0.00  0.00    +0.098 C 
ATOM     24  C   LIG    1       24.013 -12.500   2.039  0.00  0.00    +0.041 C 
ENDBRANCH  16  18
ENDBRANCH   1  14
BRANCH   1  25
ATOM     25  C   LIG    1       28.054 -15.883   4.305  0.00  0.00    +0.088 C 
BRANCH  25  26
ATOM     26  C   LIG    1       27.953 -14.431   4.616  0.00  0.00    +0.061 A 
ATOM     27  N   LIG    1       28.649 -13.502   3.875  0.00  0.00    -0.241 NA
ATOM     28  C   LIG    1       28.381 -12.340   4.423  0.00  0.00    +0.196 A 
ATOM     29  N   LIG    1       27.532 -12.471   5.484  0.00  0.00    -0.351 N 
ATOM     30  H   LIG    1       27.190 -11.719   6.066  0.00  0.00    +0.166 HD
ATOM     31  C   LIG    1       27.248 -13.802   5.620  0.00  0.00    +0.107 A 
ENDBRANCH  25  26
ENDBRANCH   1  25
TORSDOF 6
ENDMDL
MODEL 3
REMARK VINA RESULT:      -1.4      1.871      4.018
REMARK  Name = *****
REMARK                            x       y       z     vdW  Elec       q    Type
REMARK                         _______ _______ _______ _____ _____    ______ ____
ROOT
ATOM      1  C   LIG    1       26.280 -17.376   4.306  0.00  0.00    +0.165 C 
ENDROOT
BRANCH   1   4
ATOM      2  C   LIG    1       25.265 -14.055   2.565  0.00  0.00    +0.162 C 
ATOM      3  N   LIG    1       25.478 -15.093   3.588  0.00  0.00    -0.288 N 
ATOM      4  C   LIG    1       26.386 -16.119   3.399  0.00  0.00    +0.237 C 
ATOM      5  O   LIG    1       27.218 -16.079   2.484  0.00  0.00    -0.274 OA
ATOM      6  C   LIG    1       24.415 -15.063   4.580  0.00  0.00    +0.109 C 
ATOM      7  C   LIG    1       23.749 -13.711   4.384  0.00  0.00    +0.021 C 
ATOM      8  C   LIG    1       23.856 -13.529   2.874  0.00  0.00    +0.033 C 
BRANCH   2  12
ATOM      9  N   LIG    1       27.518 -13.099   2.991  0.00  0.00    -0.328 N 
ATOM     10  H   LIG    1       27.873 -14.052   3.042  0.00  0.00    +0.145 HD
ATOM     11  H   LIG    1       28.187 -12.357   2.830  0.00  0.00    +0.145 HD
ATOM     12  C   LIG    1       26.255 -12.873   2.533  0.00  0.00    +0.231 C 
ATOM     13  O   LIG    1       25.923 -11.747   2.167  0.00  0.00    -0.274 OA
ENDBRANCH   2  12
ENDBRANCH   1   4
BRANCH   1  14
ATOM     14  N   LIG    1       24.976 -18.018   4.013  0.00  0.00    -0.302 N 
ATOM     15  H   LIG    1       24.166 -17.613   4.477  0.00  0.00    +0.149 HD
ATOM     16  C   LIG    1       24.893 -19.280   3.459  0.00  0.00    +0.234 C 
ATOM     17  O   LIG    1       25.862 -19.843   2.962  0.00  0.00    -0.274 OA
BRANCH  16  18
ATOM     18  C   LIG    1       23.463 -19.886   3.425  0.00  0.00    +0.159 C 
ATOM     19  N   LIG    1       23.381 -21.046   4.256  0.00  0.00    -0.304 N 
ATOM     20  H   LIG    1       23.807 -21.944   4.101  0.00  0.00    +0.149 HD
ATOM     21  C   LIG    1       22.859 -20.767   5.508  0.00  0.00    +0.214 C 
ATOM     22  O   LIG    1       22.801 -21.571   6.451  0.00  0.00    -0.276 OA
ATOM     23  C   LIG    1       22.373 -19.324   5.516  0.00  0.00    +0.098 C 
ATOM     24  C   LIG    1       22.423 -18.943   4.038  0.00  0.00    +0.041 C 
ENDBRANCH  16  18
ENDBRANCH   1  14
BRANCH   1  25
ATOM     25  C   LIG    1       27.419 -18.362   4.040  0.00  0.00    +0.088 C 
BRANCH  25  26
ATOM     26  C   LIG    1       28.001 -18.951   5.277  0.00  0.00    +0.061 A 
ATOM     27  N   LIG    1       29.231 -18.540   5.741  0.00  0.00    -0.241 NA
ATOM     28  C   LIG    1       29.469 -19.271   6.805  0.00  0.00    +0.196 A 
ATOM     29  N   LIG    1       28.441 -20.132   7.061  0.00  0.00    -0.351 N 
ATOM     30  H   LIG    1       28.400 -20.797   7.821  0.00  0.00    +0.166 HD
ATOM     31  C   LIG    1       27.493 -19.939   6.093  0.00  0.00    +0.107 A 
ENDBRANCH  25  26
ENDBRANCH   1  25
TORSDOF 6
ENDMDL
MODEL 4
REMARK VINA RESULT:      -1.0      1.824      6.504
REMARK  Name = *****
REMARK                            x       y       z     vdW  Elec       q    Type
REMARK                         _______ _______ _______ _____ _____    ______ ____
ROOT
ATOM      1  C   LIG    1       26.737 -18.630   3.704  0.00  0.00    +0.165 C 
ENDROOT
BRANCH   1   4
ATOM      2  C   LIG    1       23.291 -19.967   4.899  0.00  0.00    +0.162 C 
ATOM      3  N   LIG    1       24.326 -19.175   4.212  0.00  0.00    -0.288 N 
ATOM      4  C   LIG    1       25.617 -19.646   4.065  0.00  0.00    +0.237 C 
ATOM      5  O   LIG    1       25.897 -20.830   4.286  0.00  0.00    -0.274 OA
ATOM      6  C   LIG    1       23.893 -17.795   4.049  0.00  0.00    +0.109 C 
ATOM      7  C   LIG    1       22.392 -17.837   4.283  0.00  0.00    +0.021 C 
ATOM      8  C   LIG    1       22.275 -18.911   5.358  0.00  0.00    +0.033 C 
BRANCH   2  12
ATOM      9  N   LIG    1       23.218 -21.569   3.001  0.00  0.00    -0.328 N 
ATOM     10  H   LIG    1       24.231 -21.484   2.938  0.00  0.00    +0.145 HD
ATOM     11  H   LIG    1       22.787 -22.373   2.565  0.00  0.00    +0.145 HD
ATOM     12  C   LIG    1       22.564 -21.051   4.078  0.00  0.00    +0.231 C 
ATOM     13  O   LIG    1       21.416 -21.410   4.334  0.00  0.00    -0.274 OA
ENDBRANCH   2  12
ENDBRANCH   1   4
BRANCH   1  14
ATOM     14  N   LIG    1       26.070 -17.372   3.291  0.00  0.00    -0.302 N 
ATOM     15  H   LIG    1       25.267 -17.476   2.673  0.00  0.00    +0.149 HD
ATOM     16  C   LIG    1       26.687 -16.144   3.416  0.00  0.00    +0.234 C 
ATOM     17  O   LIG    1       27.704 -15.987   4.083  0.00  0.00    -0.274 OA
BRANCH  16  18
ATOM     18  C   LIG    1       25.942 -14.965   2.734  0.00  0.00    +0.159 C 
ATOM     19  N   LIG    1       25.016 -14.357   3.637  0.00  0.00    -0.304 N 
ATOM     20  H   LIG    1       24.158 -14.744   3.992  0.00  0.00    +0.149 HD
ATOM     21  C   LIG    1       25.533 -13.224   4.244  0.00  0.00    +0.214 C 
ATOM     22  O   LIG    1       24.980 -12.590   5.156  0.00  0.00    -0.276 OA
ATOM     23  C   LIG    1       26.874 -12.901   3.599  0.00  0.00    +0.098 C 
ATOM     24  C   LIG    1       26.887 -13.814   2.376  0.00  0.00    +0.041 C 
ENDBRANCH  16  18
ENDBRANCH   1  14
BRANCH   1  25
ATOM     25  C   LIG    1       27.661 -18.364   4.894  0.00  0.00    +0.088 C 
BRANCH  25  26
ATOM     26  C   LIG    1       27.984 -19.584   5.684  0.00  0.00    +0.061 A 
ATOM     27  N   LIG    1       27.026 -20.191   6.465  0.00  0.00    -0.241 NA
ATOM     28  C   LIG    1       27.634 -21.196   7.053  0.00  0.00    +0.196 A 
ATOM     29  N   LIG    1       28.944 -21.275   6.679  0.00  0.00    -0.351 N 
ATOM     30  H   LIG    1       29.613 -21.960   7.003  0.00  0.00    +0.166 HD
ATOM     31  C   LIG    1       29.184 -20.252   5.803  0.00  0.00    +0.107 A 
ENDBRANCH  25  26
ENDBRANCH   1  25
TORSDOF 6
ENDMDL
MODEL 5
REMARK VINA RESULT:      -0.7      1.741      6.070
REMARK  Name = *****
REMARK                            x       y       z     vdW  Elec       q    Type
REMARK                         _______ _______ _______ _____ _____    ______ ____
ROOT
ATOM      1  C   LIG    1       26.073 -17.784   3.401  0.00  0.00    +0.165 C 
ENDROOT
BRANCH   1   4
ATOM      2  C   LIG    1       27.317 -19.985   6.351  0.00  0.00    +0.162 C 
ATOM      3  N   LIG    1       26.682 -19.555   5.093  0.00  0.00    -0.288 N 
ATOM      4  C   LIG    1       27.033 -18.369   4.474  0.00  0.00    +0.237 C 
ATOM      5  O   LIG    1       28.045 -17.744   4.814  0.00  0.00    -0.274 OA
ATOM      6  C   LIG    1       25.484 -20.338   4.829  0.00  0.00    +0.109 C 
ATOM      7  C   LIG    1       25.610 -21.547   5.740  0.00  0.00    +0.021 C 
ATOM      8  C   LIG    1       26.286 -20.942   6.966  0.00  0.00    +0.033 C 
BRANCH   2  12
ATOM      9  N   LIG    1       29.474 -20.394   5.187  0.00  0.00    -0.328 N 
ATOM     10  H   LIG    1       29.322 -19.525   4.678  0.00  0.00    +0.145 HD
ATOM     11  H   LIG    1       30.416 -20.762   5.216  0.00  0.00    +0.145 HD
ATOM     12  C   LIG    1       28.680 -20.699   6.252  0.00  0.00    +0.231 C 
ATOM     13  O   LIG    1       29.033 -21.556   7.060  0.00  0.00    -0.274 OA
ENDBRANCH   2  12
ENDBRANCH   1   4
BRANCH   1  14
ATOM     14  N   LIG    1       24.738 -17.656   4.032  0.00  0.00    -0.302 N 
ATOM     15  H   LIG    1       24.698 -17.094   4.881  0.00  0.00    +0.149 HD
ATOM     16  C   LIG    1       23.701 -18.515   3.727  0.00  0.00    +0.234 C 
ATOM     17  O   LIG    1       23.738 -19.270   2.761  0.00  0.00    -0.274 OA
BRANCH  16  18
ATOM     18  C   LIG    1       22.450 -18.378   4.636  0.00  0.00    +0.159 C 
ATOM     19  N   LIG    1       21.348 -17.832   3.908  0.00  0.00    -0.304 N 
ATOM     20  H   LIG    1       21.245 -16.894   3.561  0.00  0.00    +0.149 HD
ATOM     21  C   LIG    1       20.479 -18.808   3.448  0.00  0.00    +0.214 C 
ATOM     22  O   LIG    1       19.519 -18.607   2.689  0.00  0.00    -0.276 OA
ATOM     23  C   LIG    1       20.904 -20.147   4.036  0.00  0.00    +0.098 C 
ATOM     24  C   LIG    1       21.922 -19.740   5.099  0.00  0.00    +0.041 C 
ENDBRANCH  16  18
ENDBRANCH   1  14
BRANCH   1  25
ATOM     25  C   LIG    1       26.549 -16.418   2.904  0.00  0.00    +0.088 C 
BRANCH  25  26
ATOM     26  C   LIG    1       25.960 -15.272   3.650  0.00  0.00    +0.061 A 
ATOM     27  N   LIG    1       24.657 -14.884   3.430  0.00  0.00    -0.241 NA
ATOM     28  C   LIG    1       24.465 -13.838   4.200  0.00  0.00    +0.196 A 
ATOM     29  N   LIG    1       25.585 -13.536   4.921  0.00  0.00    -0.351 N 
ATOM     30  H   LIG    1       25.680 -12.771   5.575  0.00  0.00    +0.166 HD
ATOM     31  C   LIG    1       26.550 -14.444   4.582  0.00  0.00    +0.107 A 
ENDBRANCH  25  26
ENDBRANCH   1  25
TORSDOF 6
ENDMDL
MODEL 6
REMARK VINA RESULT:      -0.6      2.325      6.981
REMARK  Name = *****
REMARK                            x       y       z     vdW  Elec       q    Type
REMARK                         _______ _______ _______ _____ _____    ______ ____
ROOT
ATOM      1  C   LIG    1       26.991 -16.205   3.361  0.00  0.00    +0.165 C 
ENDROOT
BRANCH   1   4
ATOM      2  C   LIG    1       27.246 -19.776   4.869  0.00  0.00    +0.162 C 
ATOM      3  N   LIG    1       27.362 -18.318   4.690  0.00  0.00    -0.288 N 
ATOM      4  C   LIG    1       26.561 -17.634   3.794  0.00  0.00    +0.237 C 
ATOM      5  O   LIG    1       25.566 -18.166   3.288  0.00  0.00    -0.274 OA
ATOM      6  C   LIG    1       28.590 -17.822   5.292  0.00  0.00    +0.109 C 
ATOM      7  C   LIG    1       29.041 -18.943   6.214  0.00  0.00    +0.021 C 
ATOM      8  C   LIG    1       28.618 -20.180   5.430  0.00  0.00    +0.033 C 
BRANCH   2  12
ATOM      9  N   LIG    1       24.915 -20.540   5.265  0.00  0.00    -0.328 N 
ATOM     10  H   LIG    1       24.832 -20.687   4.261  0.00  0.00    +0.145 HD
ATOM     11  H   LIG    1       24.249 -21.008   5.865  0.00  0.00    +0.145 HD
ATOM     12  C   LIG    1       26.139 -20.290   5.811  0.00  0.00    +0.231 C 
ATOM     13  O   LIG    1       26.314 -20.424   7.020  0.00  0.00    -0.274 OA
ENDBRANCH   2  12
ENDBRANCH   1   4
BRANCH   1  14
ATOM     14  N   LIG    1       25.848 -15.302   3.637  0.00  0.00    -0.302 N 
ATOM     15  H   LIG    1       25.202 -15.610   4.361  0.00  0.00    +0.149 HD
ATOM     16  C   LIG    1       25.468 -14.314   2.751  0.00  0.00    +0.234 C 
ATOM     17  O   LIG    1       26.178 -13.966   1.814  0.00  0.00    -0.274 OA
BRANCH  16  18
ATOM     18  C   LIG    1       24.125 -13.612   3.090  0.00  0.00    +0.159 C 
ATOM     19  N   LIG    1       23.117 -14.571   3.417  0.00  0.00    -0.304 N 
ATOM     20  H   LIG    1       22.665 -15.222   2.799  0.00  0.00    +0.149 HD
ATOM     21  C   LIG    1       22.973 -14.745   4.784  0.00  0.00    +0.214 C 
ATOM     22  O   LIG    1       22.258 -15.605   5.321  0.00  0.00    -0.276 OA
ATOM     23  C   LIG    1       23.830 -13.706   5.494  0.00  0.00    +0.098 C 
ATOM     24  C   LIG    1       24.223 -12.762   4.361  0.00  0.00    +0.041 C 
ENDBRANCH  16  18
ENDBRANCH   1  14
BRANCH   1  25
ATOM     25  C   LIG    1       28.227 -15.731   4.128  0.00  0.00    +0.088 C 
BRANCH  25  26
ATOM     26  C   LIG    1       28.249 -14.264   4.380  0.00  0.00    +0.061 A 
ATOM     27  N   LIG    1       27.522 -13.716   5.413  0.00  0.00    -0.241 NA
ATOM     28  C   LIG    1       27.720 -12.421   5.337  0.00  0.00    +0.196 A 
ATOM     29  N   LIG    1       28.555 -12.103   4.304  0.00  0.00    -0.351 N 
ATOM     30  H   LIG    1       28.848 -11.171   4.044  0.00  0.00    +0.166 HD
ATOM     31  C   LIG    1       28.903 -13.270   3.682  0.00  0.00    +0.107 A 
ENDBRANCH  25  26
ENDBRANCH   1  25
TORSDOF 6
ENDMDL
