MODEL 1
REMARK VINA RESULT:      35.8      0.000      0.000
REMARK  Name = *****
REMARK                            x       y       z     vdW  Elec       q    Type
REMARK                         _______ _______ _______ _____ _____    ______ ____
ROOT
ATOM      1  C   LIG    1       22.437 -19.180   3.361  0.00  0.00    +0.009 A 
ATOM      2  C   LIG    1       21.330 -18.572   3.963  0.00  0.00    +0.125 A 
ATOM      3  C   LIG    1       21.441 -17.307   4.534  0.00  0.00    +0.092 A 
ATOM      4  C   LIG    1       22.679 -16.659   4.554  0.00  0.00    +0.140 A 
ATOM      5  O   LIG    1       22.691 -15.455   5.196  0.00  0.00    -0.455 OA
ATOM      6  C   LIG    1       23.804 -14.672   5.075  0.00  0.00    +0.140 A 
ATOM      7  C   LIG    1       24.978 -15.046   4.421  0.00  0.00    +0.048 A 
ATOM      8  C   LIG    1       25.153 -16.506   4.036  0.00  0.00    +0.196 C 
ATOM      9  C   LIG    1       26.169 -17.143   4.929  0.00  0.00    +0.019 A 
ATOM     10  C   LIG    1       27.261 -17.540   4.176  0.00  0.00    +0.067 A 
ATOM     11  C   LIG    1       28.380 -18.165   4.724  0.00  0.00    +0.015 A 
ATOM     12  C   LIG    1       28.396 -18.371   6.101  0.00  0.00    +0.001 A 
ATOM     13  C   LIG    1       27.314 -17.954   6.891  0.00  0.00    +0.001 A 
ATOM     14  C   LIG    1       26.978 -17.235   2.799  0.00  0.00    +0.341 C 
ATOM     15  O   LIG    1       27.729 -17.478   1.812  0.00  0.00    -0.245 OA
ATOM     16  C   LIG    1       26.194 -17.336   6.310  0.00  0.00    +0.009 A 
ATOM     17  O   LIG    1       25.790 -16.601   2.726  0.00  0.00    -0.440 OA
ATOM     18  C   LIG    1       25.997 -14.083   4.273  0.00  0.00    +0.020 A 
ATOM     19  C   LIG    1       25.887 -12.809   4.871  0.00  0.00    +0.009 A 
ATOM     20  C   LIG    1       24.786 -12.577   5.703  0.00  0.00    +0.125 A 
ATOM     21  C   LIG    1       23.708 -13.451   5.717  0.00  0.00    +0.092 A 
ATOM     22  C   LIG    1       23.803 -17.212   3.949  0.00  0.00    +0.048 A 
ATOM     23  C   LIG    1       23.629 -18.430   3.279  0.00  0.00    +0.020 A 
ENDROOT
BRANCH  20  24
ATOM     24  O   LIG    1       24.709 -11.449   6.465  0.00  0.00    -0.506 OA
ATOM     25  H   LIG    1       25.614 -11.219   6.736  0.00  0.00    +0.292 HD
ENDBRANCH  20  24
BRANCH   2  26
ATOM     26  O   LIG    1       20.120 -19.205   3.978  0.00  0.00    -0.506 OA
ATOM     27  H   LIG    1       19.606 -18.873   4.736  0.00  0.00    +0.292 HD
ENDBRANCH   2  26
BRANCH  19  28
ATOM     28  C   LIG    1       26.943 -11.756   4.589  0.00  0.00    +0.124 C 
BRANCH  28  29
ATOM     29  N   LIG    1       27.903 -12.045   3.473  0.00  0.00    -0.278 NA
BRANCH  29  30
ATOM     30  C   LIG    1       29.012 -12.911   3.998  0.00  0.00    +0.206 C 
BRANCH  30  31
ATOM     31  C   LIG    1       28.680 -14.213   4.766  0.00  0.00    +0.319 C 
ATOM     32  O   LIG    1       28.688 -14.256   5.995  0.00  0.00    -0.250 OA
BRANCH  31  33
ATOM     33  O   LIG    1       28.228 -15.295   4.102  0.00  0.00    -0.480 OA
ATOM     34  H   LIG    1       27.362 -15.639   4.369  0.00  0.00    +0.295 HD
ENDBRANCH  31  33
ENDBRANCH  30  31
ENDBRANCH  29  30
BRANCH  29  35
ATOM     35  C   LIG    1       27.236 -12.535   2.261  0.00  0.00    +0.206 C 
BRANCH  35  36
ATOM     36  C   LIG    1       25.708 -12.647   2.242  0.00  0.00    +0.319 C 
ATOM     37  O   LIG    1       25.071 -13.647   1.968  0.00  0.00    -0.250 OA
BRANCH  36  38
ATOM     38  O   LIG    1       25.076 -11.447   2.405  0.00  0.00    -0.480 OA
ATOM     39  H   LIG    1       24.911 -10.920   1.598  0.00  0.00    +0.295 HD
ENDBRANCH  36  38
ENDBRANCH  35  36
ENDBRANCH  29  35
ENDBRANCH  28  29
ENDBRANCH  19  28
BRANCH   1  40
ATOM     40  C   LIG    1       22.399 -20.587   2.791  0.00  0.00    +0.124 C 
BRANCH  40  41
ATOM     41  N   LIG    1       23.427 -21.571   3.276  0.00  0.00    -0.278 NA
BRANCH  41  42
ATOM     42  C   LIG    1       24.717 -21.154   2.605  0.00  0.00    +0.206 C 
BRANCH  42  43
ATOM     43  C   LIG    1       25.691 -20.445   3.543  0.00  0.00    +0.319 C 
ATOM     44  O   LIG    1       26.332 -19.447   3.243  0.00  0.00    -0.250 OA
BRANCH  43  45
ATOM     45  O   LIG    1       25.775 -21.021   4.764  0.00  0.00    -0.480 OA
ATOM     46  H   LIG    1       24.915 -21.353   5.088  0.00  0.00    +0.295 HD
ENDBRANCH  43  45
ENDBRANCH  42  43
ENDBRANCH  41  42
BRANCH  41  47
ATOM     47  C   LIG    1       23.704 -21.565   4.749  0.00  0.00    +0.206 C 
BRANCH  47  49
ATOM     48  O   LIG    1       21.483 -21.088   5.473  0.00  0.00    -0.250 OA
ATOM     49  C   LIG    1       22.681 -20.892   5.626  0.00  0.00    +0.319 C 
BRANCH  49  50
ATOM     50  O   LIG    1       23.174 -20.061   6.569  0.00  0.00    -0.480 OA
ATOM     51  H   LIG    1       23.138 -20.502   7.445  0.00  0.00    +0.295 HD
ENDBRANCH  49  50
ENDBRANCH  47  49
ENDBRANCH  41  47
ENDBRANCH  40  41
ENDBRANCH   1  40
TORSDOF 18
ENDMDL
MODEL 2
REMARK VINA RESULT:      35.9      0.759      1.047
REMARK  Name = *****
REMARK                            x       y       z     vdW  Elec       q    Type
REMARK                         _______ _______ _______ _____ _____    ______ ____
ROOT
ATOM      1  C   LIG    1       22.262 -19.054   3.438  0.00  0.00    +0.009 A 
ATOM      2  C   LIG    1       21.245 -18.334   4.075  0.00  0.00    +0.125 A 
ATOM      3  C   LIG    1       21.513 -17.104   4.668  0.00  0.00    +0.092 A 
ATOM      4  C   LIG    1       22.817 -16.605   4.674  0.00  0.00    +0.140 A 
ATOM      5  O   LIG    1       22.981 -15.424   5.338  0.00  0.00    -0.455 OA
ATOM      6  C   LIG    1       24.176 -14.773   5.210  0.00  0.00    +0.140 A 
ATOM      7  C   LIG    1       25.286 -15.267   4.524  0.00  0.00    +0.048 A 
ATOM      8  C   LIG    1       25.283 -16.729   4.108  0.00  0.00    +0.196 C 
ATOM      9  C   LIG    1       26.234 -17.499   4.967  0.00  0.00    +0.019 A 
ATOM     10  C   LIG    1       27.258 -18.003   4.184  0.00  0.00    +0.067 A 
ATOM     11  C   LIG    1       28.306 -18.765   4.697  0.00  0.00    +0.015 A 
ATOM     12  C   LIG    1       28.324 -19.002   6.069  0.00  0.00    +0.001 A 
ATOM     13  C   LIG    1       27.312 -18.478   6.889  0.00  0.00    +0.001 A 
ATOM     14  C   LIG    1       26.988 -17.638   2.819  0.00  0.00    +0.341 C 
ATOM     15  O   LIG    1       27.686 -17.946   1.813  0.00  0.00    -0.245 OA
ATOM     16  C   LIG    1       26.262 -17.722   6.343  0.00  0.00    +0.009 A 
ATOM     17  O   LIG    1       25.880 -16.869   2.783  0.00  0.00    -0.440 OA
ATOM     18  C   LIG    1       26.407 -14.426   4.373  0.00  0.00    +0.020 A 
ATOM     19  C   LIG    1       26.458 -13.160   4.998  0.00  0.00    +0.009 A 
ATOM     20  C   LIG    1       25.407 -12.821   5.857  0.00  0.00    +0.125 A 
ATOM     21  C   LIG    1       24.235 -13.563   5.877  0.00  0.00    +0.092 A 
ATOM     22  C   LIG    1       23.858 -17.271   4.035  0.00  0.00    +0.048 A 
ATOM     23  C   LIG    1       23.531 -18.446   3.346  0.00  0.00    +0.020 A 
ENDROOT
BRANCH  20  24
ATOM     24  O   LIG    1       25.476 -11.707   6.642  0.00  0.00    -0.506 OA
ATOM     25  H   LIG    1       25.868 -11.974   7.490  0.00  0.00    +0.292 HD
ENDBRANCH  20  24
BRANCH   2  26
ATOM     26  O   LIG    1       19.970 -18.823   4.102  0.00  0.00    -0.506 OA
ATOM     27  H   LIG    1       19.971 -19.667   4.589  0.00  0.00    +0.292 HD
ENDBRANCH   2  26
BRANCH  19  28
ATOM     28  C   LIG    1       27.624 -12.231   4.714  0.00  0.00    +0.124 C 
BRANCH  28  29
ATOM     29  N   LIG    1       27.939 -11.965   3.272  0.00  0.00    -0.278 NA
BRANCH  29  30
ATOM     30  C   LIG    1       28.703 -13.133   2.717  0.00  0.00    +0.206 C 
BRANCH  30  31
ATOM     31  C   LIG    1       28.077 -14.549   2.741  0.00  0.00    +0.319 C 
ATOM     32  O   LIG    1       28.304 -15.337   3.657  0.00  0.00    -0.250 OA
BRANCH  31  33
ATOM     33  O   LIG    1       27.148 -14.894   1.828  0.00  0.00    -0.480 OA
ATOM     34  H   LIG    1       26.297 -14.433   1.878  0.00  0.00    +0.295 HD
ENDBRANCH  31  33
ENDBRANCH  30  31
ENDBRANCH  29  30
BRANCH  29  35
ATOM     35  C   LIG    1       26.761 -11.553   2.498  0.00  0.00    +0.206 C 
BRANCH  35  36
ATOM     36  C   LIG    1       25.425 -12.263   2.737  0.00  0.00    +0.319 C 
ATOM     37  O   LIG    1       24.559 -11.909   3.517  0.00  0.00    -0.250 OA
BRANCH  36  38
ATOM     38  O   LIG    1       25.332 -13.469   2.102  0.00  0.00    -0.480 OA
ATOM     39  H   LIG    1       25.974 -13.643   1.386  0.00  0.00    +0.295 HD
ENDBRANCH  36  38
ENDBRANCH  35  36
ENDBRANCH  29  35
ENDBRANCH  28  29
ENDBRANCH  19  28
BRANCH   1  40
ATOM     40  C   LIG    1       22.049 -20.434   2.843  0.00  0.00    +0.124 C 
BRANCH  40  41
ATOM     41  N   LIG    1       23.022 -21.519   3.214  0.00  0.00    -0.278 NA
BRANCH  41  42
ATOM     42  C   LIG    1       24.266 -21.225   2.405  0.00  0.00    +0.206 C 
BRANCH  42  43
ATOM     43  C   LIG    1       25.485 -20.887   3.260  0.00  0.00    +0.319 C 
ATOM     44  O   LIG    1       26.352 -20.087   2.937  0.00  0.00    -0.250 OA
BRANCH  43  45
ATOM     45  O   LIG    1       25.516 -21.554   4.436  0.00  0.00    -0.480 OA
ATOM     46  H   LIG    1       26.321 -22.099   4.544  0.00  0.00    +0.295 HD
ENDBRANCH  43  45
ENDBRANCH  42  43
ENDBRANCH  41  42
BRANCH  41  47
ATOM     47  C   LIG    1       23.458 -21.553   4.648  0.00  0.00    +0.206 C 
BRANCH  47  49
ATOM     48  O   LIG    1       22.778 -20.875   6.830  0.00  0.00    -0.250 OA
ATOM     49  C   LIG    1       22.455 -21.086   5.669  0.00  0.00    +0.319 C 
BRANCH  49  50
ATOM     50  O   LIG    1       21.191 -20.930   5.220  0.00  0.00    -0.480 OA
ATOM     51  H   LIG    1       20.773 -20.166   5.674  0.00  0.00    +0.295 HD
ENDBRANCH  49  50
ENDBRANCH  47  49
ENDBRANCH  41  47
ENDBRANCH  40  41
ENDBRANCH   1  40
TORSDOF 18
ENDMDL
MODEL 3
REMARK VINA RESULT:      36.1      1.571      2.553
REMARK  Name = *****
REMARK                            x       y       z     vdW  Elec       q    Type
REMARK                         _______ _______ _______ _____ _____    ______ ____
ROOT
ATOM      1  C   LIG    1       21.405 -18.765   4.113  0.00  0.00    +0.009 A 
ATOM      2  C   LIG    1       20.837 -17.626   4.694  0.00  0.00    +0.125 A 
ATOM      3  C   LIG    1       21.629 -16.527   5.017  0.00  0.00    +0.092 A 
ATOM      4  C   LIG    1       23.009 -16.580   4.809  0.00  0.00    +0.140 A 
ATOM      5  O   LIG    1       23.698 -15.476   5.221  0.00  0.00    -0.455 OA
ATOM      6  C   LIG    1       25.012 -15.366   4.863  0.00  0.00    +0.140 A 
ATOM      7  C   LIG    1       25.740 -16.344   4.184  0.00  0.00    +0.048 A 
ATOM      8  C   LIG    1       25.134 -17.731   4.053  0.00  0.00    +0.196 C 
ATOM      9  C   LIG    1       25.858 -18.683   4.950  0.00  0.00    +0.019 A 
ATOM     10  C   LIG    1       26.488 -19.650   4.186  0.00  0.00    +0.067 A 
ATOM     11  C   LIG    1       27.248 -20.681   4.734  0.00  0.00    +0.015 A 
ATOM     12  C   LIG    1       27.393 -20.712   6.119  0.00  0.00    +0.001 A 
ATOM     13  C   LIG    1       26.787 -19.728   6.915  0.00  0.00    +0.001 A 
ATOM     14  C   LIG    1       26.160 -19.402   2.807  0.00  0.00    +0.341 C 
ATOM     15  O   LIG    1       26.529 -20.094   1.817  0.00  0.00    -0.245 OA
ATOM     16  C   LIG    1       26.017 -18.707   6.335  0.00  0.00    +0.009 A 
ATOM     17  O   LIG    1       25.422 -18.276   2.728  0.00  0.00    -0.440 OA
ATOM     18  C   LIG    1       27.053 -16.035   3.775  0.00  0.00    +0.020 A 
ATOM     19  C   LIG    1       27.663 -14.815   4.143  0.00  0.00    +0.009 A 
ATOM     20  C   LIG    1       26.960 -13.978   5.014  0.00  0.00    +0.125 A 
ATOM     21  C   LIG    1       25.616 -14.195   5.281  0.00  0.00    +0.092 A 
ATOM     22  C   LIG    1       23.617 -17.680   4.215  0.00  0.00    +0.048 A 
ATOM     23  C   LIG    1       22.777 -18.719   3.793  0.00  0.00    +0.020 A 
ENDROOT
BRANCH  20  24
ATOM     24  O   LIG    1       27.556 -12.882   5.566  0.00  0.00    -0.506 OA
ATOM     25  H   LIG    1       28.449 -12.815   5.187  0.00  0.00    +0.292 HD
ENDBRANCH  20  24
BRANCH   2  26
ATOM     26  O   LIG    1       19.493 -17.571   4.930  0.00  0.00    -0.506 OA
ATOM     27  H   LIG    1       19.097 -18.423   4.671  0.00  0.00    +0.292 HD
ENDBRANCH   2  26
BRANCH  19  28
ATOM     28  C   LIG    1       29.029 -14.463   3.583  0.00  0.00    +0.124 C 
BRANCH  28  29
ATOM     29  N   LIG    1       29.208 -13.064   3.071  0.00  0.00    -0.278 NA
BRANCH  29  30
ATOM     30  C   LIG    1       28.063 -12.731   2.158  0.00  0.00    +0.206 C 
BRANCH  30  31
ATOM     31  C   LIG    1       26.672 -13.367   2.396  0.00  0.00    +0.319 C 
ATOM     32  O   LIG    1       26.420 -14.516   2.039  0.00  0.00    -0.250 OA
BRANCH  31  33
ATOM     33  O   LIG    1       25.749 -12.721   3.136  0.00  0.00    -0.480 OA
ATOM     34  H   LIG    1       25.211 -12.058   2.678  0.00  0.00    +0.295 HD
ENDBRANCH  31  33
ENDBRANCH  30  31
ENDBRANCH  29  30
BRANCH  29  35
ATOM     35  C   LIG    1       29.468 -12.094   4.141  0.00  0.00    +0.206 C 
BRANCH  35  36
ATOM     36  C   LIG    1       28.497 -12.007   5.323  0.00  0.00    +0.319 C 
ATOM     37  O   LIG    1       27.290 -11.870   5.244  0.00  0.00    -0.250 OA
BRANCH  36  38
ATOM     38  O   LIG    1       29.124 -11.930   6.534  0.00  0.00    -0.480 OA
ATOM     39  H   LIG    1       28.621 -12.236   7.314  0.00  0.00    +0.295 HD
ENDBRANCH  36  38
ENDBRANCH  35  36
ENDBRANCH  29  35
ENDBRANCH  28  29
ENDBRANCH  19  28
BRANCH   1  40
ATOM     40  C   LIG    1       20.609 -20.023   3.811  0.00  0.00    +0.124 C 
BRANCH  40  41
ATOM     41  N   LIG    1       21.238 -21.350   4.134  0.00  0.00    -0.278 NA
BRANCH  41  42
ATOM     42  C   LIG    1       22.266 -21.572   3.047  0.00  0.00    +0.206 C 
BRANCH  42  43
ATOM     43  C   LIG    1       23.687 -21.205   3.466  0.00  0.00    +0.319 C 
ATOM     44  O   LIG    1       24.207 -21.552   4.518  0.00  0.00    -0.250 OA
BRANCH  43  45
ATOM     45  O   LIG    1       24.342 -20.458   2.547  0.00  0.00    -0.480 OA
ATOM     46  H   LIG    1       24.201 -20.772   1.632  0.00  0.00    +0.295 HD
ENDBRANCH  43  45
ENDBRANCH  42  43
ENDBRANCH  41  42
BRANCH  41  47
ATOM     47  C   LIG    1       21.982 -21.429   5.432  0.00  0.00    +0.206 C 
BRANCH  47  49
ATOM     48  O   LIG    1       23.064 -20.049   7.047  0.00  0.00    -0.250 OA
ATOM     49  C   LIG    1       22.251 -20.125   6.137  0.00  0.00    +0.319 C 
BRANCH  49  50
ATOM     50  O   LIG    1       21.532 -19.067   5.705  0.00  0.00    -0.480 OA
ATOM     51  H   LIG    1       21.455 -19.100   4.727  0.00  0.00    +0.295 HD
ENDBRANCH  49  50
ENDBRANCH  47  49
ENDBRANCH  41  47
ENDBRANCH  40  41
ENDBRANCH   1  40
TORSDOF 18
ENDMDL
MODEL 4
REMARK VINA RESULT:      37.4      1.654      7.103
REMARK  Name = *****
REMARK                            x       y       z     vdW  Elec       q    Type
REMARK                         _______ _______ _______ _____ _____    ______ ____
ROOT
ATOM      1  C   LIG    1       26.090 -13.147   2.999  0.00  0.00    +0.009 A 
ATOM      2  C   LIG    1       24.874 -12.697   2.476  0.00  0.00    +0.125 A 
ATOM      3  C   LIG    1       23.722 -13.470   2.595  0.00  0.00    +0.092 A 
ATOM      4  C   LIG    1       23.790 -14.730   3.194  0.00  0.00    +0.140 A 
ATOM      5  O   LIG    1       22.619 -15.431   3.199  0.00  0.00    -0.455 OA
ATOM      6  C   LIG    1       22.555 -16.573   3.947  0.00  0.00    +0.140 A 
ATOM      7  C   LIG    1       23.628 -17.137   4.638  0.00  0.00    +0.048 A 
ATOM      8  C   LIG    1       25.025 -16.616   4.346  0.00  0.00    +0.196 C 
ATOM      9  C   LIG    1       25.787 -17.634   3.560  0.00  0.00    +0.019 A 
ATOM     10  C   LIG    1       26.867 -18.079   4.304  0.00  0.00    +0.067 A 
ATOM     11  C   LIG    1       27.769 -19.036   3.842  0.00  0.00    +0.015 A 
ATOM     12  C   LIG    1       27.546 -19.580   2.580  0.00  0.00    +0.001 A 
ATOM     13  C   LIG    1       26.443 -19.166   1.816  0.00  0.00    +0.001 A 
ATOM     14  C   LIG    1       26.878 -17.347   5.542  0.00  0.00    +0.341 C 
ATOM     15  O   LIG    1       27.732 -17.458   6.466  0.00  0.00    -0.245 OA
ATOM     16  C   LIG    1       25.557 -18.191   2.302  0.00  0.00    +0.009 A 
ATOM     17  O   LIG    1       25.797 -16.542   5.585  0.00  0.00    -0.440 OA
ATOM     18  C   LIG    1       23.378 -18.249   5.468  0.00  0.00    +0.020 A 
ATOM     19  C   LIG    1       22.102 -18.854   5.510  0.00  0.00    +0.009 A 
ATOM     20  C   LIG    1       21.132 -18.379   4.622  0.00  0.00    +0.125 A 
ATOM     21  C   LIG    1       21.318 -17.190   3.932  0.00  0.00    +0.092 A 
ATOM     22  C   LIG    1       24.970 -15.213   3.749  0.00  0.00    +0.048 A 
ATOM     23  C   LIG    1       26.081 -14.360   3.719  0.00  0.00    +0.020 A 
ENDROOT
BRANCH  20  24
ATOM     24  O   LIG    1       19.945 -19.033   4.467  0.00  0.00    -0.506 OA
ATOM     25  H   LIG    1       19.265 -18.362   4.286  0.00  0.00    +0.292 HD
ENDBRANCH  20  24
BRANCH   2  26
ATOM     26  O   LIG    1       24.797 -11.479   1.862  0.00  0.00    -0.506 OA
ATOM     27  H   LIG    1       24.240 -10.892   2.404  0.00  0.00    +0.292 HD
ENDBRANCH   2  26
BRANCH  19  28
ATOM     28  C   LIG    1       21.836 -19.970   6.504  0.00  0.00    +0.124 C 
BRANCH  28  29
ATOM     29  N   LIG    1       22.434 -21.309   6.191  0.00  0.00    -0.278 NA
BRANCH  29  30
ATOM     30  C   LIG    1       22.529 -21.462   4.700  0.00  0.00    +0.206 C 
BRANCH  30  31
ATOM     31  C   LIG    1       23.913 -21.444   4.007  0.00  0.00    +0.319 C 
ATOM     32  O   LIG    1       24.958 -21.466   4.655  0.00  0.00    -0.250 OA
BRANCH  31  33
ATOM     33  O   LIG    1       24.001 -21.554   2.667  0.00  0.00    -0.480 OA
ATOM     34  H   LIG    1       24.652 -22.186   2.325  0.00  0.00    +0.295 HD
ENDBRANCH  31  33
ENDBRANCH  30  31
ENDBRANCH  29  30
BRANCH  29  35
ATOM     35  C   LIG    1       23.672 -21.569   6.936  0.00  0.00    +0.206 C 
BRANCH  35  36
ATOM     36  C   LIG    1       24.946 -20.809   6.554  0.00  0.00    +0.319 C 
ATOM     37  O   LIG    1       26.086 -21.162   6.797  0.00  0.00    -0.250 OA
BRANCH  36  38
ATOM     38  O   LIG    1       24.702 -19.568   6.036  0.00  0.00    -0.480 OA
ATOM     39  H   LIG    1       24.321 -19.531   5.137  0.00  0.00    +0.295 HD
ENDBRANCH  36  38
ENDBRANCH  35  36
ENDBRANCH  29  35
ENDBRANCH  28  29
ENDBRANCH  19  28
BRANCH   1  40
ATOM     40  C   LIG    1       27.394 -12.387   2.833  0.00  0.00    +0.124 C 
BRANCH  40  41
ATOM     41  N   LIG    1       28.346 -12.359   3.997  0.00  0.00    -0.278 NA
BRANCH  41  42
ATOM     42  C   LIG    1       27.516 -11.897   5.173  0.00  0.00    +0.206 C 
BRANCH  42  43
ATOM     43  C   LIG    1       27.094 -13.030   6.106  0.00  0.00    +0.319 C 
ATOM     44  O   LIG    1       27.772 -13.445   7.036  0.00  0.00    -0.250 OA
BRANCH  43  45
ATOM     45  O   LIG    1       25.873 -13.535   5.817  0.00  0.00    -0.480 OA
ATOM     46  H   LIG    1       25.886 -14.152   5.059  0.00  0.00    +0.295 HD
ENDBRANCH  43  45
ENDBRANCH  42  43
ENDBRANCH  41  42
BRANCH  41  47
ATOM     47  C   LIG    1       28.937 -13.677   4.398  0.00  0.00    +0.206 C 
BRANCH  47  49
ATOM     48  O   LIG    1       28.107 -14.874   2.511  0.00  0.00    -0.250 OA
ATOM     49  C   LIG    1       28.402 -14.898   3.698  0.00  0.00    +0.319 C 
BRANCH  49  50
ATOM     50  O   LIG    1       28.262 -15.999   4.466  0.00  0.00    -0.480 OA
ATOM     51  H   LIG    1       27.503 -16.531   4.142  0.00  0.00    +0.295 HD
ENDBRANCH  49  50
ENDBRANCH  47  49
ENDBRANCH  41  47
ENDBRANCH  40  41
ENDBRANCH   1  40
TORSDOF 18
ENDMDL
MODEL 5
REMARK VINA RESULT:      38.7      1.803      7.409
REMARK  Name = *****
REMARK                            x       y       z     vdW  Elec       q    Type
REMARK                         _______ _______ _______ _____ _____    ______ ____
ROOT
ATOM      1  C   LIG    1       27.246 -13.888   2.932  0.00  0.00    +0.009 A 
ATOM      2  C   LIG    1       26.115 -13.228   2.440  0.00  0.00    +0.125 A 
ATOM      3  C   LIG    1       24.847 -13.778   2.604  0.00  0.00    +0.092 A 
ATOM      4  C   LIG    1       24.704 -15.025   3.217  0.00  0.00    +0.140 A 
ATOM      5  O   LIG    1       23.427 -15.502   3.266  0.00  0.00    -0.455 OA
ATOM      6  C   LIG    1       23.181 -16.608   4.031  0.00  0.00    +0.140 A 
ATOM      7  C   LIG    1       24.155 -17.352   4.696  0.00  0.00    +0.048 A 
ATOM      8  C   LIG    1       25.614 -17.096   4.355  0.00  0.00    +0.196 C 
ATOM      9  C   LIG    1       26.153 -18.241   3.559  0.00  0.00    +0.019 A 
ATOM     10  C   LIG    1       27.157 -18.870   4.276  0.00  0.00    +0.067 A 
ATOM     11  C   LIG    1       27.855 -19.977   3.800  0.00  0.00    +0.015 A 
ATOM     12  C   LIG    1       27.498 -20.481   2.552  0.00  0.00    +0.001 A 
ATOM     13  C   LIG    1       26.464 -19.879   1.817  0.00  0.00    +0.001 A 
ATOM     14  C   LIG    1       27.340 -18.143   5.503  0.00  0.00    +0.341 C 
ATOM     15  O   LIG    1       28.190 -18.400   6.402  0.00  0.00    -0.245 OA
ATOM     16  C   LIG    1       25.785 -18.756   2.317  0.00  0.00    +0.009 A 
ATOM     17  O   LIG    1       26.425 -17.155   5.569  0.00  0.00    -0.440 OA
ATOM     18  C   LIG    1       23.734 -18.395   5.547  0.00  0.00    +0.020 A 
ATOM     19  C   LIG    1       22.372 -18.757   5.636  0.00  0.00    +0.009 A 
ATOM     20  C   LIG    1       21.476 -18.121   4.772  0.00  0.00    +0.125 A 
ATOM     21  C   LIG    1       21.852 -16.990   4.061  0.00  0.00    +0.092 A 
ATOM     22  C   LIG    1       25.794 -15.711   3.742  0.00  0.00    +0.048 A 
ATOM     23  C   LIG    1       27.040 -15.074   3.667  0.00  0.00    +0.020 A 
ENDROOT
BRANCH  20  24
ATOM     24  O   LIG    1       20.186 -18.549   4.661  0.00  0.00    -0.506 OA
ATOM     25  H   LIG    1       20.191 -19.348   4.107  0.00  0.00    +0.292 HD
ENDBRANCH  20  24
BRANCH   2  26
ATOM     26  O   LIG    1       26.241 -12.021   1.812  0.00  0.00    -0.506 OA
ATOM     27  H   LIG    1       25.543 -11.426   2.141  0.00  0.00    +0.292 HD
ENDBRANCH   2  26
BRANCH  19  28
ATOM     28  C   LIG    1       21.940 -19.799   6.652  0.00  0.00    +0.124 C 
BRANCH  28  29
ATOM     29  N   LIG    1       22.480 -21.186   6.467  0.00  0.00    -0.278 NA
BRANCH  29  30
ATOM     30  C   LIG    1       22.358 -21.567   5.020  0.00  0.00    +0.206 C 
BRANCH  30  31
ATOM     31  C   LIG    1       21.237 -20.951   4.149  0.00  0.00    +0.319 C 
ATOM     32  O   LIG    1       21.488 -20.364   3.098  0.00  0.00    -0.250 OA
BRANCH  31  33
ATOM     33  O   LIG    1       19.943 -21.175   4.452  0.00  0.00    -0.480 OA
ATOM     34  H   LIG    1       19.343 -21.331   3.707  0.00  0.00    +0.295 HD
ENDBRANCH  31  33
ENDBRANCH  30  31
ENDBRANCH  29  30
BRANCH  29  35
ATOM     35  C   LIG    1       23.812 -21.363   7.059  0.00  0.00    +0.206 C 
BRANCH  35  36
ATOM     36  C   LIG    1       25.051 -21.188   6.175  0.00  0.00    +0.319 C 
ATOM     37  O   LIG    1       25.099 -21.369   4.972  0.00  0.00    -0.250 OA
BRANCH  36  38
ATOM     38  O   LIG    1       26.195 -20.960   6.886  0.00  0.00    -0.480 OA
ATOM     39  H   LIG    1       26.092 -20.570   7.777  0.00  0.00    +0.295 HD
ENDBRANCH  36  38
ENDBRANCH  35  36
ENDBRANCH  29  35
ENDBRANCH  28  29
ENDBRANCH  19  28
BRANCH   1  40
ATOM     40  C   LIG    1       28.660 -13.378   2.717  0.00  0.00    +0.124 C 
BRANCH  40  41
ATOM     41  N   LIG    1       29.378 -12.775   3.893  0.00  0.00    -0.278 NA
BRANCH  41  42
ATOM     42  C   LIG    1       28.591 -11.530   4.237  0.00  0.00    +0.206 C 
BRANCH  42  43
ATOM     43  C   LIG    1       27.506 -11.763   5.285  0.00  0.00    +0.319 C 
ATOM     44  O   LIG    1       26.357 -12.092   5.026  0.00  0.00    -0.250 OA
BRANCH  43  45
ATOM     45  O   LIG    1       27.940 -11.584   6.554  0.00  0.00    -0.480 OA
ATOM     46  H   LIG    1       27.208 -11.484   7.195  0.00  0.00    +0.295 HD
ENDBRANCH  43  45
ENDBRANCH  42  43
ENDBRANCH  41  42
BRANCH  41  47
ATOM     47  C   LIG    1       29.411 -13.604   5.141  0.00  0.00    +0.206 C 
BRANCH  47  49
ATOM     48  O   LIG    1       27.999 -15.448   4.608  0.00  0.00    -0.250 OA
ATOM     49  C   LIG    1       28.243 -14.525   5.371  0.00  0.00    +0.319 C 
BRANCH  49  50
ATOM     50  O   LIG    1       27.489 -14.255   6.459  0.00  0.00    -0.480 OA
ATOM     51  H   LIG    1       26.540 -14.367   6.236  0.00  0.00    +0.295 HD
ENDBRANCH  49  50
ENDBRANCH  47  49
ENDBRANCH  41  47
ENDBRANCH  40  41
ENDBRANCH   1  40
TORSDOF 18
ENDMDL
