MODEL 1
REMARK VINA RESULT:      -6.7      0.000      0.000
REMARK  Name = *****
REMARK                            x       y       z     vdW  Elec       q    Type
REMARK                         _______ _______ _______ _____ _____    ______ ____
ROOT
ATOM      1  C   LIG    1       25.205 -24.783   6.618  0.00  0.00    +0.121 A 
ATOM      2  C   LIG    1       25.930 -23.632   6.930  0.00  0.00    +0.055 A 
ATOM      3  C   LIG    1       25.292 -22.411   7.225  0.00  0.00    +0.027 A 
ATOM      4  C   LIG    1       23.893 -22.339   7.108  0.00  0.00    +0.126 A 
ATOM      5  C   LIG    1       23.166 -23.491   6.762  0.00  0.00    +0.049 A 
ATOM      6  C   LIG    1       23.820 -24.703   6.527  0.00  0.00    +0.049 A 
ENDROOT
BRANCH   1   8
ATOM      7  C   LIG    1       25.634 -26.538   5.073  0.00  0.00    +0.277 C 
ATOM      8  O   LIG    1       25.750 -26.017   6.393  0.00  0.00    -0.495 OA
ENDBRANCH   1   8
BRANCH   4   9
ATOM      9  O   LIG    1       23.322 -21.119   7.360  0.00  0.00    -0.495 OA
ATOM     10  C   LIG    1       22.957 -20.331   6.232  0.00  0.00    +0.277 C 
ENDBRANCH   4   9
BRANCH   3  11
ATOM     11  C   LIG    1       26.134 -21.225   7.695  0.00  0.00    +0.165 C 
BRANCH  11  12
ATOM     12  C   LIG    1       27.410 -20.945   6.840  0.00  0.00    +0.081 C 
ATOM     13  C   LIG    1       28.381 -20.036   7.606  0.00  0.00    +0.027 C 
BRANCH  12  14
ATOM     14  N   LIG    1       27.160 -20.313   5.532  0.00  0.00    -0.325 NA
ATOM     15  H   LIG    1       26.175 -20.430   5.296  0.00  0.00    +0.118 HD
ATOM     16  H   LIG    1       27.287 -19.304   5.628  0.00  0.00    +0.118 HD
ENDBRANCH  12  14
ENDBRANCH  11  12
BRANCH  11  17
ATOM     17  O   LIG    1       26.534 -21.440   9.061  0.00  0.00    -0.386 OA
ATOM     18  H   LIG    1       26.600 -22.402   9.189  0.00  0.00    +0.210 HD
ENDBRANCH  11  17
ENDBRANCH   3  11
TORSDOF 6
ENDMDL
MODEL 2
REMARK VINA RESULT:      -6.6      1.473      3.171
REMARK  Name = *****
REMARK                            x       y       z     vdW  Elec       q    Type
REMARK                         _______ _______ _______ _____ _____    ______ ____
ROOT
ATOM      1  C   LIG    1       24.253 -24.965   6.474  0.00  0.00    +0.121 A 
ATOM      2  C   LIG    1       23.487 -23.798   6.469  0.00  0.00    +0.055 A 
ATOM      3  C   LIG    1       24.055 -22.537   6.734  0.00  0.00    +0.027 A 
ATOM      4  C   LIG    1       25.410 -22.475   7.103  0.00  0.00    +0.126 A 
ATOM      5  C   LIG    1       26.174 -23.654   7.138  0.00  0.00    +0.049 A 
ATOM      6  C   LIG    1       25.597 -24.886   6.819  0.00  0.00    +0.049 A 
ENDROOT
BRANCH   1   8
ATOM      7  C   LIG    1       24.739 -27.141   5.652  0.00  0.00    +0.277 C 
ATOM      8  O   LIG    1       23.787 -26.210   6.156  0.00  0.00    -0.495 OA
ENDBRANCH   1   8
BRANCH   4   9
ATOM      9  O   LIG    1       25.906 -21.231   7.396  0.00  0.00    -0.495 OA
ATOM     10  C   LIG    1       26.974 -20.754   6.585  0.00  0.00    +0.277 C 
ENDBRANCH   4   9
BRANCH   3  11
ATOM     11  C   LIG    1       23.193 -21.284   6.577  0.00  0.00    +0.165 C 
BRANCH  11  12
ATOM     12  C   LIG    1       23.503 -20.425   5.311  0.00  0.00    +0.081 C 
ATOM     13  C   LIG    1       22.390 -19.395   5.075  0.00  0.00    +0.027 C 
BRANCH  12  14
ATOM     14  N   LIG    1       23.664 -21.189   4.061  0.00  0.00    -0.325 NA
ATOM     15  H   LIG    1       23.036 -20.800   3.358  0.00  0.00    +0.118 HD
ATOM     16  H   LIG    1       24.602 -21.018   3.694  0.00  0.00    +0.118 HD
ENDBRANCH  12  14
ENDBRANCH  11  12
BRANCH  11  17
ATOM     17  O   LIG    1       23.347 -20.455   7.744  0.00  0.00    -0.386 OA
ATOM     18  H   LIG    1       23.052 -19.561   7.498  0.00  0.00    +0.210 HD
ENDBRANCH  11  17
ENDBRANCH   3  11
TORSDOF 6
ENDMDL
MODEL 3
REMARK VINA RESULT:      -6.5      1.593      1.626
REMARK  Name = *****
REMARK                            x       y       z     vdW  Elec       q    Type
REMARK                         _______ _______ _______ _____ _____    ______ ____
ROOT
ATOM      1  C   LIG    1       24.545 -24.697   6.528  0.00  0.00    +0.121 A 
ATOM      2  C   LIG    1       25.544 -23.729   6.413  0.00  0.00    +0.055 A 
ATOM      3  C   LIG    1       25.260 -22.353   6.515  0.00  0.00    +0.027 A 
ATOM      4  C   LIG    1       23.918 -21.953   6.641  0.00  0.00    +0.126 A 
ATOM      5  C   LIG    1       22.909 -22.927   6.724  0.00  0.00    +0.049 A 
ATOM      6  C   LIG    1       23.225 -24.287   6.675  0.00  0.00    +0.049 A 
ENDROOT
BRANCH   1   8
ATOM      7  C   LIG    1       26.109 -26.484   6.454  0.00  0.00    +0.277 C 
ATOM      8  O   LIG    1       24.756 -26.047   6.514  0.00  0.00    -0.495 OA
ENDBRANCH   1   8
BRANCH   4   9
ATOM      9  O   LIG    1       23.686 -20.602   6.689  0.00  0.00    -0.495 OA
ATOM     10  C   LIG    1       22.822 -20.060   5.696  0.00  0.00    +0.277 C 
ENDBRANCH   4   9
BRANCH   3  11
ATOM     11  C   LIG    1       26.415 -21.351   6.519  0.00  0.00    +0.165 C 
BRANCH  11  12
ATOM     12  C   LIG    1       26.511 -20.464   7.800  0.00  0.00    +0.081 C 
ATOM     13  C   LIG    1       27.967 -20.053   8.059  0.00  0.00    +0.027 C 
BRANCH  12  14
ATOM     14  N   LIG    1       26.007 -21.091   9.035  0.00  0.00    -0.325 NA
ATOM     15  H   LIG    1       26.268 -20.505   9.828  0.00  0.00    +0.118 HD
ATOM     16  H   LIG    1       24.986 -21.066   9.018  0.00  0.00    +0.118 HD
ENDBRANCH  12  14
ENDBRANCH  11  12
BRANCH  11  17
ATOM     17  O   LIG    1       26.299 -20.491   5.371  0.00  0.00    -0.386 OA
ATOM     18  H   LIG    1       25.350 -20.406   5.174  0.00  0.00    +0.210 HD
ENDBRANCH  11  17
ENDBRANCH   3  11
TORSDOF 6
ENDMDL
MODEL 4
REMARK VINA RESULT:      -6.4      2.452      4.747
REMARK  Name = *****
REMARK                            x       y       z     vdW  Elec       q    Type
REMARK                         _______ _______ _______ _____ _____    ______ ____
ROOT
ATOM      1  C   LIG    1       28.361 -20.488   7.647  0.00  0.00    +0.121 A 
ATOM      2  C   LIG    1       27.124 -20.963   8.085  0.00  0.00    +0.055 A 
ATOM      3  C   LIG    1       25.999 -20.993   7.238  0.00  0.00    +0.027 A 
ATOM      4  C   LIG    1       26.113 -20.441   5.950  0.00  0.00    +0.126 A 
ATOM      5  C   LIG    1       27.351 -19.934   5.520  0.00  0.00    +0.049 A 
ATOM      6  C   LIG    1       28.465 -19.966   6.363  0.00  0.00    +0.049 A 
ENDROOT
BRANCH   1   8
ATOM      7  C   LIG    1       30.683 -19.995   7.754  0.00  0.00    +0.277 C 
ATOM      8  O   LIG    1       29.511 -20.496   8.386  0.00  0.00    -0.495 OA
ENDBRANCH   1   8
BRANCH   4   9
ATOM      9  O   LIG    1       24.979 -20.451   5.179  0.00  0.00    -0.495 OA
ATOM     10  C   LIG    1       25.058 -19.819   3.906  0.00  0.00    +0.277 C 
ENDBRANCH   4   9
BRANCH   3  11
ATOM     11  C   LIG    1       24.711 -21.652   7.732  0.00  0.00    +0.165 C 
BRANCH  11  12
ATOM     12  C   LIG    1       24.388 -23.035   7.084  0.00  0.00    +0.081 C 
ATOM     13  C   LIG    1       25.660 -23.888   6.978  0.00  0.00    +0.027 C 
BRANCH  12  14
ATOM     14  N   LIG    1       23.793 -22.971   5.737  0.00  0.00    -0.325 NA
ATOM     15  H   LIG    1       23.697 -23.920   5.378  0.00  0.00    +0.118 HD
ATOM     16  H   LIG    1       22.834 -22.627   5.822  0.00  0.00    +0.118 HD
ENDBRANCH  12  14
ENDBRANCH  11  12
BRANCH  11  17
ATOM     17  O   LIG    1       23.603 -20.764   7.496  0.00  0.00    -0.386 OA
ATOM     18  H   LIG    1       23.922 -20.067   6.895  0.00  0.00    +0.210 HD
ENDBRANCH  11  17
ENDBRANCH   3  11
TORSDOF 6
ENDMDL
MODEL 5
REMARK VINA RESULT:      -6.4      2.067      4.346
REMARK  Name = *****
REMARK                            x       y       z     vdW  Elec       q    Type
REMARK                         _______ _______ _______ _____ _____    ______ ____
ROOT
ATOM      1  C   LIG    1       26.986 -21.612   7.599  0.00  0.00    +0.121 A 
ATOM      2  C   LIG    1       26.032 -22.626   7.689  0.00  0.00    +0.055 A 
ATOM      3  C   LIG    1       24.935 -22.694   6.807  0.00  0.00    +0.027 A 
ATOM      4  C   LIG    1       24.757 -21.656   5.876  0.00  0.00    +0.126 A 
ATOM      5  C   LIG    1       25.702 -20.617   5.807  0.00  0.00    +0.049 A 
ATOM      6  C   LIG    1       26.809 -20.604   6.659  0.00  0.00    +0.049 A 
ENDROOT
BRANCH   1   8
ATOM      7  C   LIG    1       29.273 -20.984   7.749  0.00  0.00    +0.277 C 
ATOM      8  O   LIG    1       28.111 -21.523   8.370  0.00  0.00    -0.495 OA
ENDBRANCH   1   8
BRANCH   4   9
ATOM      9  O   LIG    1       23.651 -21.741   5.071  0.00  0.00    -0.495 OA
ATOM     10  C   LIG    1       22.973 -20.525   4.776  0.00  0.00    +0.277 C 
ENDBRANCH   4   9
BRANCH   3  11
ATOM     11  C   LIG    1       24.003 -23.905   6.868  0.00  0.00    +0.165 C 
BRANCH  11  12
ATOM     12  C   LIG    1       24.382 -25.076   5.909  0.00  0.00    +0.081 C 
ATOM     13  C   LIG    1       25.522 -25.912   6.507  0.00  0.00    +0.027 C 
BRANCH  12  14
ATOM     14  N   LIG    1       24.804 -24.666   4.557  0.00  0.00    -0.325 NA
ATOM     15  H   LIG    1       24.108 -24.991   3.886  0.00  0.00    +0.118 HD
ATOM     16  H   LIG    1       24.764 -23.647   4.499  0.00  0.00    +0.118 HD
ENDBRANCH  12  14
ENDBRANCH  11  12
BRANCH  11  17
ATOM     17  O   LIG    1       22.660 -23.483   6.570  0.00  0.00    -0.386 OA
ATOM     18  H   LIG    1       22.711 -22.553   6.286  0.00  0.00    +0.210 HD
ENDBRANCH  11  17
ENDBRANCH   3  11
TORSDOF 6
ENDMDL
MODEL 6
REMARK VINA RESULT:      -6.2      2.016      4.019
REMARK  Name = *****
REMARK                            x       y       z     vdW  Elec       q    Type
REMARK                         _______ _______ _______ _____ _____    ______ ____
ROOT
ATOM      1  C   LIG    1       23.086 -20.700   5.649  0.00  0.00    +0.121 A 
ATOM      2  C   LIG    1       24.446 -20.414   5.782  0.00  0.00    +0.055 A 
ATOM      3  C   LIG    1       25.349 -21.345   6.331  0.00  0.00    +0.027 A 
ATOM      4  C   LIG    1       24.842 -22.554   6.839  0.00  0.00    +0.126 A 
ATOM      5  C   LIG    1       23.468 -22.828   6.733  0.00  0.00    +0.049 A 
ATOM      6  C   LIG    1       22.602 -21.908   6.136  0.00  0.00    +0.049 A 
ENDROOT
BRANCH   1   8
ATOM      7  C   LIG    1       22.673 -18.771   4.324  0.00  0.00    +0.277 C 
ATOM      8  O   LIG    1       22.166 -19.877   5.061  0.00  0.00    -0.495 OA
ENDBRANCH   1   8
BRANCH   4   9
ATOM      9  O   LIG    1       25.753 -23.408   7.405  0.00  0.00    -0.495 OA
ATOM     10  C   LIG    1       25.911 -24.682   6.791  0.00  0.00    +0.277 C 
ENDBRANCH   4   9
BRANCH   3  11
ATOM     11  C   LIG    1       26.845 -21.027   6.322  0.00  0.00    +0.165 C 
BRANCH  11  12
ATOM     12  C   LIG    1       27.360 -20.253   7.576  0.00  0.00    +0.081 C 
ATOM     13  C   LIG    1       28.880 -20.417   7.720  0.00  0.00    +0.027 C 
BRANCH  12  14
ATOM     14  N   LIG    1       26.753 -20.661   8.856  0.00  0.00    -0.325 NA
ATOM     15  H   LIG    1       26.921 -19.928   9.544  0.00  0.00    +0.118 HD
ATOM     16  H   LIG    1       25.738 -20.683   8.742  0.00  0.00    +0.118 HD
ENDBRANCH  12  14
ENDBRANCH  11  12
BRANCH  11  17
ATOM     17  O   LIG    1       27.157 -20.257   5.146  0.00  0.00    -0.386 OA
ATOM     18  H   LIG    1       26.381 -20.305   4.561  0.00  0.00    +0.210 HD
ENDBRANCH  11  17
ENDBRANCH   3  11
TORSDOF 6
ENDMDL
MODEL 7
REMARK VINA RESULT:      -6.2      2.263      4.734
REMARK  Name = *****
REMARK                            x       y       z     vdW  Elec       q    Type
REMARK                         _______ _______ _______ _____ _____    ______ ____
ROOT
ATOM      1  C   LIG    1       27.300 -20.671   6.753  0.00  0.00    +0.121 A 
ATOM      2  C   LIG    1       26.359 -20.350   5.773  0.00  0.00    +0.055 A 
ATOM      3  C   LIG    1       25.287 -21.210   5.464  0.00  0.00    +0.027 A 
ATOM      4  C   LIG    1       25.226 -22.463   6.099  0.00  0.00    +0.126 A 
ATOM      5  C   LIG    1       26.192 -22.799   7.063  0.00  0.00    +0.049 A 
ATOM      6  C   LIG    1       27.215 -21.904   7.389  0.00  0.00    +0.049 A 
ENDROOT
BRANCH   1   8
ATOM      7  C   LIG    1       29.482 -20.494   7.676  0.00  0.00    +0.277 C 
ATOM      8  O   LIG    1       28.321 -19.856   7.156  0.00  0.00    -0.495 OA
ENDBRANCH   1   8
BRANCH   4   9
ATOM      9  O   LIG    1       24.192 -23.284   5.733  0.00  0.00    -0.495 OA
ATOM     10  C   LIG    1       23.401 -23.834   6.780  0.00  0.00    +0.277 C 
ENDBRANCH   4   9
BRANCH   3  11
ATOM     11  C   LIG    1       24.213 -20.740   4.482  0.00  0.00    +0.165 C 
BRANCH  11  12
ATOM     12  C   LIG    1       22.851 -20.346   5.134  0.00  0.00    +0.081 C 
ATOM     13  C   LIG    1       22.399 -18.965   4.639  0.00  0.00    +0.027 C 
BRANCH  12  14
ATOM     14  N   LIG    1       22.853 -20.303   6.608  0.00  0.00    -0.325 NA
ATOM     15  H   LIG    1       23.611 -19.695   6.915  0.00  0.00    +0.118 HD
ATOM     16  H   LIG    1       22.001 -19.834   6.920  0.00  0.00    +0.118 HD
ENDBRANCH  12  14
ENDBRANCH  11  12
BRANCH  11  17
ATOM     17  O   LIG    1       23.975 -21.776   3.510  0.00  0.00    -0.386 OA
ATOM     18  H   LIG    1       24.832 -21.977   3.095  0.00  0.00    +0.210 HD
ENDBRANCH  11  17
ENDBRANCH   3  11
TORSDOF 6
ENDMDL
MODEL 8
REMARK VINA RESULT:      -6.1      2.147      5.085
REMARK  Name = *****
REMARK                            x       y       z     vdW  Elec       q    Type
REMARK                         _______ _______ _______ _____ _____    ______ ____
ROOT
ATOM      1  C   LIG    1       28.040 -19.937   6.001  0.00  0.00    +0.121 A 
ATOM      2  C   LIG    1       26.679 -20.129   5.761  0.00  0.00    +0.055 A 
ATOM      3  C   LIG    1       25.945 -21.138   6.417  0.00  0.00    +0.027 A 
ATOM      4  C   LIG    1       26.633 -22.026   7.262  0.00  0.00    +0.126 A 
ATOM      5  C   LIG    1       28.010 -21.851   7.479  0.00  0.00    +0.049 A 
ATOM      6  C   LIG    1       28.702 -20.809   6.857  0.00  0.00    +0.049 A 
ENDROOT
BRANCH   1   8
ATOM      7  C   LIG    1       29.996 -18.596   6.147  0.00  0.00    +0.277 C 
ATOM      8  O   LIG    1       28.798 -18.936   5.460  0.00  0.00    -0.495 OA
ENDBRANCH   1   8
BRANCH   4   9
ATOM      9  O   LIG    1       25.886 -23.019   7.841  0.00  0.00    -0.495 OA
ATOM     10  C   LIG    1       25.791 -24.251   7.135  0.00  0.00    +0.277 C 
ENDBRANCH   4   9
BRANCH   3  11
ATOM     11  C   LIG    1       24.431 -21.209   6.215  0.00  0.00    +0.165 C 
BRANCH  11  12
ATOM     12  C   LIG    1       23.897 -20.440   4.966  0.00  0.00    +0.081 C 
ATOM     13  C   LIG    1       22.587 -19.714   5.303  0.00  0.00    +0.027 C 
BRANCH  12  14
ATOM     14  N   LIG    1       23.641 -21.275   3.779  0.00  0.00    -0.325 NA
ATOM     15  H   LIG    1       23.404 -20.666   2.997  0.00  0.00    +0.118 HD
ATOM     16  H   LIG    1       24.517 -21.724   3.503  0.00  0.00    +0.118 HD
ENDBRANCH  12  14
ENDBRANCH  11  12
BRANCH  11  17
ATOM     17  O   LIG    1       23.774 -20.695   7.388  0.00  0.00    -0.386 OA
ATOM     18  H   LIG    1       24.338 -19.986   7.742  0.00  0.00    +0.210 HD
ENDBRANCH  11  17
ENDBRANCH   3  11
TORSDOF 6
ENDMDL
MODEL 9
REMARK VINA RESULT:      -6.0      3.146      5.009
REMARK  Name = *****
REMARK                            x       y       z     vdW  Elec       q    Type
REMARK                         _______ _______ _______ _____ _____    ______ ____
ROOT
ATOM      1  C   LIG    1       27.067 -21.669   7.555  0.00  0.00    +0.121 A 
ATOM      2  C   LIG    1       28.342 -21.439   8.076  0.00  0.00    +0.055 A 
ATOM      3  C   LIG    1       29.185 -20.437   7.556  0.00  0.00    +0.027 A 
ATOM      4  C   LIG    1       28.758 -19.720   6.425  0.00  0.00    +0.126 A 
ATOM      5  C   LIG    1       27.487 -19.975   5.882  0.00  0.00    +0.049 A 
ATOM      6  C   LIG    1       26.650 -20.938   6.450  0.00  0.00    +0.049 A 
ENDROOT
BRANCH   1   8
ATOM      7  C   LIG    1       25.862 -23.691   7.230  0.00  0.00    +0.277 C 
ATOM      8  O   LIG    1       26.168 -22.571   8.053  0.00  0.00    -0.495 OA
ENDBRANCH   1   8
BRANCH   4   9
ATOM      9  O   LIG    1       29.632 -18.788   5.928  0.00  0.00    -0.495 OA
ATOM     10  C   LIG    1       29.119 -17.869   4.970  0.00  0.00    +0.277 C 
ENDBRANCH   4   9
BRANCH   3  11
ATOM     11  C   LIG    1       30.511 -20.141   8.258  0.00  0.00    +0.165 C 
BRANCH  11  12
ATOM     12  C   LIG    1       30.570 -18.771   9.004  0.00  0.00    +0.081 C 
ATOM     13  C   LIG    1       31.764 -17.943   8.510  0.00  0.00    +0.027 C 
BRANCH  12  14
ATOM     14  N   LIG    1       30.677 -18.862  10.471  0.00  0.00    -0.325 NA
ATOM     15  H   LIG    1       31.401 -19.541  10.704  0.00  0.00    +0.118 HD
ATOM     16  H   LIG    1       31.033 -17.972  10.826  0.00  0.00    +0.118 HD
ENDBRANCH  12  14
ENDBRANCH  11  12
BRANCH  11  17
ATOM     17  O   LIG    1       31.577 -20.185   7.292  0.00  0.00    -0.386 OA
ATOM     18  H   LIG    1       32.090 -20.992   7.473  0.00  0.00    +0.210 HD
ENDBRANCH  11  17
ENDBRANCH   3  11
TORSDOF 6
ENDMDL
