MODEL 1
REMARK VINA RESULT:      -7.4      0.000      0.000
REMARK  Name = *****
REMARK                            x       y       z     vdW  Elec       q    Type
REMARK                         _______ _______ _______ _____ _____    ______ ____
ROOT
ATOM      1  C   LIG    1       26.707 -20.605   8.032  0.00  0.00    -0.000 C 
ENDROOT
BRANCH   1   2
ATOM      2  C   LIG    1       26.065 -21.985   8.300  0.00  0.00    -0.000 C 
BRANCH   2   3
ATOM      3  C   LIG    1       26.358 -23.072   7.220  0.00  0.00    -0.000 C 
BRANCH   3   4
ATOM      4  C   LIG    1       25.245 -23.371   6.165  0.00  0.00    -0.000 C 
BRANCH   4   5
ATOM      5  C   LIG    1       23.920 -23.825   6.754  0.00  0.00    -0.000 C 
BRANCH   5   6
ATOM      6  C   LIG    1       22.783 -22.786   6.745  0.00  0.00    -0.000 C 
BRANCH   6   7
ATOM      7  C   LIG    1       23.107 -21.294   7.028  0.00  0.00    -0.000 C 
BRANCH   7   8
ATOM      8  C   LIG    1       22.967 -20.226   5.914  0.00  0.00    -0.000 C 
BRANCH   8  10
ATOM      9  C   LIG    1       23.849 -19.192   3.693  0.00  0.00    +0.004 C 
ATOM     10  C   LIG    1       23.597 -20.439   4.539  0.00  0.00    -0.003 C 
ENDBRANCH   8  10
ENDBRANCH   7   8
ENDBRANCH   6   7
ENDBRANCH   5   6
ENDBRANCH   4   5
ENDBRANCH   3   4
ENDBRANCH   2   3
ENDBRANCH   1   2
BRANCH   1  11
ATOM     11  C   LIG    1       26.777 -20.320   6.532  0.00  0.00    +0.000 C 
BRANCH  11  12
ATOM     12  C   LIG    1       28.162 -20.072   5.954  0.00  0.00    +0.002 C 
BRANCH  12  13
ATOM     13  C   LIG    1       29.110 -19.281   6.856  0.00  0.00    +0.030 C 
BRANCH  13  14
ATOM     14  C   LIG    1       30.403 -20.020   7.232  0.00  0.00    +0.196 C 
BRANCH  14  15
ATOM     15  O   LIG    1       30.207 -21.137   8.094  0.00  0.00    -0.216 OA
BRANCH  15  16
ATOM     16  S   LIG    1       31.360 -21.578   9.151  0.00  0.00    +0.207 S 
ATOM     17  O   LIG    1       30.703 -22.292  10.274  0.00  0.00    -0.118 OA
ATOM     18  O   LIG    1       32.282 -20.532   9.372  0.00  0.00    -0.118 OA
BRANCH  16  19
ATOM     19  O   LIG    1       32.160 -22.752   8.407  0.00  0.00    -0.231 OA
ATOM     20  H   LIG    1       32.180 -22.494   7.462  0.00  0.00    +0.247 HD
ENDBRANCH  16  19
ENDBRANCH  15  16
ENDBRANCH  14  15
ENDBRANCH  13  14
ENDBRANCH  12  13
ENDBRANCH  11  12
ENDBRANCH   1  11
TORSDOF 15
ENDMDL
MODEL 2
REMARK VINA RESULT:      -7.3      2.074      2.640
REMARK  Name = *****
REMARK                            x       y       z     vdW  Elec       q    Type
REMARK                         _______ _______ _______ _____ _____    ______ ____
ROOT
ATOM      1  C   LIG    1       26.740 -20.902   8.272  0.00  0.00    -0.000 C 
ENDROOT
BRANCH   1   2
ATOM      2  C   LIG    1       26.024 -22.270   8.342  0.00  0.00    -0.000 C 
BRANCH   2   3
ATOM      3  C   LIG    1       25.720 -22.930   6.962  0.00  0.00    -0.000 C 
BRANCH   3   4
ATOM      4  C   LIG    1       24.222 -23.113   6.556  0.00  0.00    -0.000 C 
BRANCH   4   5
ATOM      5  C   LIG    1       23.257 -22.168   7.251  0.00  0.00    -0.000 C 
BRANCH   5   6
ATOM      6  C   LIG    1       23.182 -20.739   6.683  0.00  0.00    -0.000 C 
BRANCH   6   7
ATOM      7  C   LIG    1       22.507 -20.497   5.307  0.00  0.00    -0.000 C 
BRANCH   7   8
ATOM      8  C   LIG    1       22.689 -19.152   4.558  0.00  0.00    -0.000 C 
BRANCH   8  10
ATOM      9  C   LIG    1       25.022 -19.953   3.725  0.00  0.00    +0.004 C 
ATOM     10  C   LIG    1       23.916 -18.900   3.685  0.00  0.00    -0.003 C 
ENDBRANCH   8  10
ENDBRANCH   7   8
ENDBRANCH   6   7
ENDBRANCH   5   6
ENDBRANCH   4   5
ENDBRANCH   3   4
ENDBRANCH   2   3
ENDBRANCH   1   2
BRANCH   1  11
ATOM     11  C   LIG    1       27.100 -20.552   6.828  0.00  0.00    +0.000 C 
BRANCH  11  12
ATOM     12  C   LIG    1       28.558 -20.216   6.556  0.00  0.00    +0.002 C 
BRANCH  12  13
ATOM     13  C   LIG    1       29.330 -19.654   7.751  0.00  0.00    +0.030 C 
BRANCH  13  14
ATOM     14  C   LIG    1       30.816 -19.377   7.482  0.00  0.00    +0.196 C 
BRANCH  14  15
ATOM     15  O   LIG    1       31.189 -18.009   7.614  0.00  0.00    -0.216 OA
BRANCH  15  16
ATOM     16  S   LIG    1       31.459 -17.364   9.081  0.00  0.00    +0.207 S 
ATOM     17  O   LIG    1       32.199 -18.361   9.892  0.00  0.00    -0.118 OA
ATOM     18  O   LIG    1       30.310 -16.708   9.574  0.00  0.00    -0.118 OA
BRANCH  16  19
ATOM     19  O   LIG    1       32.564 -16.230   8.823  0.00  0.00    -0.231 OA
ATOM     20  H   LIG    1       32.638 -16.156   7.849  0.00  0.00    +0.247 HD
ENDBRANCH  16  19
ENDBRANCH  15  16
ENDBRANCH  14  15
ENDBRANCH  13  14
ENDBRANCH  12  13
ENDBRANCH  11  12
ENDBRANCH   1  11
TORSDOF 15
ENDMDL
MODEL 3
REMARK VINA RESULT:      -7.2      1.520      2.398
REMARK  Name = *****
REMARK                            x       y       z     vdW  Elec       q    Type
REMARK                         _______ _______ _______ _____ _____    ______ ____
ROOT
ATOM      1  C   LIG    1       25.706 -21.900   8.355  0.00  0.00    -0.000 C 
ENDROOT
BRANCH   1   2
ATOM      2  C   LIG    1       25.735 -23.143   7.436  0.00  0.00    -0.000 C 
BRANCH   2   3
ATOM      3  C   LIG    1       24.372 -23.505   6.770  0.00  0.00    -0.000 C 
BRANCH   3   4
ATOM      4  C   LIG    1       23.155 -22.563   7.041  0.00  0.00    -0.000 C 
BRANCH   4   5
ATOM      5  C   LIG    1       22.755 -21.691   5.863  0.00  0.00    -0.000 C 
BRANCH   5   6
ATOM      6  C   LIG    1       22.891 -20.171   6.070  0.00  0.00    -0.000 C 
BRANCH   6   7
ATOM      7  C   LIG    1       22.587 -19.208   4.890  0.00  0.00    -0.000 C 
BRANCH   7   8
ATOM      8  C   LIG    1       23.610 -19.012   3.743  0.00  0.00    -0.000 C 
BRANCH   8  10
ATOM      9  C   LIG    1       25.975 -19.788   4.509  0.00  0.00    +0.004 C 
ATOM     10  C   LIG    1       24.786 -19.970   3.567  0.00  0.00    -0.003 C 
ENDBRANCH   8  10
ENDBRANCH   7   8
ENDBRANCH   6   7
ENDBRANCH   5   6
ENDBRANCH   4   5
ENDBRANCH   3   4
ENDBRANCH   2   3
ENDBRANCH   1   2
BRANCH   1  11
ATOM     11  C   LIG    1       26.808 -20.914   7.968  0.00  0.00    +0.000 C 
BRANCH  11  12
ATOM     12  C   LIG    1       27.999 -21.489   7.216  0.00  0.00    +0.002 C 
BRANCH  12  13
ATOM     13  C   LIG    1       29.336 -20.802   7.495  0.00  0.00    +0.030 C 
BRANCH  13  14
ATOM     14  C   LIG    1       29.224 -19.334   7.934  0.00  0.00    +0.196 C 
BRANCH  14  15
ATOM     15  O   LIG    1       30.012 -19.004   9.074  0.00  0.00    -0.216 OA
BRANCH  15  16
ATOM     16  S   LIG    1       31.629 -18.904   8.961  0.00  0.00    +0.207 S 
ATOM     17  O   LIG    1       32.126 -18.154  10.141  0.00  0.00    -0.118 OA
ATOM     18  O   LIG    1       32.033 -18.578   7.648  0.00  0.00    -0.118 OA
BRANCH  16  19
ATOM     19  O   LIG    1       32.146 -20.395   9.248  0.00  0.00    -0.231 OA
ATOM     20  H   LIG    1       33.014 -20.289   9.689  0.00  0.00    +0.247 HD
ENDBRANCH  16  19
ENDBRANCH  15  16
ENDBRANCH  14  15
ENDBRANCH  13  14
ENDBRANCH  12  13
ENDBRANCH  11  12
ENDBRANCH   1  11
TORSDOF 15
ENDMDL
MODEL 4
REMARK VINA RESULT:      -7.0      1.626      3.696
REMARK  Name = *****
REMARK                            x       y       z     vdW  Elec       q    Type
REMARK                         _______ _______ _______ _____ _____    ______ ____
ROOT
ATOM      1  C   LIG    1       26.042 -19.506   4.133  0.00  0.00    -0.000 C 
ENDROOT
BRANCH   1   2
ATOM      2  C   LIG    1       24.692 -20.004   3.570  0.00  0.00    -0.000 C 
BRANCH   2   3
ATOM      3  C   LIG    1       23.472 -19.077   3.859  0.00  0.00    -0.000 C 
BRANCH   3   4
ATOM      4  C   LIG    1       22.603 -19.387   5.120  0.00  0.00    -0.000 C 
BRANCH   4   5
ATOM      5  C   LIG    1       22.489 -20.862   5.463  0.00  0.00    -0.000 C 
BRANCH   5   6
ATOM      6  C   LIG    1       23.178 -21.309   6.766  0.00  0.00    -0.000 C 
BRANCH   6   7
ATOM      7  C   LIG    1       23.537 -22.806   6.967  0.00  0.00    -0.000 C 
BRANCH   7   8
ATOM      8  C   LIG    1       25.002 -23.295   6.836  0.00  0.00    -0.000 C 
BRANCH   8  10
ATOM      9  C   LIG    1       24.213 -25.664   6.098  0.00  0.00    +0.004 C 
ATOM     10  C   LIG    1       25.321 -24.779   6.665  0.00  0.00    -0.003 C 
ENDBRANCH   8  10
ENDBRANCH   7   8
ENDBRANCH   6   7
ENDBRANCH   5   6
ENDBRANCH   4   5
ENDBRANCH   3   4
ENDBRANCH   2   3
ENDBRANCH   1   2
BRANCH   1  11
ATOM     11  C   LIG    1       26.368 -20.201   5.455  0.00  0.00    +0.000 C 
BRANCH  11  12
ATOM     12  C   LIG    1       27.813 -20.123   5.923  0.00  0.00    +0.002 C 
BRANCH  12  13
ATOM     13  C   LIG    1       28.066 -20.643   7.339  0.00  0.00    +0.030 C 
BRANCH  13  14
ATOM     14  C   LIG    1       29.489 -20.403   7.865  0.00  0.00    +0.196 C 
BRANCH  14  15
ATOM     15  O   LIG    1       29.636 -19.209   8.628  0.00  0.00    -0.216 OA
BRANCH  15  16
ATOM     16  S   LIG    1       31.093 -18.760   9.190  0.00  0.00    +0.207 S 
ATOM     17  O   LIG    1       30.968 -18.518  10.649  0.00  0.00    -0.118 OA
ATOM     18  O   LIG    1       31.710 -17.826   8.330  0.00  0.00    -0.118 OA
BRANCH  16  19
ATOM     19  O   LIG    1       31.976 -20.098   9.131  0.00  0.00    -0.231 OA
ATOM     20  H   LIG    1       31.339 -20.835   9.235  0.00  0.00    +0.247 HD
ENDBRANCH  16  19
ENDBRANCH  15  16
ENDBRANCH  14  15
ENDBRANCH  13  14
ENDBRANCH  12  13
ENDBRANCH  11  12
ENDBRANCH   1  11
TORSDOF 15
ENDMDL
MODEL 5
REMARK VINA RESULT:      -7.0      2.381      3.768
REMARK  Name = *****
REMARK                            x       y       z     vdW  Elec       q    Type
REMARK                         _______ _______ _______ _____ _____    ______ ____
ROOT
ATOM      1  C   LIG    1       26.931 -20.653   6.959  0.00  0.00    -0.000 C 
ENDROOT
BRANCH   1   2
ATOM      2  C   LIG    1       26.676 -20.075   5.549  0.00  0.00    -0.000 C 
BRANCH   2   3
ATOM      3  C   LIG    1       25.542 -20.778   4.740  0.00  0.00    -0.000 C 
BRANCH   3   4
ATOM      4  C   LIG    1       24.202 -20.001   4.538  0.00  0.00    -0.000 C 
BRANCH   4   5
ATOM      5  C   LIG    1       23.039 -20.519   5.367  0.00  0.00    -0.000 C 
BRANCH   5   6
ATOM      6  C   LIG    1       23.286 -20.637   6.882  0.00  0.00    -0.000 C 
BRANCH   6   7
ATOM      7  C   LIG    1       23.297 -22.040   7.548  0.00  0.00    -0.000 C 
BRANCH   7   8
ATOM      8  C   LIG    1       23.144 -23.325   6.696  0.00  0.00    -0.000 C 
BRANCH   8  10
ATOM      9  C   LIG    1       25.637 -23.995   7.036  0.00  0.00    +0.004 C 
ATOM     10  C   LIG    1       24.371 -24.078   6.186  0.00  0.00    -0.003 C 
ENDBRANCH   8  10
ENDBRANCH   7   8
ENDBRANCH   6   7
ENDBRANCH   5   6
ENDBRANCH   4   5
ENDBRANCH   3   4
ENDBRANCH   2   3
ENDBRANCH   1   2
BRANCH   1  11
ATOM     11  C   LIG    1       28.369 -20.388   7.403  0.00  0.00    +0.000 C 
BRANCH  11  12
ATOM     12  C   LIG    1       29.085 -19.229   6.726  0.00  0.00    +0.002 C 
BRANCH  12  13
ATOM     13  C   LIG    1       30.603 -19.375   6.622  0.00  0.00    +0.030 C 
BRANCH  13  14
ATOM     14  C   LIG    1       31.366 -19.076   7.921  0.00  0.00    +0.196 C 
BRANCH  14  15
ATOM     15  O   LIG    1       31.866 -17.745   8.013  0.00  0.00    -0.216 OA
BRANCH  15  16
ATOM     16  S   LIG    1       31.885 -16.965   9.438  0.00  0.00    +0.207 S 
ATOM     17  O   LIG    1       32.521 -15.641   9.227  0.00  0.00    -0.118 OA
ATOM     18  O   LIG    1       32.281 -17.823  10.488  0.00  0.00    -0.118 OA
BRANCH  16  19
ATOM     19  O   LIG    1       30.351 -16.580   9.706  0.00  0.00    -0.231 OA
ATOM     20  H   LIG    1       30.034 -16.180   8.870  0.00  0.00    +0.247 HD
ENDBRANCH  16  19
ENDBRANCH  15  16
ENDBRANCH  14  15
ENDBRANCH  13  14
ENDBRANCH  12  13
ENDBRANCH  11  12
ENDBRANCH   1  11
TORSDOF 15
ENDMDL
MODEL 6
REMARK VINA RESULT:      -6.9      1.025      2.945
REMARK  Name = *****
REMARK                            x       y       z     vdW  Elec       q    Type
REMARK                         _______ _______ _______ _____ _____    ______ ____
ROOT
ATOM      1  C   LIG    1       26.456 -20.818   5.697  0.00  0.00    -0.000 C 
ENDROOT
BRANCH   1   2
ATOM      2  C   LIG    1       26.355 -19.582   4.775  0.00  0.00    -0.000 C 
BRANCH   2   3
ATOM      3  C   LIG    1       25.303 -19.695   3.628  0.00  0.00    -0.000 C 
BRANCH   3   4
ATOM      4  C   LIG    1       24.109 -20.682   3.830  0.00  0.00    -0.000 C 
BRANCH   4   5
ATOM      5  C   LIG    1       22.992 -20.154   4.714  0.00  0.00    -0.000 C 
BRANCH   5   6
ATOM      6  C   LIG    1       22.291 -21.190   5.611  0.00  0.00    -0.000 C 
BRANCH   6   7
ATOM      7  C   LIG    1       23.135 -22.047   6.593  0.00  0.00    -0.000 C 
BRANCH   7   8
ATOM      8  C   LIG    1       22.875 -23.568   6.744  0.00  0.00    -0.000 C 
BRANCH   8  10
ATOM      9  C   LIG    1       25.400 -24.181   6.923  0.00  0.00    +0.004 C 
ATOM     10  C   LIG    1       23.990 -24.582   6.494  0.00  0.00    -0.003 C 
ENDBRANCH   8  10
ENDBRANCH   7   8
ENDBRANCH   6   7
ENDBRANCH   5   6
ENDBRANCH   4   5
ENDBRANCH   3   4
ENDBRANCH   2   3
ENDBRANCH   1   2
BRANCH   1  11
ATOM     11  C   LIG    1       26.247 -20.423   7.159  0.00  0.00    +0.000 C 
BRANCH  11  12
ATOM     12  C   LIG    1       27.461 -20.528   8.068  0.00  0.00    +0.002 C 
BRANCH  12  13
ATOM     13  C   LIG    1       28.589 -19.541   7.763  0.00  0.00    +0.030 C 
BRANCH  13  14
ATOM     14  C   LIG    1       29.934 -20.193   7.410  0.00  0.00    +0.196 C 
BRANCH  14  15
ATOM     15  O   LIG    1       30.136 -21.472   8.005  0.00  0.00    -0.216 OA
BRANCH  15  16
ATOM     16  S   LIG    1       31.305 -21.694   9.112  0.00  0.00    +0.207 S 
ATOM     17  O   LIG    1       30.695 -22.342  10.299  0.00  0.00    -0.118 OA
ATOM     18  O   LIG    1       32.127 -20.552   9.227  0.00  0.00    -0.118 OA
BRANCH  16  19
ATOM     19  O   LIG    1       32.218 -22.863   8.502  0.00  0.00    -0.231 OA
ATOM     20  H   LIG    1       31.973 -22.917   7.555  0.00  0.00    +0.247 HD
ENDBRANCH  16  19
ENDBRANCH  15  16
ENDBRANCH  14  15
ENDBRANCH  13  14
ENDBRANCH  12  13
ENDBRANCH  11  12
ENDBRANCH   1  11
TORSDOF 15
ENDMDL
MODEL 7
REMARK VINA RESULT:      -6.9      2.069      4.035
REMARK  Name = *****
REMARK                            x       y       z     vdW  Elec       q    Type
REMARK                         _______ _______ _______ _____ _____    ______ ____
ROOT
ATOM      1  C   LIG    1       24.601 -20.698   7.929  0.00  0.00    -0.000 C 
ENDROOT
BRANCH   1   2
ATOM      2  C   LIG    1       24.399 -20.772   6.399  0.00  0.00    -0.000 C 
BRANCH   2   3
ATOM      3  C   LIG    1       23.342 -21.815   5.921  0.00  0.00    -0.000 C 
BRANCH   3   4
ATOM      4  C   LIG    1       22.996 -22.996   6.884  0.00  0.00    -0.000 C 
BRANCH   4   5
ATOM      5  C   LIG    1       23.671 -24.312   6.539  0.00  0.00    -0.000 C 
BRANCH   5   6
ATOM      6  C   LIG    1       25.189 -24.382   6.793  0.00  0.00    -0.000 C 
BRANCH   6   7
ATOM      7  C   LIG    1       26.002 -25.584   6.242  0.00  0.00    -0.000 C 
BRANCH   7   8
ATOM      8  C   LIG    1       25.936 -26.971   6.931  0.00  0.00    -0.000 C 
BRANCH   8  10
ATOM      9  C   LIG    1       24.604 -29.149   7.442  0.00  0.00    +0.004 C 
ATOM     10  C   LIG    1       24.952 -28.037   6.454  0.00  0.00    -0.003 C 
ENDBRANCH   8  10
ENDBRANCH   7   8
ENDBRANCH   6   7
ENDBRANCH   5   6
ENDBRANCH   4   5
ENDBRANCH   3   4
ENDBRANCH   2   3
ENDBRANCH   1   2
BRANCH   1  11
ATOM     11  C   LIG    1       26.043 -21.041   8.304  0.00  0.00    +0.000 C 
BRANCH  11  12
ATOM     12  C   LIG    1       27.111 -20.690   7.280  0.00  0.00    +0.002 C 
BRANCH  12  13
ATOM     13  C   LIG    1       28.255 -19.821   7.807  0.00  0.00    +0.030 C 
BRANCH  13  14
ATOM     14  C   LIG    1       29.660 -20.322   7.442  0.00  0.00    +0.196 C 
BRANCH  14  15
ATOM     15  O   LIG    1       30.022 -21.550   8.066  0.00  0.00    -0.216 OA
BRANCH  15  16
ATOM     16  S   LIG    1       31.254 -21.608   9.125  0.00  0.00    +0.207 S 
ATOM     17  O   LIG    1       30.753 -22.227  10.377  0.00  0.00    -0.118 OA
ATOM     18  O   LIG    1       31.983 -20.400   9.132  0.00  0.00    -0.118 OA
BRANCH  16  19
ATOM     19  O   LIG    1       32.232 -22.738   8.541  0.00  0.00    -0.231 OA
ATOM     20  H   LIG    1       32.128 -22.693   7.568  0.00  0.00    +0.247 HD
ENDBRANCH  16  19
ENDBRANCH  15  16
ENDBRANCH  14  15
ENDBRANCH  13  14
ENDBRANCH  12  13
ENDBRANCH  11  12
ENDBRANCH   1  11
TORSDOF 15
ENDMDL
MODEL 8
REMARK VINA RESULT:      -6.9      2.324      4.117
REMARK  Name = *****
REMARK                            x       y       z     vdW  Elec       q    Type
REMARK                         _______ _______ _______ _____ _____    ______ ____
ROOT
ATOM      1  C   LIG    1       25.374 -20.722   7.875  0.00  0.00    -0.000 C 
ENDROOT
BRANCH   1   2
ATOM      2  C   LIG    1       24.826 -20.599   6.435  0.00  0.00    -0.000 C 
BRANCH   2   3
ATOM      3  C   LIG    1       23.475 -21.335   6.175  0.00  0.00    -0.000 C 
BRANCH   3   4
ATOM      4  C   LIG    1       23.041 -22.442   7.189  0.00  0.00    -0.000 C 
BRANCH   4   5
ATOM      5  C   LIG    1       23.275 -23.865   6.712  0.00  0.00    -0.000 C 
BRANCH   5   6
ATOM      6  C   LIG    1       24.740 -24.339   6.689  0.00  0.00    -0.000 C 
BRANCH   6   7
ATOM      7  C   LIG    1       25.354 -24.865   5.364  0.00  0.00    -0.000 C 
BRANCH   7   8
ATOM      8  C   LIG    1       25.363 -26.381   5.040  0.00  0.00    -0.000 C 
BRANCH   8  10
ATOM      9  C   LIG    1       25.007 -28.257   6.810  0.00  0.00    +0.004 C 
ATOM     10  C   LIG    1       24.407 -27.340   5.746  0.00  0.00    -0.003 C 
ENDBRANCH   8  10
ENDBRANCH   7   8
ENDBRANCH   6   7
ENDBRANCH   5   6
ENDBRANCH   4   5
ENDBRANCH   3   4
ENDBRANCH   2   3
ENDBRANCH   1   2
BRANCH   1  11
ATOM     11  C   LIG    1       26.901 -20.677   7.881  0.00  0.00    +0.000 C 
BRANCH  11  12
ATOM     12  C   LIG    1       27.570 -20.224   6.593  0.00  0.00    +0.002 C 
BRANCH  12  13
ATOM     13  C   LIG    1       29.099 -20.252   6.610  0.00  0.00    +0.030 C 
BRANCH  13  14
ATOM     14  C   LIG    1       29.768 -18.878   6.454  0.00  0.00    +0.196 C 
BRANCH  14  15
ATOM     15  O   LIG    1       31.083 -18.804   6.996  0.00  0.00    -0.216 OA
BRANCH  15  16
ATOM     16  S   LIG    1       31.319 -18.333   8.533  0.00  0.00    +0.207 S 
ATOM     17  O   LIG    1       32.084 -19.397   9.227  0.00  0.00    -0.118 OA
ATOM     18  O   LIG    1       30.145 -17.778   9.086  0.00  0.00    -0.118 OA
BRANCH  16  19
ATOM     19  O   LIG    1       32.389 -17.142   8.428  0.00  0.00    -0.231 OA
ATOM     20  H   LIG    1       32.145 -16.511   9.136  0.00  0.00    +0.247 HD
ENDBRANCH  16  19
ENDBRANCH  15  16
ENDBRANCH  14  15
ENDBRANCH  13  14
ENDBRANCH  12  13
ENDBRANCH  11  12
ENDBRANCH   1  11
TORSDOF 15
ENDMDL
MODEL 9
REMARK VINA RESULT:      -6.8      1.823      2.715
REMARK  Name = *****
REMARK                            x       y       z     vdW  Elec       q    Type
REMARK                         _______ _______ _______ _____ _____    ______ ____
ROOT
ATOM      1  C   LIG    1       27.296 -20.058   6.507  0.00  0.00    -0.000 C 
ENDROOT
BRANCH   1   2
ATOM      2  C   LIG    1       27.308 -20.365   8.021  0.00  0.00    -0.000 C 
BRANCH   2   3
ATOM      3  C   LIG    1       25.939 -20.822   8.615  0.00  0.00    -0.000 C 
BRANCH   3   4
ATOM      4  C   LIG    1       25.598 -22.346   8.568  0.00  0.00    -0.000 C 
BRANCH   4   5
ATOM      5  C   LIG    1       25.824 -23.005   7.219  0.00  0.00    -0.000 C 
BRANCH   5   6
ATOM      6  C   LIG    1       24.557 -23.391   6.432  0.00  0.00    -0.000 C 
BRANCH   6   7
ATOM      7  C   LIG    1       23.204 -22.717   6.784  0.00  0.00    -0.000 C 
BRANCH   7   8
ATOM      8  C   LIG    1       23.027 -21.182   6.668  0.00  0.00    -0.000 C 
BRANCH   8  10
ATOM      9  C   LIG    1       22.480 -19.394   4.855  0.00  0.00    +0.004 C 
ATOM     10  C   LIG    1       23.452 -20.437   5.404  0.00  0.00    -0.003 C 
ENDBRANCH   8  10
ENDBRANCH   7   8
ENDBRANCH   6   7
ENDBRANCH   5   6
ENDBRANCH   4   5
ENDBRANCH   3   4
ENDBRANCH   2   3
ENDBRANCH   1   2
BRANCH   1  11
ATOM     11  C   LIG    1       28.718 -20.031   5.948  0.00  0.00    +0.000 C 
BRANCH  11  12
ATOM     12  C   LIG    1       29.616 -18.904   6.434  0.00  0.00    +0.002 C 
BRANCH  12  13
ATOM     13  C   LIG    1       31.020 -19.331   6.865  0.00  0.00    +0.030 C 
BRANCH  13  14
ATOM     14  C   LIG    1       31.095 -19.971   8.259  0.00  0.00    +0.196 C 
BRANCH  14  15
ATOM     15  O   LIG    1       31.973 -19.304   9.161  0.00  0.00    -0.216 OA
BRANCH  15  16
ATOM     16  S   LIG    1       31.639 -17.802   9.684  0.00  0.00    +0.207 S 
ATOM     17  O   LIG    1       30.245 -17.794  10.192  0.00  0.00    -0.118 OA
ATOM     18  O   LIG    1       32.107 -16.827   8.777  0.00  0.00    -0.118 OA
BRANCH  16  19
ATOM     19  O   LIG    1       32.504 -17.642  11.025  0.00  0.00    -0.231 OA
ATOM     20  H   LIG    1       32.052 -16.943  11.543  0.00  0.00    +0.247 HD
ENDBRANCH  16  19
ENDBRANCH  15  16
ENDBRANCH  14  15
ENDBRANCH  13  14
ENDBRANCH  12  13
ENDBRANCH  11  12
ENDBRANCH   1  11
TORSDOF 15
ENDMDL
