MODEL 1
REMARK VINA RESULT:      -3.2      0.000      0.000
REMARK  Name = *****
REMARK                            x       y       z     vdW  Elec       q    Type
REMARK                         _______ _______ _______ _____ _____    ______ ____
ROOT
ATOM      1  C   LIG    1       24.447 -32.071   5.244  0.00  0.00    +0.003 C 
ATOM      2  C   LIG    1       24.948 -31.007   6.145  0.00  0.00    +0.049 C 
ATOM      3  N   LIG    1       24.228 -31.132   7.298  0.00  0.00    -0.354 N 
ATOM      4  H   LIG    1       24.456 -30.624   8.148  0.00  0.00    +0.166 HD
ATOM      5  C   LIG    1       23.323 -32.146   7.259  0.00  0.00    +0.045 C 
ATOM      6  C   LIG    1       22.476 -32.532   8.217  0.00  0.00    +0.053 C 
ATOM      7  C   LIG    1       22.428 -31.854   9.527  0.00  0.00    +0.070 C 
ATOM      8  C   LIG    1       21.363 -32.254  10.481  0.00  0.00    -0.009 C 
ATOM      9  C   LIG    1       21.131 -33.526  10.813  0.00  0.00    +0.007 C 
ATOM     10  C   LIG    1       20.758 -33.825  12.176  0.00  0.00    +0.012 C 
ATOM     11  C   LIG    1       20.495 -32.887  13.103  0.00  0.00    +0.051 C 
ATOM     12  C   LIG    1       20.419 -31.409  12.686  0.00  0.00    +0.150 C 
ATOM     13  C   LIG    1       21.228 -31.048  11.373  0.00  0.00    +0.054 C 
ATOM     14  C   LIG    1       20.440 -29.942  10.594  0.00  0.00    +0.024 C 
ATOM     15  C   LIG    1       22.716 -30.634  11.303  0.00  0.00    +0.055 C 
ATOM     16  C   LIG    1       23.510 -30.222  12.309  0.00  0.00    +0.050 C 
ATOM     17  C   LIG    1       24.826 -29.699  12.174  0.00  0.00    +0.045 C 
ATOM     18  C   LIG    1       25.786 -29.292  13.091  0.00  0.00    -0.022 C 
ATOM     19  C   LIG    1       25.756 -29.547  14.562  0.00  0.00    +0.046 C 
ATOM     20  C   LIG    1       26.730 -28.476  12.368  0.00  0.00    -0.019 C 
ATOM     21  C   LIG    1       26.288 -28.433  11.053  0.00  0.00    +0.045 C 
ATOM     22  C   LIG    1       26.529 -27.567   9.956  0.00  0.00    +0.053 C 
ATOM     23  C   LIG    1       26.344 -27.894   8.666  0.00  0.00    +0.070 C 
ATOM     24  C   LIG    1       26.238 -26.958   7.561  0.00  0.00    -0.017 C 
ATOM     25  C   LIG    1       26.205 -27.623   6.396  0.00  0.00    -0.020 C 
ATOM     26  C   LIG    1       25.994 -27.186   4.999  0.00  0.00    +0.046 C 
ATOM     27  C   LIG    1       26.111 -29.018   6.871  0.00  0.00    +0.070 C 
ATOM     28  N   LIG    1       26.157 -29.160   8.164  0.00  0.00    -0.247 NA
ATOM     29  N   LIG    1       25.303 -29.378  10.933  0.00  0.00    -0.354 NA
ATOM     30  H   LIG    1       24.834 -29.623  10.068  0.00  0.00    +0.166 HD
ATOM     31  N   LIG    1       23.191 -30.904  10.007  0.00  0.00    -0.251 NA
ATOM     32  C   LIG    1       25.887 -30.090   5.876  0.00  0.00    +0.054 C 
ATOM     33  C   LIG    1       23.455 -32.729   5.915  0.00  0.00    -0.018 C 
ATOM     34  C   LIG    1       22.557 -33.823   5.442  0.00  0.00    +0.046 C 
ENDROOT
BRANCH   1  36
ATOM     35  C   LIG    1       25.989 -32.838   3.479  0.00  0.00    +0.009 C 
ATOM     36  C   LIG    1       24.821 -32.309   3.867  0.00  0.00    +0.002 C 
ENDBRANCH   1  36
BRANCH  11  37
ATOM     37  C   LIG    1       20.117 -33.293  14.458  0.00  0.00    +0.336 C 
ATOM     38  O   LIG    1       20.879 -33.291  15.396  0.00  0.00    -0.245 OA
BRANCH  37  39
ATOM     39  O   LIG    1       18.776 -33.595  14.509  0.00  0.00    -0.465 OA
ATOM     40  C   LIG    1       17.981 -32.720  15.305  0.00  0.00    +0.280 C 
ENDBRANCH  37  39
ENDBRANCH  11  37
BRANCH  12  41
ATOM     41  C   LIG    1       20.645 -30.339  13.757  0.00  0.00    +0.316 C 
ATOM     42  O   LIG    1       21.501 -30.344  14.621  0.00  0.00    -0.250 OA
BRANCH  41  43
ATOM     43  O   LIG    1       19.820 -29.275  13.488  0.00  0.00    -0.468 OA
ATOM     44  C   LIG    1       20.416 -27.987  13.660  0.00  0.00    +0.280 C 
ENDBRANCH  41  43
ENDBRANCH  12  41
BRANCH  20  45
ATOM     45  C   LIG    1       27.892 -27.722  12.943  0.00  0.00    +0.048 C 
BRANCH  45  46
ATOM     46  C   LIG    1       27.497 -26.793  14.075  0.00  0.00    +0.125 C 
BRANCH  46  47
ATOM     47  C   LIG    1       26.392 -25.852  13.681  0.00  0.00    +0.307 C 
ATOM     48  O   LIG    1       26.516 -24.930  12.885  0.00  0.00    -0.251 OA
BRANCH  47  49
ATOM     49  O   LIG    1       25.298 -26.095  14.453  0.00  0.00    -0.468 OA
ATOM     50  C   LIG    1       24.054 -25.891  13.791  0.00  0.00    +0.280 C 
ENDBRANCH  47  49
ENDBRANCH  46  47
ENDBRANCH  45  46
ENDBRANCH  20  45
BRANCH  24  51
ATOM     51  C   LIG    1       25.914 -25.504   7.767  0.00  0.00    +0.048 C 
BRANCH  51  52
ATOM     52  C   LIG    1       25.546 -24.879   6.413  0.00  0.00    +0.125 C 
BRANCH  52  53
ATOM     53  C   LIG    1       24.169 -24.279   6.437  0.00  0.00    +0.305 C 
ATOM     54  O   LIG    1       23.949 -23.090   6.628  0.00  0.00    -0.251 OA
BRANCH  53  55
ATOM     55  O   LIG    1       23.178 -25.168   6.210  0.00  0.00    -0.481 OA
ATOM     56  H   LIG    1       22.387 -25.055   6.772  0.00  0.00    +0.295 HD
ENDBRANCH  53  55
ENDBRANCH  52  53
ENDBRANCH  51  52
ENDBRANCH  24  51
TORSDOF 13
ENDMDL
MODEL 2
REMARK VINA RESULT:      -0.5      3.438      8.109
REMARK  Name = *****
REMARK                            x       y       z     vdW  Elec       q    Type
REMARK                         _______ _______ _______ _____ _____    ______ ____
ROOT
ATOM      1  C   LIG    1       22.065 -31.498  13.528  0.00  0.00    +0.003 C 
ATOM      2  C   LIG    1       23.097 -30.571  13.009  0.00  0.00    +0.049 C 
ATOM      3  N   LIG    1       23.396 -31.021  11.754  0.00  0.00    -0.354 N 
ATOM      4  H   LIG    1       23.972 -30.494  11.104  0.00  0.00    +0.166 HD
ATOM      5  C   LIG    1       22.685 -32.121  11.394  0.00  0.00    +0.045 C 
ATOM      6  C   LIG    1       22.737 -32.796  10.242  0.00  0.00    +0.053 C 
ATOM      7  C   LIG    1       23.637 -32.386   9.145  0.00  0.00    +0.070 C 
ATOM      8  C   LIG    1       23.736 -33.270   7.957  0.00  0.00    -0.009 C 
ATOM      9  C   LIG    1       22.665 -33.711   7.293  0.00  0.00    +0.007 C 
ATOM     10  C   LIG    1       22.744 -33.825   5.855  0.00  0.00    +0.012 C 
ATOM     11  C   LIG    1       23.875 -33.645   5.152  0.00  0.00    +0.051 C 
ATOM     12  C   LIG    1       25.210 -33.465   5.894  0.00  0.00    +0.150 C 
ATOM     13  C   LIG    1       25.078 -32.915   7.373  0.00  0.00    +0.054 C 
ATOM     14  C   LIG    1       26.191 -33.578   8.250  0.00  0.00    +0.024 C 
ATOM     15  C   LIG    1       25.041 -31.426   7.792  0.00  0.00    +0.055 C 
ATOM     16  C   LIG    1       25.398 -30.351   7.064  0.00  0.00    +0.050 C 
ATOM     17  C   LIG    1       25.500 -29.016   7.542  0.00  0.00    +0.045 C 
ATOM     18  C   LIG    1       25.790 -27.804   6.927  0.00  0.00    -0.022 C 
ATOM     19  C   LIG    1       25.835 -27.560   5.455  0.00  0.00    +0.046 C 
ATOM     20  C   LIG    1       26.160 -26.886   7.975  0.00  0.00    -0.019 C 
ATOM     21  C   LIG    1       26.075 -27.591   9.167  0.00  0.00    +0.045 C 
ATOM     22  C   LIG    1       26.617 -27.410  10.465  0.00  0.00    +0.053 C 
ATOM     23  C   LIG    1       26.117 -27.954  11.587  0.00  0.00    +0.070 C 
ATOM     24  C   LIG    1       26.820 -28.085  12.851  0.00  0.00    -0.017 C 
ATOM     25  C   LIG    1       25.982 -28.536  13.798  0.00  0.00    -0.020 C 
ATOM     26  C   LIG    1       26.190 -28.951  15.203  0.00  0.00    +0.046 C 
ATOM     27  C   LIG    1       24.785 -28.843  12.992  0.00  0.00    +0.070 C 
ATOM     28  N   LIG    1       24.882 -28.540  11.729  0.00  0.00    -0.247 NA
ATOM     29  N   LIG    1       25.436 -28.771   8.887  0.00  0.00    -0.354 NA
ATOM     30  H   LIG    1       25.172 -29.467   9.575  0.00  0.00    +0.166 HD
ATOM     31  N   LIG    1       24.410 -31.334   9.046  0.00  0.00    -0.251 NA
ATOM     32  C   LIG    1       23.650 -29.531  13.646  0.00  0.00    +0.054 C 
ATOM     33  C   LIG    1       21.847 -32.438  12.560  0.00  0.00    -0.018 C 
ATOM     34  C   LIG    1       20.976 -33.649  12.596  0.00  0.00    +0.046 C 
ENDROOT
BRANCH   1  36
ATOM     35  C   LIG    1       20.185 -31.270  15.108  0.00  0.00    +0.009 C 
ATOM     36  C   LIG    1       21.477 -31.511  14.849  0.00  0.00    +0.002 C 
ENDBRANCH   1  36
BRANCH  11  37
ATOM     37  C   LIG    1       23.853 -33.790   3.695  0.00  0.00    +0.336 C 
ATOM     38  O   LIG    1       22.839 -33.808   3.038  0.00  0.00    -0.245 OA
BRANCH  37  39
ATOM     39  O   LIG    1       25.136 -33.825   3.199  0.00  0.00    -0.465 OA
ATOM     40  C   LIG    1       25.352 -33.076   2.006  0.00  0.00    +0.280 C 
ENDBRANCH  37  39
ENDBRANCH  11  37
BRANCH  12  41
ATOM     41  C   LIG    1       26.357 -32.759   5.166  0.00  0.00    +0.316 C 
ATOM     42  O   LIG    1       26.434 -31.574   4.909  0.00  0.00    -0.250 OA
BRANCH  41  43
ATOM     43  O   LIG    1       27.378 -33.661   4.991  0.00  0.00    -0.468 OA
ATOM     44  C   LIG    1       28.517 -33.456   5.829  0.00  0.00    +0.280 C 
ENDBRANCH  41  43
ENDBRANCH  12  41
BRANCH  20  45
ATOM     45  C   LIG    1       26.655 -25.480   7.804  0.00  0.00    +0.048 C 
BRANCH  45  46
ATOM     46  C   LIG    1       25.991 -24.751   6.651  0.00  0.00    +0.125 C 
BRANCH  46  47
ATOM     47  C   LIG    1       25.819 -23.283   6.927  0.00  0.00    +0.307 C 
ATOM     48  O   LIG    1       26.675 -22.433   6.715  0.00  0.00    -0.251 OA
BRANCH  47  49
ATOM     49  O   LIG    1       24.641 -23.082   7.578  0.00  0.00    -0.468 OA
ATOM     50  C   LIG    1       23.660 -22.388   6.815  0.00  0.00    +0.280 C 
ENDBRANCH  47  49
ENDBRANCH  46  47
ENDBRANCH  45  46
ENDBRANCH  20  45
BRANCH  24  51
ATOM     51  C   LIG    1       28.318 -28.006  12.950  0.00  0.00    +0.048 C 
BRANCH  51  52
ATOM     52  C   LIG    1       28.876 -29.413  13.207  0.00  0.00    +0.125 C 
BRANCH  52  53
ATOM     53  C   LIG    1       30.183 -29.364  13.946  0.00  0.00    +0.305 C 
ATOM     54  O   LIG    1       30.389 -28.643  14.914  0.00  0.00    -0.251 OA
BRANCH  53  55
ATOM     55  O   LIG    1       31.121 -30.206  13.462  0.00  0.00    -0.481 OA
ATOM     56  H   LIG    1       31.550 -29.913  12.635  0.00  0.00    +0.295 HD
ENDBRANCH  53  55
ENDBRANCH  52  53
ENDBRANCH  51  52
ENDBRANCH  24  51
TORSDOF 13
ENDMDL
MODEL 3
REMARK VINA RESULT:      -0.5      1.646      2.115
REMARK  Name = *****
REMARK                            x       y       z     vdW  Elec       q    Type
REMARK                         _______ _______ _______ _____ _____    ______ ____
ROOT
ATOM      1  C   LIG    1       24.261 -32.301   5.772  0.00  0.00    +0.003 C 
ATOM      2  C   LIG    1       24.850 -31.271   6.658  0.00  0.00    +0.049 C 
ATOM      3  N   LIG    1       24.078 -31.271   7.785  0.00  0.00    -0.354 N 
ATOM      4  H   LIG    1       24.333 -30.761   8.627  0.00  0.00    +0.166 HD
ATOM      5  C   LIG    1       23.064 -32.174   7.741  0.00  0.00    +0.045 C 
ATOM      6  C   LIG    1       22.143 -32.425   8.676  0.00  0.00    +0.053 C 
ATOM      7  C   LIG    1       22.126 -31.699   9.961  0.00  0.00    +0.070 C 
ATOM      8  C   LIG    1       20.989 -31.939  10.883  0.00  0.00    -0.009 C 
ATOM      9  C   LIG    1       20.598 -33.163  11.246  0.00  0.00    +0.007 C 
ATOM     10  C   LIG    1       20.143 -33.368  12.602  0.00  0.00    +0.012 C 
ATOM     11  C   LIG    1       19.957 -32.373  13.486  0.00  0.00    +0.051 C 
ATOM     12  C   LIG    1       20.070 -30.912  13.021  0.00  0.00    +0.150 C 
ATOM     13  C   LIG    1       20.962 -30.694  11.731  0.00  0.00    +0.054 C 
ATOM     14  C   LIG    1       20.337 -29.534  10.886  0.00  0.00    +0.024 C 
ATOM     15  C   LIG    1       22.490 -30.457  11.708  0.00  0.00    +0.055 C 
ATOM     16  C   LIG    1       23.290 -30.103  12.732  0.00  0.00    +0.050 C 
ATOM     17  C   LIG    1       24.661 -29.740  12.633  0.00  0.00    +0.045 C 
ATOM     18  C   LIG    1       25.629 -29.414  13.575  0.00  0.00    -0.022 C 
ATOM     19  C   LIG    1       25.515 -29.610  15.050  0.00  0.00    +0.046 C 
ATOM     20  C   LIG    1       26.686 -28.739  12.865  0.00  0.00    -0.019 C 
ATOM     21  C   LIG    1       26.301 -28.693  11.532  0.00  0.00    +0.045 C 
ATOM     22  C   LIG    1       26.681 -27.900  10.419  0.00  0.00    +0.053 C 
ATOM     23  C   LIG    1       26.506 -28.250   9.134  0.00  0.00    +0.070 C 
ATOM     24  C   LIG    1       26.551 -27.348   7.996  0.00  0.00    -0.017 C 
ATOM     25  C   LIG    1       26.482 -28.047   6.852  0.00  0.00    -0.020 C 
ATOM     26  C   LIG    1       26.374 -27.639   5.435  0.00  0.00    +0.046 C 
ATOM     27  C   LIG    1       26.209 -29.403   7.367  0.00  0.00    +0.070 C 
ATOM     28  N   LIG    1       26.191 -29.504   8.665  0.00  0.00    -0.247 NA
ATOM     29  N   LIG    1       25.217 -29.521  11.402  0.00  0.00    -0.354 NA
ATOM     30  H   LIG    1       24.755 -29.742  10.528  0.00  0.00    +0.166 HD
ATOM     31  N   LIG    1       22.977 -30.827  10.441  0.00  0.00    -0.251 NA
ATOM     32  C   LIG    1       25.898 -30.478   6.398  0.00  0.00    +0.054 C 
ATOM     33  C   LIG    1       23.175 -32.816   6.423  0.00  0.00    -0.018 C 
ATOM     34  C   LIG    1       22.174 -33.816   5.949  0.00  0.00    +0.046 C 
ENDROOT
BRANCH   1  36
ATOM     35  C   LIG    1       25.830 -33.179   4.084  0.00  0.00    +0.009 C 
ATOM     36  C   LIG    1       24.655 -32.630   4.420  0.00  0.00    +0.002 C 
ENDBRANCH   1  36
BRANCH  11  37
ATOM     37  C   LIG    1       19.485 -32.683  14.837  0.00  0.00    +0.336 C 
ATOM     38  O   LIG    1       19.876 -33.627  15.483  0.00  0.00    -0.245 OA
BRANCH  37  39
ATOM     39  O   LIG    1       18.610 -31.716  15.272  0.00  0.00    -0.465 OA
ATOM     40  C   LIG    1       17.355 -31.679  14.599  0.00  0.00    +0.280 C 
ENDBRANCH  37  39
ENDBRANCH  11  37
BRANCH  12  41
ATOM     41  C   LIG    1       20.380 -29.837  14.066  0.00  0.00    +0.316 C 
ATOM     42  O   LIG    1       21.050 -29.972  15.071  0.00  0.00    -0.250 OA
BRANCH  41  43
ATOM     43  O   LIG    1       19.910 -28.633  13.601  0.00  0.00    -0.468 OA
ATOM     44  C   LIG    1       19.391 -27.758  14.605  0.00  0.00    +0.280 C 
ENDBRANCH  41  43
ENDBRANCH  12  41
BRANCH  20  45
ATOM     45  C   LIG    1       27.907 -28.104  13.463  0.00  0.00    +0.048 C 
BRANCH  45  46
ATOM     46  C   LIG    1       29.200 -28.745  12.996  0.00  0.00    +0.125 C 
BRANCH  46  47
ATOM     47  C   LIG    1       29.591 -29.924  13.844  0.00  0.00    +0.307 C 
ATOM     48  O   LIG    1       28.799 -30.723  14.328  0.00  0.00    -0.251 OA
BRANCH  47  49
ATOM     49  O   LIG    1       30.925 -29.868  14.105  0.00  0.00    -0.468 OA
ATOM     50  C   LIG    1       31.730 -29.533  12.979  0.00  0.00    +0.280 C 
ENDBRANCH  47  49
ENDBRANCH  46  47
ENDBRANCH  45  46
ENDBRANCH  20  45
BRANCH  24  51
ATOM     51  C   LIG    1       26.390 -25.860   8.143  0.00  0.00    +0.048 C 
BRANCH  51  52
ATOM     52  C   LIG    1       26.104 -25.251   6.762  0.00  0.00    +0.125 C 
BRANCH  52  53
ATOM     53  C   LIG    1       25.768 -23.791   6.861  0.00  0.00    +0.305 C 
ATOM     54  O   LIG    1       25.942 -23.121   7.871  0.00  0.00    -0.251 OA
BRANCH  53  55
ATOM     55  O   LIG    1       25.268 -23.263   5.723  0.00  0.00    -0.481 OA
ATOM     56  H   LIG    1       24.442 -22.754   5.834  0.00  0.00    +0.295 HD
ENDBRANCH  53  55
ENDBRANCH  52  53
ENDBRANCH  51  52
ENDBRANCH  24  51
TORSDOF 13
ENDMDL
