MODEL 1
REMARK VINA RESULT:      -5.9      0.000      0.000
REMARK  Name = *****
REMARK                            x       y       z     vdW  Elec       q    Type
REMARK                         _______ _______ _______ _____ _____    ______ ____
ROOT
ATOM      1  C   LIG    1       24.424 -19.642   4.891  0.00  0.00    +0.111 C 
ENDROOT
BRANCH   1   3
ATOM      2  O   LIG    1       23.101 -20.854   6.542  0.00  0.00    -0.251 OA
ATOM      3  C   LIG    1       23.406 -20.670   5.363  0.00  0.00    +0.309 C 
BRANCH   3   4
ATOM      4  O   LIG    1       22.855 -21.406   4.379  0.00  0.00    -0.480 OA
ATOM      5  H   LIG    1       22.136 -20.924   3.904  0.00  0.00    +0.295 HD
ENDBRANCH   3   4
ENDBRANCH   1   3
BRANCH   1   6
ATOM      6  C   LIG    1       23.856 -18.784   3.737  0.00  0.00    +0.110 C 
BRANCH   6   7
ATOM      7  C   LIG    1       23.094 -17.535   4.178  0.00  0.00    +0.216 C 
ATOM      8  N   LIG    1       23.768 -16.330   4.098  0.00  0.00    -0.301 N 
ATOM      9  C   LIG    1       25.176 -16.118   3.758  0.00  0.00    +0.111 C 
ATOM     10  C   LIG    1       25.483 -14.710   4.291  0.00  0.00    +0.011 C 
ATOM     11  C   LIG    1       24.141 -13.980   4.133  0.00  0.00    +0.011 C 
ATOM     12  C   LIG    1       23.912 -13.412   2.726  0.00  0.00    +0.005 C 
ATOM     13  C   LIG    1       25.091 -12.574   2.254  0.00  0.00    +0.000 C 
ATOM     14  C   LIG    1       26.376 -13.394   2.273  0.00  0.00    +0.000 C 
ATOM     15  C   LIG    1       26.660 -13.966   3.661  0.00  0.00    +0.005 C 
ATOM     16  C   LIG    1       23.121 -15.073   4.463  0.00  0.00    +0.111 C 
ATOM     17  O   LIG    1       21.939 -17.619   4.600  0.00  0.00    -0.276 OA
ENDBRANCH   6   7
ENDBRANCH   1   6
BRANCH   1  18
ATOM     18  C   LIG    1       25.727 -20.345   4.416  0.00  0.00    +0.050 C 
BRANCH  18  19
ATOM     19  C   LIG    1       26.974 -20.055   5.227  0.00  0.00    -0.047 A 
ATOM     20  C   LIG    1       27.812 -18.985   4.870  0.00  0.00    +0.003 A 
ATOM     21  C   LIG    1       28.982 -18.716   5.579  0.00  0.00    +0.000 A 
ATOM     22  C   LIG    1       29.321 -19.499   6.677  0.00  0.00    +0.000 A 
ATOM     23  C   LIG    1       28.487 -20.549   7.062  0.00  0.00    +0.000 A 
ATOM     24  C   LIG    1       27.321 -20.830   6.339  0.00  0.00    +0.003 A 
ENDBRANCH  18  19
ENDBRANCH   1  18
TORSDOF 6
ENDMDL
MODEL 2
REMARK VINA RESULT:      -4.2      2.758      6.406
REMARK  Name = *****
REMARK                            x       y       z     vdW  Elec       q    Type
REMARK                         _______ _______ _______ _____ _____    ______ ____
ROOT
ATOM      1  C   LIG    1       24.195 -14.322   3.361  0.00  0.00    +0.111 C 
ENDROOT
BRANCH   1   3
ATOM      2  O   LIG    1       23.792 -12.116   4.318  0.00  0.00    -0.251 OA
ATOM      3  C   LIG    1       23.952 -12.820   3.321  0.00  0.00    +0.309 C 
BRANCH   3   4
ATOM      4  O   LIG    1       23.900 -12.294   2.083  0.00  0.00    -0.480 OA
ATOM      5  H   LIG    1       23.026 -12.439   1.647  0.00  0.00    +0.295 HD
ENDBRANCH   3   4
ENDBRANCH   1   3
BRANCH   1   6
ATOM      6  C   LIG    1       23.930 -14.891   4.775  0.00  0.00    +0.110 C 
BRANCH   6   7
ATOM      7  C   LIG    1       22.746 -15.851   4.871  0.00  0.00    +0.216 C 
ATOM      8  N   LIG    1       22.990 -17.179   4.571  0.00  0.00    -0.301 N 
ATOM      9  C   LIG    1       24.226 -17.761   4.046  0.00  0.00    +0.111 C 
ATOM     10  C   LIG    1       23.786 -19.110   3.458  0.00  0.00    +0.011 C 
ATOM     11  C   LIG    1       22.619 -19.521   4.368  0.00  0.00    +0.011 C 
ATOM     12  C   LIG    1       23.064 -20.215   5.662  0.00  0.00    +0.005 C 
ATOM     13  C   LIG    1       24.023 -21.365   5.388  0.00  0.00    +0.000 C 
ATOM     14  C   LIG    1       25.246 -20.874   4.622  0.00  0.00    +0.000 C 
ATOM     15  C   LIG    1       24.856 -20.192   3.313  0.00  0.00    +0.005 C 
ATOM     16  C   LIG    1       21.933 -18.184   4.664  0.00  0.00    +0.111 C 
ATOM     17  O   LIG    1       21.627 -15.440   5.185  0.00  0.00    -0.276 OA
ENDBRANCH   6   7
ENDBRANCH   1   6
BRANCH   1  18
ATOM     18  C   LIG    1       25.656 -14.648   2.941  0.00  0.00    +0.050 C 
BRANCH  18  19
ATOM     19  C   LIG    1       26.746 -13.904   3.687  0.00  0.00    -0.047 A 
ATOM     20  C   LIG    1       26.660 -13.742   5.079  0.00  0.00    +0.003 A 
ATOM     21  C   LIG    1       27.632 -13.034   5.786  0.00  0.00    +0.000 A 
ATOM     22  C   LIG    1       28.723 -12.497   5.111  0.00  0.00    +0.000 A 
ATOM     23  C   LIG    1       28.839 -12.672   3.732  0.00  0.00    +0.000 A 
ATOM     24  C   LIG    1       27.854 -13.367   3.021  0.00  0.00    +0.003 A 
ENDBRANCH  18  19
ENDBRANCH   1  18
TORSDOF 6
ENDMDL
MODEL 3
REMARK VINA RESULT:      -3.5      2.498      4.257
REMARK  Name = *****
REMARK                            x       y       z     vdW  Elec       q    Type
REMARK                         _______ _______ _______ _____ _____    ______ ____
ROOT
ATOM      1  C   LIG    1       27.166 -20.035   4.654  0.00  0.00    +0.111 C 
ENDROOT
BRANCH   1   3
ATOM      2  O   LIG    1       27.167 -19.652   7.061  0.00  0.00    -0.251 OA
ATOM      3  C   LIG    1       27.799 -19.871   6.028  0.00  0.00    +0.309 C 
BRANCH   3   4
ATOM      4  O   LIG    1       29.143 -19.964   6.041  0.00  0.00    -0.480 OA
ATOM      5  H   LIG    1       29.561 -19.313   6.654  0.00  0.00    +0.295 HD
ENDBRANCH   3   4
ENDBRANCH   1   3
BRANCH   1   6
ATOM      6  C   LIG    1       26.674 -18.677   4.101  0.00  0.00    +0.110 C 
BRANCH   6   7
ATOM      7  C   LIG    1       27.649 -17.516   4.284  0.00  0.00    +0.216 C 
ATOM      8  N   LIG    1       27.172 -16.248   4.007  0.00  0.00    -0.301 N 
ATOM      9  C   LIG    1       25.873 -15.890   3.435  0.00  0.00    +0.111 C 
ATOM     10  C   LIG    1       26.076 -14.462   2.907  0.00  0.00    +0.011 C 
ATOM     11  C   LIG    1       27.100 -13.872   3.887  0.00  0.00    +0.011 C 
ATOM     12  C   LIG    1       26.473 -13.321   5.174  0.00  0.00    +0.005 C 
ATOM     13  C   LIG    1       25.327 -12.363   4.882  0.00  0.00    +0.000 C 
ATOM     14  C   LIG    1       24.255 -13.047   4.041  0.00  0.00    +0.000 C 
ATOM     15  C   LIG    1       24.827 -13.596   2.736  0.00  0.00    +0.005 C 
ATOM     16  C   LIG    1       28.013 -15.066   4.182  0.00  0.00    +0.111 C 
ATOM     17  O   LIG    1       28.810 -17.720   4.644  0.00  0.00    -0.276 OA
ENDBRANCH   6   7
ENDBRANCH   1   6
BRANCH   1  18
ATOM     18  C   LIG    1       25.971 -21.027   4.720  0.00  0.00    +0.050 C 
BRANCH  18  19
ATOM     19  C   LIG    1       24.590 -20.405   4.751  0.00  0.00    -0.047 A 
ATOM     20  C   LIG    1       24.115 -19.691   3.638  0.00  0.00    +0.003 A 
ATOM     21  C   LIG    1       22.861 -19.081   3.651  0.00  0.00    +0.000 A 
ATOM     22  C   LIG    1       22.048 -19.198   4.773  0.00  0.00    +0.000 A 
ATOM     23  C   LIG    1       22.492 -19.926   5.877  0.00  0.00    +0.000 A 
ATOM     24  C   LIG    1       23.758 -20.523   5.870  0.00  0.00    +0.003 A 
ENDBRANCH  18  19
ENDBRANCH   1  18
TORSDOF 6
ENDMDL
