MODEL 1
REMARK VINA RESULT:      -5.6      0.000      0.000
REMARK  Name = *****
REMARK                            x       y       z     vdW  Elec       q    Type
REMARK                         _______ _______ _______ _____ _____    ______ ____
ROOT
ATOM      1  C   LIG    1       27.204 -21.524   7.190  0.00  0.00    +0.188 C 
ATOM      2  C   LIG    1       26.437 -22.658   6.563  0.00  0.00    +0.008 C 
ATOM      3  C   LIG    1       26.588 -24.018   7.085  0.00  0.00    +0.035 C 
ATOM      4  C   LIG    1       25.829 -24.998   6.581  0.00  0.00    +0.071 C 
ATOM      5  C   LIG    1       25.690 -26.411   6.946  0.00  0.00    +0.093 A 
ATOM      6  C   LIG    1       24.754 -26.966   6.087  0.00  0.00    +0.000 A 
ATOM      7  C   LIG    1       24.390 -28.282   6.250  0.00  0.00    +0.018 A 
ATOM      8  C   LIG    1       24.975 -29.028   7.290  0.00  0.00    +0.009 A 
ATOM      9  C   LIG    1       24.671 -30.403   7.515  0.00  0.00    +0.017 A 
ATOM     10  C   LIG    1       25.285 -31.054   8.596  0.00  0.00    +0.122 A 
ATOM     11  C   LIG    1       26.185 -30.389   9.421  0.00  0.00    +0.048 A 
ATOM     12  C   LIG    1       26.491 -29.050   9.172  0.00  0.00    +0.032 A 
ATOM     13  C   LIG    1       25.913 -28.345   8.129  0.00  0.00    +0.072 A 
ATOM     14  C   LIG    1       24.269 -25.960   5.100  0.00  0.00    +0.163 C 
ATOM     15  N   LIG    1       26.273 -27.052   7.966  0.00  0.00    -0.245 NA
ATOM     16  N   LIG    1       24.969 -24.751   5.526  0.00  0.00    -0.302 N 
ATOM     17  C   LIG    1       24.791 -23.527   4.937  0.00  0.00    +0.259 C 
ATOM     18  O   LIG    1       24.039 -23.321   3.996  0.00  0.00    -0.267 OA
ATOM     19  C   LIG    1       25.578 -22.416   5.556  0.00  0.00    +0.061 C 
ATOM     20  C   LIG    1       25.299 -21.064   5.005  0.00  0.00    +0.273 C 
ATOM     21  O   LIG    1       25.986 -19.984   5.662  0.00  0.00    -0.458 OA
ATOM     22  C   LIG    1       27.102 -20.203   6.389  0.00  0.00    +0.344 C 
ATOM     23  O   LIG    1       27.967 -19.333   6.496  0.00  0.00    -0.247 OA
ENDROOT
BRANCH   1  25
ATOM     24  C   LIG    1       25.375 -20.739   8.849  0.00  0.00    +0.007 C 
ATOM     25  C   LIG    1       26.802 -21.239   8.655  0.00  0.00    +0.048 C 
ENDBRANCH   1  25
BRANCH  10  26
ATOM     26  O   LIG    1       25.005 -32.370   8.834  0.00  0.00    -0.506 OA
ATOM     27  H   LIG    1       24.820 -32.818   7.992  0.00  0.00    +0.292 HD
ENDBRANCH  10  26
BRANCH   1  28
ATOM     28  O   LIG    1       28.596 -21.893   7.195  0.00  0.00    -0.373 OA
ATOM     29  H   LIG    1       29.099 -21.053   7.198  0.00  0.00    +0.211 HD
ENDBRANCH   1  28
BRANCH   9  30
ATOM     30  C   LIG    1       23.779 -31.201   6.571  0.00  0.00    +0.123 C 
BRANCH  30  31
ATOM     31  N   LIG    1       24.383 -32.412   5.973  0.00  0.00    -0.304 NA
ATOM     32  C   LIG    1       25.378 -32.075   4.955  0.00  0.00    +0.105 C 
ATOM     33  C   LIG    1       23.319 -33.225   5.370  0.00  0.00    +0.105 C 
ENDBRANCH  30  31
ENDBRANCH   9  30
TORSDOF 5
ENDMDL
MODEL 2
REMARK VINA RESULT:      -5.2      1.837      8.591
REMARK  Name = *****
REMARK                            x       y       z     vdW  Elec       q    Type
REMARK                         _______ _______ _______ _____ _____    ______ ____
ROOT
ATOM      1  C   LIG    1       25.857 -30.348   9.254  0.00  0.00    +0.188 C 
ATOM      2  C   LIG    1       25.385 -29.498   8.104  0.00  0.00    +0.008 C 
ATOM      3  C   LIG    1       25.491 -28.039   8.183  0.00  0.00    +0.035 C 
ATOM      4  C   LIG    1       25.156 -27.303   7.117  0.00  0.00    +0.071 C 
ATOM      5  C   LIG    1       25.235 -25.862   6.864  0.00  0.00    +0.093 A 
ATOM      6  C   LIG    1       24.753 -25.644   5.582  0.00  0.00    +0.000 A 
ATOM      7  C   LIG    1       24.768 -24.370   5.066  0.00  0.00    +0.018 A 
ATOM      8  C   LIG    1       25.278 -23.321   5.853  0.00  0.00    +0.009 A 
ATOM      9  C   LIG    1       25.310 -21.968   5.404  0.00  0.00    +0.017 A 
ATOM     10  C   LIG    1       25.866 -20.996   6.251  0.00  0.00    +0.122 A 
ATOM     11  C   LIG    1       26.355 -21.331   7.508  0.00  0.00    +0.048 A 
ATOM     12  C   LIG    1       26.293 -22.657   7.943  0.00  0.00    +0.032 A 
ATOM     13  C   LIG    1       25.769 -23.666   7.153  0.00  0.00    +0.072 A 
ATOM     14  C   LIG    1       24.302 -26.919   4.955  0.00  0.00    +0.163 C 
ATOM     15  N   LIG    1       25.750 -24.919   7.662  0.00  0.00    -0.245 NA
ATOM     16  N   LIG    1       24.642 -27.902   5.981  0.00  0.00    -0.302 N 
ATOM     17  C   LIG    1       24.460 -29.250   5.826  0.00  0.00    +0.259 C 
ATOM     18  O   LIG    1       23.991 -29.769   4.824  0.00  0.00    -0.267 OA
ATOM     19  C   LIG    1       24.912 -30.079   6.987  0.00  0.00    +0.061 C 
ATOM     20  C   LIG    1       24.833 -31.548   6.779  0.00  0.00    +0.273 C 
ATOM     21  O   LIG    1       25.354 -32.345   7.858  0.00  0.00    -0.458 OA
ATOM     22  C   LIG    1       25.478 -31.841   9.104  0.00  0.00    +0.344 C 
ATOM     23  O   LIG    1       25.394 -32.572  10.092  0.00  0.00    -0.247 OA
ENDROOT
BRANCH   1  25
ATOM     24  C   LIG    1       27.774 -29.685  10.867  0.00  0.00    +0.007 C 
ATOM     25  C   LIG    1       27.379 -30.255   9.509  0.00  0.00    +0.048 C 
ENDBRANCH   1  25
BRANCH  10  26
ATOM     26  O   LIG    1       25.911 -19.694   5.840  0.00  0.00    -0.506 OA
ATOM     27  H   LIG    1       26.809 -19.345   5.971  0.00  0.00    +0.292 HD
ENDBRANCH  10  26
BRANCH   1  28
ATOM     28  O   LIG    1       25.197 -29.874  10.442  0.00  0.00    -0.373 OA
ATOM     29  H   LIG    1       24.256 -29.752  10.199  0.00  0.00    +0.211 HD
ENDBRANCH   1  28
BRANCH   9  30
ATOM     30  C   LIG    1       24.684 -21.537   4.083  0.00  0.00    +0.123 C 
BRANCH  30  31
ATOM     31  N   LIG    1       23.354 -20.893   4.172  0.00  0.00    -0.304 NA
ATOM     32  C   LIG    1       23.435 -19.449   3.948  0.00  0.00    +0.105 C 
ATOM     33  C   LIG    1       22.789 -21.153   5.501  0.00  0.00    +0.105 C 
ENDBRANCH  30  31
ENDBRANCH   9  30
TORSDOF 5
ENDMDL
MODEL 3
REMARK VINA RESULT:      -5.2      7.360     11.683
REMARK  Name = *****
REMARK                            x       y       z     vdW  Elec       q    Type
REMARK                         _______ _______ _______ _____ _____    ______ ____
ROOT
ATOM      1  C   LIG    1       17.970 -31.782  11.956  0.00  0.00    +0.188 C 
ATOM      2  C   LIG    1       18.633 -30.733  12.810  0.00  0.00    +0.008 C 
ATOM      3  C   LIG    1       20.061 -30.454  12.644  0.00  0.00    +0.035 C 
ATOM      4  C   LIG    1       20.615 -29.455  13.341  0.00  0.00    +0.071 C 
ATOM      5  C   LIG    1       21.966 -28.888  13.328  0.00  0.00    +0.093 A 
ATOM      6  C   LIG    1       21.988 -27.859  14.257  0.00  0.00    +0.000 A 
ATOM      7  C   LIG    1       23.133 -27.114  14.408  0.00  0.00    +0.018 A 
ATOM      8  C   LIG    1       24.252 -27.413  13.608  0.00  0.00    +0.009 A 
ATOM      9  C   LIG    1       25.485 -26.705  13.715  0.00  0.00    +0.017 A 
ATOM     10  C   LIG    1       26.535 -27.059  12.853  0.00  0.00    +0.122 A 
ATOM     11  C   LIG    1       26.393 -28.088  11.929  0.00  0.00    +0.048 A 
ATOM     12  C   LIG    1       25.187 -28.788  11.854  0.00  0.00    +0.032 A 
ATOM     13  C   LIG    1       24.108 -28.483  12.667  0.00  0.00    +0.072 A 
ATOM     14  C   LIG    1       20.673 -27.731  14.946  0.00  0.00    +0.163 C 
ATOM     15  N   LIG    1       22.982 -29.218  12.522  0.00  0.00    -0.245 NA
ATOM     16  N   LIG    1       19.870 -28.745  14.266  0.00  0.00    -0.302 N 
ATOM     17  C   LIG    1       18.544 -28.961  14.529  0.00  0.00    +0.259 C 
ATOM     18  O   LIG    1       17.898 -28.337  15.359  0.00  0.00    -0.267 OA
ATOM     19  C   LIG    1       17.905 -30.021  13.689  0.00  0.00    +0.061 C 
ATOM     20  C   LIG    1       16.440 -30.178  13.880  0.00  0.00    +0.273 C 
ATOM     21  O   LIG    1       15.810 -31.132  13.007  0.00  0.00    -0.458 OA
ATOM     22  C   LIG    1       16.524 -32.106  12.403  0.00  0.00    +0.344 C 
ATOM     23  O   LIG    1       16.004 -33.187  12.122  0.00  0.00    -0.247 OA
ENDROOT
BRANCH   1  25
ATOM     24  C   LIG    1       18.082 -32.623   9.508  0.00  0.00    +0.007 C 
ATOM     25  C   LIG    1       17.948 -31.433  10.450  0.00  0.00    +0.048 C 
ENDBRANCH   1  25
BRANCH  10  26
ATOM     26  O   LIG    1       27.724 -26.391  12.934  0.00  0.00    -0.506 OA
ATOM     27  H   LIG    1       28.455 -27.016  12.798  0.00  0.00    +0.292 HD
ENDBRANCH  10  26
BRANCH   1  28
ATOM     28  O   LIG    1       18.726 -32.999  12.100  0.00  0.00    -0.373 OA
ATOM     29  H   LIG    1       19.587 -32.739  12.487  0.00  0.00    +0.211 HD
ENDBRANCH   1  28
BRANCH   9  30
ATOM     30  C   LIG    1       25.723 -25.648  14.787  0.00  0.00    +0.123 C 
BRANCH  30  31
ATOM     31  N   LIG    1       26.359 -24.391  14.333  0.00  0.00    -0.304 NA
ATOM     32  C   LIG    1       27.536 -24.058  15.137  0.00  0.00    +0.105 C 
ATOM     33  C   LIG    1       25.378 -23.304  14.424  0.00  0.00    +0.105 C 
ENDBRANCH  30  31
ENDBRANCH   9  30
TORSDOF 5
ENDMDL
MODEL 4
REMARK VINA RESULT:      -4.9      7.119      8.348
REMARK  Name = *****
REMARK                            x       y       z     vdW  Elec       q    Type
REMARK                         _______ _______ _______ _____ _____    ______ ____
ROOT
ATOM      1  C   LIG    1       26.753 -26.881  13.707  0.00  0.00    +0.188 C 
ATOM      2  C   LIG    1       25.261 -27.069  13.612  0.00  0.00    +0.008 C 
ATOM      3  C   LIG    1       24.711 -28.097  12.725  0.00  0.00    +0.035 C 
ATOM      4  C   LIG    1       23.391 -28.317  12.722  0.00  0.00    +0.071 C 
ATOM      5  C   LIG    1       22.569 -29.311  12.027  0.00  0.00    +0.093 A 
ATOM      6  C   LIG    1       21.251 -29.081  12.393  0.00  0.00    +0.000 A 
ATOM      7  C   LIG    1       20.267 -29.917  11.922  0.00  0.00    +0.018 A 
ATOM      8  C   LIG    1       20.627 -30.989  11.084  0.00  0.00    +0.009 A 
ATOM      9  C   LIG    1       19.668 -31.890  10.533  0.00  0.00    +0.017 A 
ATOM     10  C   LIG    1       20.129 -32.946   9.731  0.00  0.00    +0.122 A 
ATOM     11  C   LIG    1       21.482 -33.106   9.456  0.00  0.00    +0.048 A 
ATOM     12  C   LIG    1       22.405 -32.200   9.982  0.00  0.00    +0.032 A 
ATOM     13  C   LIG    1       22.020 -31.143  10.790  0.00  0.00    +0.072 A 
ATOM     14  C   LIG    1       21.145 -27.909  13.307  0.00  0.00    +0.163 C 
ATOM     15  N   LIG    1       22.987 -30.318  11.251  0.00  0.00    -0.245 NA
ATOM     16  N   LIG    1       22.545 -27.533  13.487  0.00  0.00    -0.302 N 
ATOM     17  C   LIG    1       22.956 -26.518  14.310  0.00  0.00    +0.259 C 
ATOM     18  O   LIG    1       22.200 -25.822  14.971  0.00  0.00    -0.267 OA
ATOM     19  C   LIG    1       24.439 -26.329  14.376  0.00  0.00    +0.061 C 
ATOM     20  C   LIG    1       24.900 -25.314  15.359  0.00  0.00    +0.273 C 
ATOM     21  O   LIG    1       26.328 -25.197  15.488  0.00  0.00    -0.458 OA
ATOM     22  C   LIG    1       27.158 -25.623  14.512  0.00  0.00    +0.344 C 
ATOM     23  O   LIG    1       28.253 -25.087  14.337  0.00  0.00    -0.247 OA
ENDROOT
BRANCH   1  25
ATOM     24  C   LIG    1       28.231 -28.967  13.287  0.00  0.00    +0.007 C 
ATOM     25  C   LIG    1       27.495 -28.100  14.301  0.00  0.00    +0.048 C 
ENDBRANCH   1  25
BRANCH  10  26
ATOM     26  O   LIG    1       19.229 -33.825   9.197  0.00  0.00    -0.506 OA
ATOM     27  H   LIG    1       19.349 -34.698   9.604  0.00  0.00    +0.292 HD
ENDBRANCH  10  26
BRANCH   1  28
ATOM     28  O   LIG    1       27.251 -26.690  12.370  0.00  0.00    -0.373 OA
ATOM     29  H   LIG    1       26.642 -26.053  11.942  0.00  0.00    +0.211 HD
ENDBRANCH   1  28
BRANCH   9  30
ATOM     30  C   LIG    1       18.169 -31.689  10.715  0.00  0.00    +0.123 C 
BRANCH  30  31
ATOM     31  N   LIG    1       17.594 -32.184  11.986  0.00  0.00    -0.304 NA
ATOM     32  C   LIG    1       16.883 -33.449  11.802  0.00  0.00    +0.105 C 
ATOM     33  C   LIG    1       16.671 -31.173  12.515  0.00  0.00    +0.105 C 
ENDBRANCH  30  31
ENDBRANCH   9  30
TORSDOF 5
ENDMDL
MODEL 5
REMARK VINA RESULT:      -4.8      7.426     11.233
REMARK  Name = *****
REMARK                            x       y       z     vdW  Elec       q    Type
REMARK                         _______ _______ _______ _____ _____    ______ ____
ROOT
ATOM      1  C   LIG    1       17.910 -31.016  13.961  0.00  0.00    +0.188 C 
ATOM      2  C   LIG    1       18.866 -29.856  14.051  0.00  0.00    +0.008 C 
ATOM      3  C   LIG    1       20.280 -30.050  13.722  0.00  0.00    +0.035 C 
ATOM      4  C   LIG    1       21.099 -28.992  13.715  0.00  0.00    +0.071 C 
ATOM      5  C   LIG    1       22.511 -28.853  13.350  0.00  0.00    +0.093 A 
ATOM      6  C   LIG    1       22.851 -27.521  13.528  0.00  0.00    +0.000 A 
ATOM      7  C   LIG    1       24.120 -27.101  13.201  0.00  0.00    +0.018 A 
ATOM      8  C   LIG    1       25.036 -28.038  12.688  0.00  0.00    +0.009 A 
ATOM      9  C   LIG    1       26.377 -27.693  12.345  0.00  0.00    +0.017 A 
ATOM     10  C   LIG    1       27.208 -28.692  11.814  0.00  0.00    +0.122 A 
ATOM     11  C   LIG    1       26.752 -29.993  11.643  0.00  0.00    +0.048 A 
ATOM     12  C   LIG    1       25.444 -30.321  12.007  0.00  0.00    +0.032 A 
ATOM     13  C   LIG    1       24.568 -29.381  12.526  0.00  0.00    +0.072 A 
ATOM     14  C   LIG    1       21.697 -26.738  14.052  0.00  0.00    +0.163 C 
ATOM     15  N   LIG    1       23.322 -29.793  12.852  0.00  0.00    -0.245 NA
ATOM     16  N   LIG    1       20.637 -27.742  14.088  0.00  0.00    -0.302 N 
ATOM     17  C   LIG    1       19.347 -27.467  14.458  0.00  0.00    +0.259 C 
ATOM     18  O   LIG    1       18.951 -26.363  14.800  0.00  0.00    -0.267 OA
ATOM     19  C   LIG    1       18.414 -28.635  14.385  0.00  0.00    +0.061 C 
ATOM     20  C   LIG    1       16.989 -28.320  14.665  0.00  0.00    +0.273 C 
ATOM     21  O   LIG    1       16.079 -29.422  14.505  0.00  0.00    -0.458 OA
ATOM     22  C   LIG    1       16.512 -30.700  14.546  0.00  0.00    +0.344 C 
ATOM     23  O   LIG    1       15.775 -31.604  14.942  0.00  0.00    -0.247 OA
ENDROOT
BRANCH   1  25
ATOM     24  C   LIG    1       17.939 -33.060  12.367  0.00  0.00    +0.007 C 
ATOM     25  C   LIG    1       17.726 -31.558  12.525  0.00  0.00    +0.048 C 
ENDBRANCH   1  25
BRANCH  10  26
ATOM     26  O   LIG    1       28.495 -28.383  11.473  0.00  0.00    -0.506 OA
ATOM     27  H   LIG    1       29.045 -28.366  12.273  0.00  0.00    +0.292 HD
ENDBRANCH  10  26
BRANCH   1  28
ATOM     28  O   LIG    1       18.453 -32.088  14.754  0.00  0.00    -0.373 OA
ATOM     29  H   LIG    1       18.364 -31.807  15.688  0.00  0.00    +0.211 HD
ENDBRANCH   1  28
BRANCH   9  30
ATOM     30  C   LIG    1       26.954 -26.309  12.620  0.00  0.00    +0.123 C 
BRANCH  30  31
ATOM     31  N   LIG    1       27.822 -26.191  13.813  0.00  0.00    -0.304 NA
ATOM     32  C   LIG    1       27.407 -27.104  14.878  0.00  0.00    +0.105 C 
ATOM     33  C   LIG    1       27.770 -24.808  14.302  0.00  0.00    +0.105 C 
ENDBRANCH  30  31
ENDBRANCH   9  30
TORSDOF 5
ENDMDL
MODEL 6
REMARK VINA RESULT:      -4.6      2.590      8.804
REMARK  Name = *****
REMARK                            x       y       z     vdW  Elec       q    Type
REMARK                         _______ _______ _______ _____ _____    ______ ____
ROOT
ATOM      1  C   LIG    1       24.472 -30.336   8.435  0.00  0.00    +0.188 C 
ATOM      2  C   LIG    1       24.734 -29.396   7.287  0.00  0.00    +0.008 C 
ATOM      3  C   LIG    1       24.230 -28.022   7.341  0.00  0.00    +0.035 C 
ATOM      4  C   LIG    1       24.551 -27.172   6.358  0.00  0.00    +0.071 C 
ATOM      5  C   LIG    1       24.279 -25.743   6.177  0.00  0.00    +0.093 A 
ATOM      6  C   LIG    1       24.851 -25.367   4.971  0.00  0.00    +0.000 A 
ATOM      7  C   LIG    1       24.791 -24.050   4.580  0.00  0.00    +0.018 A 
ATOM      8  C   LIG    1       24.155 -23.118   5.421  0.00  0.00    +0.009 A 
ATOM      9  C   LIG    1       24.029 -21.738   5.082  0.00  0.00    +0.017 A 
ATOM     10  C   LIG    1       23.402 -20.881   5.999  0.00  0.00    +0.122 A 
ATOM     11  C   LIG    1       22.894 -21.358   7.201  0.00  0.00    +0.048 A 
ATOM     12  C   LIG    1       23.003 -22.717   7.507  0.00  0.00    +0.032 A 
ATOM     13  C   LIG    1       23.620 -23.615   6.652  0.00  0.00    +0.072 A 
ATOM     14  C   LIG    1       25.485 -26.533   4.292  0.00  0.00    +0.163 C 
ATOM     15  N   LIG    1       23.675 -24.911   7.033  0.00  0.00    -0.245 NA
ATOM     16  N   LIG    1       25.282 -27.602   5.265  0.00  0.00    -0.302 N 
ATOM     17  C   LIG    1       25.757 -28.876   5.099  0.00  0.00    +0.259 C 
ATOM     18  O   LIG    1       26.390 -29.251   4.123  0.00  0.00    -0.267 OA
ATOM     19  C   LIG    1       25.469 -29.803   6.237  0.00  0.00    +0.061 C 
ATOM     20  C   LIG    1       26.085 -31.151   6.122  0.00  0.00    +0.273 C 
ATOM     21  O   LIG    1       25.886 -32.011   7.258  0.00  0.00    -0.458 OA
ATOM     22  C   LIG    1       24.877 -31.798   8.130  0.00  0.00    +0.344 C 
ATOM     23  O   LIG    1       24.364 -32.735   8.742  0.00  0.00    -0.247 OA
ENDROOT
BRANCH   1  25
ATOM     24  C   LIG    1       26.624 -29.526   9.631  0.00  0.00    +0.007 C 
ATOM     25  C   LIG    1       25.153 -29.906   9.755  0.00  0.00    +0.048 C 
ENDBRANCH   1  25
BRANCH  10  26
ATOM     26  O   LIG    1       23.275 -19.554   5.699  0.00  0.00    -0.506 OA
ATOM     27  H   LIG    1       23.918 -19.042   6.216  0.00  0.00    +0.292 HD
ENDBRANCH  10  26
BRANCH   1  28
ATOM     28  O   LIG    1       23.052 -30.345   8.673  0.00  0.00    -0.373 OA
ATOM     29  H   LIG    1       22.842 -31.235   9.023  0.00  0.00    +0.211 HD
ENDBRANCH   1  28
BRANCH   9  30
ATOM     30  C   LIG    1       24.470 -21.192   3.729  0.00  0.00    +0.123 C 
BRANCH  30  31
ATOM     31  N   LIG    1       25.623 -20.264   3.746  0.00  0.00    -0.304 NA
ATOM     32  C   LIG    1       26.268 -20.226   5.059  0.00  0.00    +0.105 C 
ATOM     33  C   LIG    1       25.154 -18.919   3.390  0.00  0.00    +0.105 C 
ENDBRANCH  30  31
ENDBRANCH   9  30
TORSDOF 5
ENDMDL
MODEL 7
REMARK VINA RESULT:      -4.5      6.642      8.611
REMARK  Name = *****
REMARK                            x       y       z     vdW  Elec       q    Type
REMARK                         _______ _______ _______ _____ _____    ______ ____
ROOT
ATOM      1  C   LIG    1       25.527 -26.837  14.112  0.00  0.00    +0.188 C 
ATOM      2  C   LIG    1       24.903 -27.888  13.232  0.00  0.00    +0.008 C 
ATOM      3  C   LIG    1       23.561 -28.391  13.537  0.00  0.00    +0.035 C 
ATOM      4  C   LIG    1       22.981 -29.254  12.695  0.00  0.00    +0.071 C 
ATOM      5  C   LIG    1       21.644 -29.854  12.679  0.00  0.00    +0.093 A 
ATOM      6  C   LIG    1       21.578 -30.679  11.567  0.00  0.00    +0.000 A 
ATOM      7  C   LIG    1       20.401 -31.330  11.282  0.00  0.00    +0.018 A 
ATOM      8  C   LIG    1       19.292 -31.133  12.125  0.00  0.00    +0.009 A 
ATOM      9  C   LIG    1       18.040 -31.785  11.914  0.00  0.00    +0.017 A 
ATOM     10  C   LIG    1       16.984 -31.501  12.794  0.00  0.00    +0.122 A 
ATOM     11  C   LIG    1       17.149 -30.626  13.861  0.00  0.00    +0.048 A 
ATOM     12  C   LIG    1       18.388 -30.015  14.068  0.00  0.00    +0.032 A 
ATOM     13  C   LIG    1       19.468 -30.241  13.231  0.00  0.00    +0.072 A 
ATOM     14  C   LIG    1       22.873 -30.690  10.830  0.00  0.00    +0.163 C 
ATOM     15  N   LIG    1       20.628 -29.606  13.514  0.00  0.00    -0.245 NA
ATOM     16  N   LIG    1       23.667 -29.728  11.591  0.00  0.00    -0.302 N 
ATOM     17  C   LIG    1       24.940 -29.358  11.246  0.00  0.00    +0.259 C 
ATOM     18  O   LIG    1       25.543 -29.794  10.277  0.00  0.00    -0.267 OA
ATOM     19  C   LIG    1       25.555 -28.330  12.143  0.00  0.00    +0.061 C 
ATOM     20  C   LIG    1       26.886 -27.831  11.707  0.00  0.00    +0.273 C 
ATOM     21  O   LIG    1       27.436 -26.777  12.517  0.00  0.00    -0.458 OA
ATOM     22  C   LIG    1       27.017 -26.576  13.785  0.00  0.00    +0.344 C 
ATOM     23  O   LIG    1       27.775 -26.101  14.632  0.00  0.00    -0.247 OA
ENDROOT
BRANCH   1  25
ATOM     24  C   LIG    1       24.531 -24.857  15.455  0.00  0.00    +0.007 C 
ATOM     25  C   LIG    1       24.779 -25.485  14.088  0.00  0.00    +0.048 C 
ENDBRANCH   1  25
BRANCH  10  26
ATOM     26  O   LIG    1       15.775 -32.110  12.609  0.00  0.00    -0.506 OA
ATOM     27  H   LIG    1       15.086 -31.434  12.500  0.00  0.00    +0.292 HD
ENDBRANCH  10  26
BRANCH   1  28
ATOM     28  O   LIG    1       25.483 -27.323  15.466  0.00  0.00    -0.373 OA
ATOM     29  H   LIG    1       25.656 -28.286  15.414  0.00  0.00    +0.211 HD
ENDBRANCH   1  28
BRANCH   9  30
ATOM     30  C   LIG    1       17.847 -32.836  10.828  0.00  0.00    +0.123 C 
BRANCH  30  31
ATOM     31  N   LIG    1       18.128 -32.399   9.442  0.00  0.00    -0.304 NA
ATOM     32  C   LIG    1       17.457 -31.138   9.124  0.00  0.00    +0.105 C 
ATOM     33  C   LIG    1       17.677 -33.444   8.514  0.00  0.00    +0.105 C 
ENDBRANCH  30  31
ENDBRANCH   9  30
TORSDOF 5
ENDMDL
MODEL 8
REMARK VINA RESULT:      -4.5      4.153      9.759
REMARK  Name = *****
REMARK                            x       y       z     vdW  Elec       q    Type
REMARK                         _______ _______ _______ _____ _____    ______ ____
ROOT
ATOM      1  C   LIG    1       25.450 -25.733   6.355  0.00  0.00    +0.188 C 
ATOM      2  C   LIG    1       25.474 -24.316   6.865  0.00  0.00    +0.008 C 
ATOM      3  C   LIG    1       26.754 -23.679   7.187  0.00  0.00    +0.035 C 
ATOM      4  C   LIG    1       26.767 -22.390   7.548  0.00  0.00    +0.071 C 
ATOM      5  C   LIG    1       27.870 -21.470   7.840  0.00  0.00    +0.093 A 
ATOM      6  C   LIG    1       27.307 -20.244   8.160  0.00  0.00    +0.000 A 
ATOM      7  C   LIG    1       28.130 -19.175   8.426  0.00  0.00    +0.018 A 
ATOM      8  C   LIG    1       29.524 -19.356   8.358  0.00  0.00    +0.009 A 
ATOM      9  C   LIG    1       30.449 -18.307   8.639  0.00  0.00    +0.017 A 
ATOM     10  C   LIG    1       31.821 -18.577   8.516  0.00  0.00    +0.122 A 
ATOM     11  C   LIG    1       32.278 -19.837   8.152  0.00  0.00    +0.048 A 
ATOM     12  C   LIG    1       31.360 -20.860   7.904  0.00  0.00    +0.032 A 
ATOM     13  C   LIG    1       29.993 -20.659   7.996  0.00  0.00    +0.072 A 
ATOM     14  C   LIG    1       25.818 -20.314   8.132  0.00  0.00    +0.163 C 
ATOM     15  N   LIG    1       29.182 -21.710   7.739  0.00  0.00    -0.245 NA
ATOM     16  N   LIG    1       25.584 -21.687   7.692  0.00  0.00    -0.302 N 
ATOM     17  C   LIG    1       24.338 -22.205   7.462  0.00  0.00    +0.259 C 
ATOM     18  O   LIG    1       23.297 -21.580   7.606  0.00  0.00    -0.267 OA
ATOM     19  C   LIG    1       24.329 -23.621   6.978  0.00  0.00    +0.061 C 
ATOM     20  C   LIG    1       22.991 -24.151   6.608  0.00  0.00    +0.273 C 
ATOM     21  O   LIG    1       22.993 -25.480   6.056  0.00  0.00    -0.458 OA
ATOM     22  C   LIG    1       24.023 -26.326   6.272  0.00  0.00    +0.344 C 
ATOM     23  O   LIG    1       23.844 -27.544   6.298  0.00  0.00    -0.247 OA
ENDROOT
BRANCH   1  25
ATOM     24  C   LIG    1       26.646 -27.313   4.685  0.00  0.00    +0.007 C 
ATOM     25  C   LIG    1       26.132 -25.908   4.979  0.00  0.00    +0.048 C 
ENDBRANCH   1  25
BRANCH  10  26
ATOM     26  O   LIG    1       32.726 -17.586   8.776  0.00  0.00    -0.506 OA
ATOM     27  H   LIG    1       33.351 -17.517   8.036  0.00  0.00    +0.292 HD
ENDBRANCH  10  26
BRANCH   1  28
ATOM     28  O   LIG    1       26.177 -26.544   7.297  0.00  0.00    -0.373 OA
ATOM     29  H   LIG    1       25.504 -26.947   7.883  0.00  0.00    +0.211 HD
ENDBRANCH   1  28
BRANCH   9  30
ATOM     30  C   LIG    1       29.999 -16.944   9.151  0.00  0.00    +0.123 C 
BRANCH  30  31
ATOM     31  N   LIG    1       30.249 -16.671  10.584  0.00  0.00    -0.304 NA
ATOM     32  C   LIG    1       31.500 -15.939  10.786  0.00  0.00    +0.105 C 
ATOM     33  C   LIG    1       30.304 -17.947  11.307  0.00  0.00    +0.105 C 
ENDBRANCH  30  31
ENDBRANCH   9  30
TORSDOF 5
ENDMDL
MODEL 9
REMARK VINA RESULT:      -3.5      4.728      8.871
REMARK  Name = *****
REMARK                            x       y       z     vdW  Elec       q    Type
REMARK                         _______ _______ _______ _____ _____    ______ ____
ROOT
ATOM      1  C   LIG    1       25.130 -32.903   5.797  0.00  0.00    +0.188 C 
ATOM      2  C   LIG    1       25.324 -31.530   6.384  0.00  0.00    +0.008 C 
ATOM      3  C   LIG    1       25.518 -31.375   7.828  0.00  0.00    +0.035 C 
ATOM      4  C   LIG    1       25.782 -30.160   8.323  0.00  0.00    +0.071 C 
ATOM      5  C   LIG    1       26.104 -29.708   9.679  0.00  0.00    +0.093 A 
ATOM      6  C   LIG    1       26.290 -28.336   9.621  0.00  0.00    +0.000 A 
ATOM      7  C   LIG    1       26.661 -27.658  10.759  0.00  0.00    +0.018 A 
ATOM      8  C   LIG    1       26.847 -28.381  11.952  0.00  0.00    +0.009 A 
ATOM      9  C   LIG    1       27.209 -27.755  13.181  0.00  0.00    +0.017 A 
ATOM     10  C   LIG    1       27.400 -28.565  14.311  0.00  0.00    +0.122 A 
ATOM     11  C   LIG    1       27.222 -29.942  14.250  0.00  0.00    +0.048 A 
ATOM     12  C   LIG    1       26.842 -30.536  13.045  0.00  0.00    +0.032 A 
ATOM     13  C   LIG    1       26.648 -29.798  11.890  0.00  0.00    +0.072 A 
ATOM     14  C   LIG    1       26.061 -27.822   8.241  0.00  0.00    +0.163 C 
ATOM     15  N   LIG    1       26.280 -30.462  10.771  0.00  0.00    -0.245 NA
ATOM     16  N   LIG    1       25.796 -29.051   7.496  0.00  0.00    -0.302 N 
ATOM     17  C   LIG    1       25.579 -29.084   6.145  0.00  0.00    +0.259 C 
ATOM     18  O   LIG    1       25.579 -28.096   5.425  0.00  0.00    -0.267 OA
ATOM     19  C   LIG    1       25.366 -30.453   5.580  0.00  0.00    +0.061 C 
ATOM     20  C   LIG    1       25.254 -30.512   4.099  0.00  0.00    +0.273 C 
ATOM     21  O   LIG    1       25.141 -31.837   3.549  0.00  0.00    -0.458 OA
ATOM     22  C   LIG    1       24.724 -32.876   4.304  0.00  0.00    +0.344 C 
ATOM     23  O   LIG    1       24.126 -33.825   3.795  0.00  0.00    -0.247 OA
ENDROOT
BRANCH   1  25
ATOM     24  C   LIG    1       27.606 -33.370   5.190  0.00  0.00    +0.007 C 
ATOM     25  C   LIG    1       26.364 -33.822   5.950  0.00  0.00    +0.048 C 
ENDBRANCH   1  25
BRANCH  10  26
ATOM     26  O   LIG    1       27.753 -27.987  15.499  0.00  0.00    -0.506 OA
ATOM     27  H   LIG    1       27.488 -28.568  16.231  0.00  0.00    +0.292 HD
ENDBRANCH  10  26
BRANCH   1  28
ATOM     28  O   LIG    1       24.044 -33.529   6.506  0.00  0.00    -0.373 OA
ATOM     29  H   LIG    1       23.479 -33.945   5.823  0.00  0.00    +0.211 HD
ENDBRANCH   1  28
BRANCH   9  30
ATOM     30  C   LIG    1       27.306 -26.240  13.322  0.00  0.00    +0.123 C 
BRANCH  30  31
ATOM     31  N   LIG    1       26.479 -25.632  14.388  0.00  0.00    -0.304 NA
ATOM     32  C   LIG    1       25.093 -25.443  13.958  0.00  0.00    +0.105 C 
ATOM     33  C   LIG    1       27.060 -24.335  14.758  0.00  0.00    +0.105 C 
ENDBRANCH  30  31
ENDBRANCH   9  30
TORSDOF 5
ENDMDL
