MODEL 1
REMARK VINA RESULT:     -10.1      0.000      0.000
REMARK  Name = *****
REMARK                            x       y       z     vdW  Elec       q    Type
REMARK                         _______ _______ _______ _____ _____    ______ ____
ROOT
ATOM      1  C   LIG    1       25.689 -21.838   7.018  0.00  0.00    +0.098 C 
ENDROOT
BRANCH   1   2
ATOM      2  C   LIG    1       25.288 -23.356   6.853  0.00  0.00    -0.028 A 
ATOM      3  C   LIG    1       23.953 -23.781   6.679  0.00  0.00    +0.005 A 
ATOM      4  C   LIG    1       23.638 -25.112   6.376  0.00  0.00    +0.000 A 
ATOM      5  C   LIG    1       24.647 -26.056   6.233  0.00  0.00    +0.000 A 
ATOM      6  C   LIG    1       25.973 -25.673   6.410  0.00  0.00    +0.000 A 
ATOM      7  C   LIG    1       26.290 -24.345   6.730  0.00  0.00    +0.005 A 
ENDBRANCH   1   2
BRANCH   1   8
ATOM      8  C   LIG    1       24.821 -20.913   6.094  0.00  0.00    -0.028 A 
ATOM      9  C   LIG    1       25.321 -20.373   4.890  0.00  0.00    +0.005 A 
ATOM     10  C   LIG    1       24.540 -19.574   4.046  0.00  0.00    +0.000 A 
ATOM     11  C   LIG    1       23.229 -19.275   4.384  0.00  0.00    +0.000 A 
ATOM     12  C   LIG    1       22.702 -19.784   5.568  0.00  0.00    +0.000 A 
ATOM     13  C   LIG    1       23.483 -20.594   6.411  0.00  0.00    +0.005 A 
ENDBRANCH   1   8
BRANCH   1  14
ATOM     14  C   LIG    1       25.563 -21.430   8.546  0.00  0.00    +0.225 C 
ATOM     15  O   LIG    1       25.382 -22.231   9.455  0.00  0.00    -0.275 OA
ATOM     16  N   LIG    1       25.649 -20.121   8.914  0.00  0.00    -0.328 N 
ATOM     17  H   LIG    1       25.520 -19.932   9.898  0.00  0.00    +0.145 HD
ATOM     18  H   LIG    1       25.500 -19.362   8.264  0.00  0.00    +0.145 HD
ENDBRANCH   1  14
BRANCH   1  19
ATOM     19  C   LIG    1       27.217 -21.625   6.686  0.00  0.00    +0.047 C 
BRANCH  19  20
ATOM     20  C   LIG    1       28.202 -21.561   7.866  0.00  0.00    +0.124 C 
BRANCH  20  23
ATOM     21  C   LIG    1       31.062 -21.808   9.123  0.00  0.00    +0.086 C 
ATOM     22  C   LIG    1       30.635 -20.828   8.090  0.00  0.00    +0.106 A 
ATOM     23  N   LIG    1       29.370 -20.746   7.546  0.00  0.00    -0.335 N 
ATOM     24  C   LIG    1       29.373 -19.723   6.638  0.00  0.00    +0.107 A 
ATOM     25  C   LIG    1       30.650 -19.226   6.661  0.00  0.00    +0.130 A 
ATOM     26  N   LIG    1       31.422 -19.915   7.555  0.00  0.00    -0.241 NA
ENDBRANCH  20  23
ENDBRANCH  19  20
ENDBRANCH   1  19
TORSDOF 6
ENDMDL
MODEL 2
REMARK VINA RESULT:      -8.9      2.064      5.802
REMARK  Name = *****
REMARK                            x       y       z     vdW  Elec       q    Type
REMARK                         _______ _______ _______ _____ _____    ______ ____
ROOT
ATOM      1  C   LIG    1       26.314 -21.187   7.096  0.00  0.00    +0.098 C 
ENDROOT
BRANCH   1   2
ATOM      2  C   LIG    1       25.212 -20.530   6.176  0.00  0.00    -0.028 A 
ATOM      3  C   LIG    1       25.466 -20.120   4.849  0.00  0.00    +0.005 A 
ATOM      4  C   LIG    1       24.438 -19.689   4.001  0.00  0.00    +0.000 A 
ATOM      5  C   LIG    1       23.124 -19.659   4.452  0.00  0.00    +0.000 A 
ATOM      6  C   LIG    1       22.840 -20.045   5.758  0.00  0.00    +0.000 A 
ATOM      7  C   LIG    1       23.870 -20.460   6.615  0.00  0.00    +0.005 A 
ENDBRANCH   1   2
BRANCH   1   8
ATOM      8  C   LIG    1       27.707 -20.491   6.906  0.00  0.00    -0.028 A 
ATOM      9  C   LIG    1       28.805 -20.769   7.747  0.00  0.00    +0.005 A 
ATOM     10  C   LIG    1       30.061 -20.175   7.561  0.00  0.00    +0.000 A 
ATOM     11  C   LIG    1       30.258 -19.268   6.531  0.00  0.00    +0.000 A 
ATOM     12  C   LIG    1       29.195 -18.962   5.685  0.00  0.00    +0.000 A 
ATOM     13  C   LIG    1       27.937 -19.566   5.865  0.00  0.00    +0.005 A 
ENDBRANCH   1   8
BRANCH   1  14
ATOM     14  C   LIG    1       25.829 -21.133   8.606  0.00  0.00    +0.225 C 
ATOM     15  O   LIG    1       26.011 -20.177   9.349  0.00  0.00    -0.275 OA
ATOM     16  N   LIG    1       25.171 -22.194   9.152  0.00  0.00    -0.328 N 
ATOM     17  H   LIG    1       24.929 -22.105  10.128  0.00  0.00    +0.145 HD
ATOM     18  H   LIG    1       25.221 -23.125   8.761  0.00  0.00    +0.145 HD
ENDBRANCH   1  14
BRANCH   1  19
ATOM     19  C   LIG    1       26.450 -22.728   6.789  0.00  0.00    +0.047 C 
BRANCH  19  20
ATOM     20  C   LIG    1       25.670 -23.289   5.587  0.00  0.00    +0.124 C 
BRANCH  20  23
ATOM     21  C   LIG    1       22.833 -24.027   6.695  0.00  0.00    +0.086 C 
ATOM     22  C   LIG    1       23.921 -24.980   6.353  0.00  0.00    +0.106 A 
ATOM     23  N   LIG    1       25.160 -24.629   5.857  0.00  0.00    -0.335 N 
ATOM     24  C   LIG    1       25.877 -25.780   5.674  0.00  0.00    +0.107 A 
ATOM     25  C   LIG    1       25.036 -26.793   6.061  0.00  0.00    +0.130 A 
ATOM     26  N   LIG    1       23.832 -26.291   6.473  0.00  0.00    -0.241 NA
ENDBRANCH  20  23
ENDBRANCH  19  20
ENDBRANCH   1  19
TORSDOF 6
ENDMDL
MODEL 3
REMARK VINA RESULT:      -8.8      2.172      5.757
REMARK  Name = *****
REMARK                            x       y       z     vdW  Elec       q    Type
REMARK                         _______ _______ _______ _____ _____    ______ ____
ROOT
ATOM      1  C   LIG    1       26.654 -21.102   6.774  0.00  0.00    +0.098 C 
ENDROOT
BRANCH   1   2
ATOM      2  C   LIG    1       25.851 -20.758   5.458  0.00  0.00    -0.028 A 
ATOM      3  C   LIG    1       24.805 -21.567   4.965  0.00  0.00    +0.005 A 
ATOM      4  C   LIG    1       24.004 -21.161   3.889  0.00  0.00    +0.000 A 
ATOM      5  C   LIG    1       24.222 -19.933   3.278  0.00  0.00    +0.000 A 
ATOM      6  C   LIG    1       25.252 -19.116   3.732  0.00  0.00    +0.000 A 
ATOM      7  C   LIG    1       26.067 -19.527   4.797  0.00  0.00    +0.005 A 
ENDBRANCH   1   2
BRANCH   1   8
ATOM      8  C   LIG    1       28.074 -20.436   6.768  0.00  0.00    -0.028 A 
ATOM      9  C   LIG    1       28.394 -19.359   5.914  0.00  0.00    +0.005 A 
ATOM     10  C   LIG    1       29.651 -18.740   5.928  0.00  0.00    +0.000 A 
ATOM     11  C   LIG    1       30.640 -19.186   6.792  0.00  0.00    +0.000 A 
ATOM     12  C   LIG    1       30.364 -20.251   7.645  0.00  0.00    +0.000 A 
ATOM     13  C   LIG    1       29.099 -20.867   7.638  0.00  0.00    +0.005 A 
ENDBRANCH   1   8
BRANCH   1  14
ATOM     14  C   LIG    1       25.799 -20.657   8.035  0.00  0.00    +0.225 C 
ATOM     15  O   LIG    1       26.280 -20.412   9.134  0.00  0.00    -0.275 OA
ATOM     16  N   LIG    1       24.446 -20.533   7.936  0.00  0.00    -0.328 N 
ATOM     17  H   LIG    1       23.964 -20.286   8.788  0.00  0.00    +0.145 HD
ATOM     18  H   LIG    1       23.911 -20.980   7.203  0.00  0.00    +0.145 HD
ENDBRANCH   1  14
BRANCH   1  19
ATOM     19  C   LIG    1       26.807 -22.663   6.942  0.00  0.00    +0.047 C 
BRANCH  19  20
ATOM     20  C   LIG    1       25.701 -23.411   7.706  0.00  0.00    +0.124 C 
BRANCH  20  23
ATOM     21  C   LIG    1       22.747 -23.798   6.735  0.00  0.00    +0.086 C 
ATOM     22  C   LIG    1       23.881 -24.729   6.500  0.00  0.00    +0.106 A 
ATOM     23  N   LIG    1       25.176 -24.531   6.930  0.00  0.00    -0.335 N 
ATOM     24  C   LIG    1       25.920 -25.603   6.522  0.00  0.00    +0.107 A 
ATOM     25  C   LIG    1       25.043 -26.414   5.848  0.00  0.00    +0.130 A 
ATOM     26  N   LIG    1       23.790 -25.866   5.834  0.00  0.00    -0.241 NA
ENDBRANCH  20  23
ENDBRANCH  19  20
ENDBRANCH   1  19
TORSDOF 6
ENDMDL
MODEL 4
REMARK VINA RESULT:      -8.3      2.804      6.006
REMARK  Name = *****
REMARK                            x       y       z     vdW  Elec       q    Type
REMARK                         _______ _______ _______ _____ _____    ______ ____
ROOT
ATOM      1  C   LIG    1       24.725 -22.926   6.234  0.00  0.00    +0.098 C 
ENDROOT
BRANCH   1   2
ATOM      2  C   LIG    1       25.788 -22.116   7.076  0.00  0.00    -0.028 A 
ATOM      3  C   LIG    1       27.178 -22.215   6.853  0.00  0.00    +0.005 A 
ATOM      4  C   LIG    1       28.090 -21.372   7.502  0.00  0.00    +0.000 A 
ATOM      5  C   LIG    1       27.639 -20.402   8.387  0.00  0.00    +0.000 A 
ATOM      6  C   LIG    1       26.275 -20.285   8.638  0.00  0.00    +0.000 A 
ATOM      7  C   LIG    1       25.362 -21.140   8.004  0.00  0.00    +0.005 A 
ENDBRANCH   1   2
BRANCH   1   8
ATOM      8  C   LIG    1       25.170 -24.417   6.033  0.00  0.00    -0.028 A 
ATOM      9  C   LIG    1       25.637 -25.211   7.103  0.00  0.00    +0.005 A 
ATOM     10  C   LIG    1       26.005 -26.552   6.936  0.00  0.00    +0.000 A 
ATOM     11  C   LIG    1       25.930 -27.145   5.684  0.00  0.00    +0.000 A 
ATOM     12  C   LIG    1       25.481 -26.392   4.603  0.00  0.00    +0.000 A 
ATOM     13  C   LIG    1       25.103 -25.048   4.772  0.00  0.00    +0.005 A 
ENDBRANCH   1   8
BRANCH   1  14
ATOM     14  C   LIG    1       23.311 -22.823   6.945  0.00  0.00    +0.225 C 
ATOM     15  O   LIG    1       23.024 -21.969   7.775  0.00  0.00    -0.275 OA
ATOM     16  N   LIG    1       22.329 -23.719   6.648  0.00  0.00    -0.328 N 
ATOM     17  H   LIG    1       21.469 -23.617   7.168  0.00  0.00    +0.145 HD
ATOM     18  H   LIG    1       22.521 -24.618   6.227  0.00  0.00    +0.145 HD
ENDBRANCH   1  14
BRANCH   1  19
ATOM     19  C   LIG    1       24.500 -22.252   4.825  0.00  0.00    +0.047 C 
BRANCH  19  20
ATOM     20  C   LIG    1       25.112 -20.860   4.594  0.00  0.00    +0.124 C 
BRANCH  20  23
ATOM     21  C   LIG    1       25.459 -18.033   3.285  0.00  0.00    +0.086 C 
ATOM     22  C   LIG    1       24.208 -18.589   3.863  0.00  0.00    +0.106 A 
ATOM     23  N   LIG    1       24.079 -19.841   4.426  0.00  0.00    -0.335 N 
ATOM     24  C   LIG    1       22.784 -19.979   4.844  0.00  0.00    +0.107 A 
ATOM     25  C   LIG    1       22.170 -18.799   4.509  0.00  0.00    +0.130 A 
ATOM     26  N   LIG    1       23.054 -17.950   3.901  0.00  0.00    -0.241 NA
ENDBRANCH  20  23
ENDBRANCH  19  20
ENDBRANCH   1  19
TORSDOF 6
ENDMDL
MODEL 5
REMARK VINA RESULT:      -8.2      2.478      5.723
REMARK  Name = *****
REMARK                            x       y       z     vdW  Elec       q    Type
REMARK                         _______ _______ _______ _____ _____    ______ ____
ROOT
ATOM      1  C   LIG    1       25.314 -21.522   6.448  0.00  0.00    +0.098 C 
ENDROOT
BRANCH   1   2
ATOM      2  C   LIG    1       24.511 -20.493   5.560  0.00  0.00    -0.028 A 
ATOM      3  C   LIG    1       24.959 -20.061   4.293  0.00  0.00    +0.005 A 
ATOM      4  C   LIG    1       24.156 -19.275   3.457  0.00  0.00    +0.000 A 
ATOM      5  C   LIG    1       22.880 -18.902   3.859  0.00  0.00    +0.000 A 
ATOM      6  C   LIG    1       22.411 -19.301   5.107  0.00  0.00    +0.000 A 
ATOM      7  C   LIG    1       23.220 -20.073   5.954  0.00  0.00    +0.005 A 
ENDBRANCH   1   2
BRANCH   1   8
ATOM      8  C   LIG    1       26.810 -21.081   6.622  0.00  0.00    -0.028 A 
ATOM      9  C   LIG    1       27.373 -20.027   5.873  0.00  0.00    +0.005 A 
ATOM     10  C   LIG    1       28.699 -19.608   6.047  0.00  0.00    +0.000 A 
ATOM     11  C   LIG    1       29.514 -20.241   6.973  0.00  0.00    +0.000 A 
ATOM     12  C   LIG    1       28.997 -21.291   7.726  0.00  0.00    +0.000 A 
ATOM     13  C   LIG    1       27.663 -21.706   7.558  0.00  0.00    +0.005 A 
ENDBRANCH   1   8
BRANCH   1  14
ATOM     14  C   LIG    1       24.581 -21.685   7.846  0.00  0.00    +0.225 C 
ATOM     15  O   LIG    1       25.115 -21.470   8.927  0.00  0.00    -0.275 OA
ATOM     16  N   LIG    1       23.282 -22.093   7.894  0.00  0.00    -0.328 N 
ATOM     17  H   LIG    1       22.894 -22.213   8.819  0.00  0.00    +0.145 HD
ATOM     18  H   LIG    1       22.835 -22.576   7.128  0.00  0.00    +0.145 HD
ENDBRANCH   1  14
BRANCH   1  19
ATOM     19  C   LIG    1       25.263 -22.966   5.814  0.00  0.00    +0.047 C 
BRANCH  19  20
ATOM     20  C   LIG    1       25.563 -24.161   6.734  0.00  0.00    +0.124 C 
BRANCH  20  23
ATOM     21  C   LIG    1       26.321 -26.990   7.849  0.00  0.00    +0.086 C 
ATOM     22  C   LIG    1       25.904 -26.674   6.458  0.00  0.00    +0.106 A 
ATOM     23  N   LIG    1       25.566 -25.420   5.994  0.00  0.00    -0.335 N 
ATOM     24  C   LIG    1       25.244 -25.538   4.670  0.00  0.00    +0.107 A 
ATOM     25  C   LIG    1       25.392 -26.870   4.382  0.00  0.00    +0.130 A 
ATOM     26  N   LIG    1       25.794 -27.564   5.490  0.00  0.00    -0.241 NA
ENDBRANCH  20  23
ENDBRANCH  19  20
ENDBRANCH   1  19
TORSDOF 6
ENDMDL
