MODEL 1
REMARK VINA RESULT:      -0.7      0.000      0.000
REMARK  Name = *****
REMARK                            x       y       z     vdW  Elec       q    Type
REMARK                         _______ _______ _______ _____ _____    ______ ____
ROOT
ATOM      1  N   LIG    1       25.075 -18.659   3.965  0.00  0.00    -0.346 NA
ATOM      2  C   LIG    1       24.739 -17.284   4.010  0.00  0.00    +0.055 C 
ATOM      3  C   LIG    1       23.384 -16.917   4.142  0.00  0.00    +0.049 C 
ATOM      4  C   LIG    1       22.990 -15.580   4.148  0.00  0.00    +0.054 C 
ATOM      5  C   LIG    1       23.948 -14.579   4.048  0.00  0.00    +0.145 C 
ATOM      6  C   LIG    1       25.322 -14.863   3.949  0.00  0.00    +0.067 C 
ATOM      7  F   LIG    1       23.497 -13.317   4.101  0.00  0.00    -0.203 F 
ATOM      8  C   LIG    1       22.343 -17.958   4.302  0.00  0.00    +0.203 C 
ATOM      9  O   LIG    1       21.157 -17.674   4.454  0.00  0.00    -0.286 OA
ATOM     10  C   LIG    1       22.765 -19.374   4.298  0.00  0.00    +0.122 C 
ATOM     11  C   LIG    1       25.683 -16.234   3.935  0.00  0.00    +0.052 C 
ATOM     12  C   LIG    1       24.073 -19.611   4.128  0.00  0.00    +0.105 C 
ENDROOT
BRANCH   6  13
ATOM     13  N   LIG    1       26.348 -13.886   3.847  0.00  0.00    -0.325 NA
ATOM     14  C   LIG    1       27.217 -14.086   2.657  0.00  0.00    +0.120 C 
ATOM     15  C   LIG    1       28.332 -13.012   2.562  0.00  0.00    +0.100 C 
ATOM     16  N   LIG    1       29.118 -12.847   3.800  0.00  0.00    -0.313 NA
ATOM     17  H   LIG    1       29.547 -13.745   4.027  0.00  0.00    +0.122 HD
ATOM     18  C   LIG    1       28.174 -12.506   4.882  0.00  0.00    +0.100 C 
ATOM     19  C   LIG    1       27.096 -13.592   5.095  0.00  0.00    +0.120 C 
ENDBRANCH   6  13
BRANCH   1  21
ATOM     20  C   LIG    1       27.087 -19.704   4.952  0.00  0.00    +0.027 C 
ATOM     21  C   LIG    1       26.467 -19.074   3.714  0.00  0.00    +0.118 C 
ENDBRANCH   1  21
BRANCH  10  22
ATOM     22  C   LIG    1       21.835 -20.511   4.472  0.00  0.00    +0.342 C 
ATOM     23  O   LIG    1       20.688 -20.509   4.062  0.00  0.00    -0.245 OA
BRANCH  22  24
ATOM     24  O   LIG    1       22.365 -21.572   5.125  0.00  0.00    -0.477 OA
ATOM     25  H   LIG    1       23.345 -21.656   5.026  0.00  0.00    +0.295 HD
ENDBRANCH  22  24
ENDBRANCH  10  22
TORSDOF 4
ENDMDL
MODEL 2
REMARK VINA RESULT:       0.5      3.874      7.423
REMARK  Name = *****
REMARK                            x       y       z     vdW  Elec       q    Type
REMARK                         _______ _______ _______ _____ _____    ______ ____
ROOT
ATOM      1  N   LIG    1       25.105 -14.379   3.750  0.00  0.00    -0.346 NA
ATOM      2  C   LIG    1       25.282 -15.784   3.783  0.00  0.00    +0.055 C 
ATOM      3  C   LIG    1       26.589 -16.305   3.875  0.00  0.00    +0.049 C 
ATOM      4  C   LIG    1       26.826 -17.679   3.868  0.00  0.00    +0.054 C 
ATOM      5  C   LIG    1       25.757 -18.563   3.795  0.00  0.00    +0.145 C 
ATOM      6  C   LIG    1       24.422 -18.121   3.736  0.00  0.00    +0.067 C 
ATOM      7  F   LIG    1       26.061 -19.868   3.832  0.00  0.00    -0.203 F 
ATOM      8  C   LIG    1       27.746 -15.392   4.005  0.00  0.00    +0.203 C 
ATOM      9  O   LIG    1       28.896 -15.810   4.123  0.00  0.00    -0.286 OA
ATOM     10  C   LIG    1       27.491 -13.936   4.016  0.00  0.00    +0.122 C 
ATOM     11  C   LIG    1       24.221 -16.718   3.735  0.00  0.00    +0.052 C 
ATOM     12  C   LIG    1       26.214 -13.549   3.885  0.00  0.00    +0.105 C 
ENDROOT
BRANCH   6  13
ATOM     13  N   LIG    1       23.289 -18.974   3.663  0.00  0.00    -0.325 NA
ATOM     14  C   LIG    1       22.004 -18.238   3.803  0.00  0.00    +0.120 C 
ATOM     15  C   LIG    1       20.778 -19.184   3.723  0.00  0.00    +0.100 C 
ATOM     16  N   LIG    1       20.852 -20.346   4.629  0.00  0.00    -0.313 NA
ATOM     17  H   LIG    1       20.936 -19.999   5.587  0.00  0.00    +0.122 HD
ATOM     18  C   LIG    1       22.087 -21.085   4.303  0.00  0.00    +0.100 C 
ATOM     19  C   LIG    1       23.357 -20.222   4.465  0.00  0.00    +0.120 C 
ENDBRANCH   6  13
BRANCH   1  21
ATOM     20  C   LIG    1       23.838 -12.309   3.281  0.00  0.00    +0.027 C 
ATOM     21  C   LIG    1       23.764 -13.806   3.541  0.00  0.00    +0.118 C 
ENDBRANCH   1  21
BRANCH  10  22
ATOM     22  C   LIG    1       28.549 -12.914   4.164  0.00  0.00    +0.342 C 
ATOM     23  O   LIG    1       28.601 -12.132   5.097  0.00  0.00    -0.245 OA
BRANCH  22  24
ATOM     24  O   LIG    1       29.474 -12.919   3.176  0.00  0.00    -0.477 OA
ATOM     25  H   LIG    1       30.307 -12.438   3.403  0.00  0.00    +0.295 HD
ENDBRANCH  22  24
ENDBRANCH  10  22
TORSDOF 4
ENDMDL
MODEL 3
REMARK VINA RESULT:       1.0      3.527      6.831
REMARK  Name = *****
REMARK                            x       y       z     vdW  Elec       q    Type
REMARK                         _______ _______ _______ _____ _____    ______ ____
ROOT
ATOM      1  N   LIG    1       27.556 -16.189   4.027  0.00  0.00    -0.346 NA
ATOM      2  C   LIG    1       26.143 -16.281   4.022  0.00  0.00    +0.055 C 
ATOM      3  C   LIG    1       25.382 -15.099   4.127  0.00  0.00    +0.049 C 
ATOM      4  C   LIG    1       23.988 -15.132   4.171  0.00  0.00    +0.054 C 
ATOM      5  C   LIG    1       23.325 -16.350   4.083  0.00  0.00    +0.145 C 
ATOM      6  C   LIG    1       24.013 -17.569   3.941  0.00  0.00    +0.067 C 
ATOM      7  F   LIG    1       21.986 -16.299   4.093  0.00  0.00    -0.203 F 
ATOM      8  C   LIG    1       26.055 -13.781   4.171  0.00  0.00    +0.203 C 
ATOM      9  O   LIG    1       25.424 -12.728   4.227  0.00  0.00    -0.286 OA
ATOM     10  C   LIG    1       27.532 -13.750   4.121  0.00  0.00    +0.122 C 
ATOM     11  C   LIG    1       25.428 -17.496   3.911  0.00  0.00    +0.052 C 
ATOM     12  C   LIG    1       28.157 -14.934   4.059  0.00  0.00    +0.105 C 
ENDROOT
BRANCH   6  13
ATOM     13  N   LIG    1       23.392 -18.843   3.845  0.00  0.00    -0.325 NA
ATOM     14  C   LIG    1       22.346 -19.054   4.880  0.00  0.00    +0.120 C 
ATOM     15  C   LIG    1       21.681 -20.450   4.762  0.00  0.00    +0.100 C 
ATOM     16  N   LIG    1       22.638 -21.572   4.706  0.00  0.00    -0.313 NA
ATOM     17  H   LIG    1       23.205 -21.550   5.556  0.00  0.00    +0.122 HD
ATOM     18  C   LIG    1       23.532 -21.335   3.556  0.00  0.00    +0.100 C 
ATOM     19  C   LIG    1       24.304 -20.002   3.667  0.00  0.00    +0.120 C 
ENDBRANCH   6  13
BRANCH   1  21
ATOM     20  C   LIG    1       28.865 -17.742   5.436  0.00  0.00    +0.027 C 
ATOM     21  C   LIG    1       28.379 -17.411   4.033  0.00  0.00    +0.118 C 
ENDBRANCH   1  21
BRANCH  10  22
ATOM     22  C   LIG    1       28.330 -12.504   4.132  0.00  0.00    +0.342 C 
ATOM     23  O   LIG    1       28.924 -12.097   5.115  0.00  0.00    -0.245 OA
BRANCH  22  24
ATOM     24  O   LIG    1       28.358 -11.847   2.949  0.00  0.00    -0.477 OA
ATOM     25  H   LIG    1       28.084 -12.399   2.176  0.00  0.00    +0.295 HD
ENDBRANCH  22  24
ENDBRANCH  10  22
TORSDOF 4
ENDMDL
MODEL 4
REMARK VINA RESULT:       1.4      1.579      2.118
REMARK  Name = *****
REMARK                            x       y       z     vdW  Elec       q    Type
REMARK                         _______ _______ _______ _____ _____    ______ ____
ROOT
ATOM      1  N   LIG    1       26.718 -19.089   4.641  0.00  0.00    -0.346 NA
ATOM      2  C   LIG    1       26.408 -17.757   4.272  0.00  0.00    +0.055 C 
ATOM      3  C   LIG    1       25.141 -17.479   3.721  0.00  0.00    +0.049 C 
ATOM      4  C   LIG    1       24.797 -16.195   3.300  0.00  0.00    +0.054 C 
ATOM      5  C   LIG    1       25.706 -15.155   3.447  0.00  0.00    +0.145 C 
ATOM      6  C   LIG    1       26.977 -15.345   4.020  0.00  0.00    +0.067 C 
ATOM      7  F   LIG    1       25.290 -13.942   3.056  0.00  0.00    -0.203 F 
ATOM      8  C   LIG    1       24.131 -18.554   3.597  0.00  0.00    +0.203 C 
ATOM      9  O   LIG    1       23.004 -18.342   3.154  0.00  0.00    -0.286 OA
ATOM     10  C   LIG    1       24.498 -19.913   4.047  0.00  0.00    +0.122 C 
ATOM     11  C   LIG    1       27.295 -16.666   4.426  0.00  0.00    +0.052 C 
ATOM     12  C   LIG    1       25.742 -20.074   4.520  0.00  0.00    +0.105 C 
ENDROOT
BRANCH   6  13
ATOM     13  N   LIG    1       27.947 -14.324   4.199  0.00  0.00    -0.325 NA
ATOM     14  C   LIG    1       27.686 -13.485   5.398  0.00  0.00    +0.120 C 
ATOM     15  C   LIG    1       28.753 -12.374   5.576  0.00  0.00    +0.100 C 
ATOM     16  N   LIG    1       28.981 -11.557   4.369  0.00  0.00    -0.313 NA
ATOM     17  H   LIG    1       28.095 -11.121   4.107  0.00  0.00    +0.122 HD
ATOM     18  C   LIG    1       29.377 -12.473   3.283  0.00  0.00    +0.100 C 
ATOM     19  C   LIG    1       28.305 -13.544   2.986  0.00  0.00    +0.120 C 
ENDBRANCH   6  13
BRANCH   1  21
ATOM     20  C   LIG    1       28.018 -20.232   6.406  0.00  0.00    +0.027 C 
ATOM     21  C   LIG    1       28.071 -19.433   5.113  0.00  0.00    +0.118 C 
ENDBRANCH   1  21
BRANCH  10  22
ATOM     22  C   LIG    1       23.580 -21.072   4.004  0.00  0.00    +0.342 C 
ATOM     23  O   LIG    1       23.070 -21.561   4.997  0.00  0.00    -0.245 OA
BRANCH  22  24
ATOM     24  O   LIG    1       23.340 -21.550   2.761  0.00  0.00    -0.477 OA
ATOM     25  H   LIG    1       22.923 -22.446   2.748  0.00  0.00    +0.295 HD
ENDBRANCH  22  24
ENDBRANCH  10  22
TORSDOF 4
ENDMDL
MODEL 5
REMARK VINA RESULT:       1.7      2.015      3.184
REMARK  Name = *****
REMARK                            x       y       z     vdW  Elec       q    Type
REMARK                         _______ _______ _______ _____ _____    ______ ____
ROOT
ATOM      1  N   LIG    1       22.774 -17.437   4.425  0.00  0.00    -0.346 NA
ATOM      2  C   LIG    1       24.155 -17.385   4.114  0.00  0.00    +0.055 C 
ATOM      3  C   LIG    1       24.921 -18.564   4.212  0.00  0.00    +0.049 C 
ATOM      4  C   LIG    1       26.292 -18.564   3.960  0.00  0.00    +0.054 C 
ATOM      5  C   LIG    1       26.922 -17.386   3.580  0.00  0.00    +0.145 C 
ATOM      6  C   LIG    1       26.221 -16.176   3.426  0.00  0.00    +0.067 C 
ATOM      7  F   LIG    1       28.234 -17.472   3.317  0.00  0.00    -0.203 F 
ATOM      8  C   LIG    1       24.271 -19.847   4.565  0.00  0.00    +0.203 C 
ATOM      9  O   LIG    1       24.900 -20.901   4.626  0.00  0.00    -0.286 OA
ATOM     10  C   LIG    1       22.817 -19.844   4.828  0.00  0.00    +0.122 C 
ATOM     11  C   LIG    1       24.831 -16.214   3.701  0.00  0.00    +0.052 C 
ATOM     12  C   LIG    1       22.193 -18.661   4.744  0.00  0.00    +0.105 C 
ENDROOT
BRANCH   6  13
ATOM     13  N   LIG    1       26.808 -14.943   3.038  0.00  0.00    -0.325 NA
ATOM     14  C   LIG    1       27.880 -14.497   3.968  0.00  0.00    +0.120 C 
ATOM     15  C   LIG    1       28.507 -13.148   3.531  0.00  0.00    +0.100 C 
ATOM     16  N   LIG    1       27.523 -12.080   3.270  0.00  0.00    -0.313 NA
ATOM     17  H   LIG    1       26.983 -11.929   4.124  0.00  0.00    +0.122 HD
ATOM     18  C   LIG    1       26.600 -12.573   2.229  0.00  0.00    +0.100 C 
ATOM     19  C   LIG    1       25.864 -13.864   2.649  0.00  0.00    +0.120 C 
ENDBRANCH   6  13
BRANCH   1  21
ATOM     20  C   LIG    1       21.966 -15.567   5.826  0.00  0.00    +0.027 C 
ATOM     21  C   LIG    1       21.971 -16.201   4.443  0.00  0.00    +0.118 C 
ENDBRANCH   1  21
BRANCH  10  22
ATOM     22  C   LIG    1       22.038 -21.055   5.167  0.00  0.00    +0.342 C 
ATOM     23  O   LIG    1       21.222 -21.559   4.415  0.00  0.00    -0.245 OA
BRANCH  22  24
ATOM     24  O   LIG    1       22.309 -21.572   6.388  0.00  0.00    -0.477 OA
ATOM     25  H   LIG    1       21.510 -21.710   6.952  0.00  0.00    +0.295 HD
ENDBRANCH  22  24
ENDBRANCH  10  22
TORSDOF 4
ENDMDL
