MODEL 1
REMARK VINA RESULT:      -6.1      0.000      0.000
REMARK  Name = *****
REMARK                            x       y       z     vdW  Elec       q    Type
REMARK                         _______ _______ _______ _____ _____    ______ ____
ROOT
ATOM      1  C   LIG    1       23.623 -19.297   4.078  0.00  0.00    +0.027 C 
ENDROOT
BRANCH   1   3
ATOM      2  C   LIG    1       22.696 -16.849   4.385  0.00  0.00    -0.027 C 
ATOM      3  C   LIG    1       22.641 -18.198   4.437  0.00  0.00    -0.031 C 
BRANCH   2   4
ATOM      4  C   LIG    1       23.801 -15.871   4.044  0.00  0.00    +0.054 C 
BRANCH   4   6
ATOM      5  C   LIG    1       23.846 -13.309   3.804  0.00  0.00    -0.031 C 
ATOM      6  C   LIG    1       23.541 -14.438   4.484  0.00  0.00    -0.027 C 
BRANCH   5   7
ATOM      7  C   LIG    1       24.572 -13.239   2.480  0.00  0.00    +0.027 C 
BRANCH   7   8
ATOM      8  C   LIG    1       26.102 -13.054   2.517  0.00  0.00    +0.004 C 
BRANCH   8   9
ATOM      9  C   LIG    1       26.856 -14.381   2.776  0.00  0.00    +0.000 C 
BRANCH   9  11
ATOM     10  C   LIG    1       27.137 -13.534   5.158  0.00  0.00    +0.004 C 
ATOM     11  C   LIG    1       27.734 -14.372   4.034  0.00  0.00    -0.003 C 
ENDBRANCH   9  11
ENDBRANCH   8   9
ENDBRANCH   7   8
ENDBRANCH   5   7
ENDBRANCH   4   6
ENDBRANCH   2   4
ENDBRANCH   1   3
BRANCH   1  12
ATOM     12  C   LIG    1       23.121 -20.693   4.479  0.00  0.00    +0.004 C 
BRANCH  12  13
ATOM     13  C   LIG    1       22.718 -20.850   5.958  0.00  0.00    +0.000 C 
BRANCH  13  14
ATOM     14  C   LIG    1       23.915 -20.647   6.912  0.00  0.00    +0.000 C 
BRANCH  14  15
ATOM     15  C   LIG    1       25.136 -21.501   6.542  0.00  0.00    +0.000 C 
BRANCH  15  16
ATOM     16  C   LIG    1       26.458 -20.842   6.942  0.00  0.00    +0.011 C 
BRANCH  16  17
ATOM     17  C   LIG    1       27.100 -20.069   5.788  0.00  0.00    +0.120 C 
BRANCH  17  18
ATOM     18  C   LIG    1       28.576 -19.838   5.945  0.00  0.00    +0.305 C 
ATOM     19  O   LIG    1       29.143 -18.775   5.647  0.00  0.00    -0.251 OA
BRANCH  18  20
ATOM     20  O   LIG    1       29.253 -20.888   6.450  0.00  0.00    -0.481 OA
ATOM     21  H   LIG    1       29.416 -20.834   7.409  0.00  0.00    +0.295 HD
ENDBRANCH  18  20
ENDBRANCH  17  18
ENDBRANCH  16  17
ENDBRANCH  15  16
ENDBRANCH  14  15
ENDBRANCH  13  14
ENDBRANCH  12  13
ENDBRANCH   1  12
TORSDOF 15
ENDMDL
MODEL 2
REMARK VINA RESULT:      -6.0      1.174      2.305
REMARK  Name = *****
REMARK                            x       y       z     vdW  Elec       q    Type
REMARK                         _______ _______ _______ _____ _____    ______ ____
ROOT
ATOM      1  C   LIG    1       23.283 -18.636   4.129  0.00  0.00    +0.027 C 
ENDROOT
BRANCH   1   3
ATOM      2  C   LIG    1       25.690 -17.970   3.284  0.00  0.00    -0.027 C 
ATOM      3  C   LIG    1       24.671 -18.818   3.544  0.00  0.00    -0.031 C 
BRANCH   2   4
ATOM      4  C   LIG    1       25.829 -16.464   3.370  0.00  0.00    +0.054 C 
BRANCH   4   6
ATOM      5  C   LIG    1       27.626 -14.690   3.867  0.00  0.00    -0.031 C 
ATOM      6  C   LIG    1       27.234 -15.971   3.677  0.00  0.00    -0.027 C 
BRANCH   5   7
ATOM      7  C   LIG    1       26.745 -13.466   3.751  0.00  0.00    +0.027 C 
BRANCH   7   8
ATOM      8  C   LIG    1       25.877 -13.334   2.485  0.00  0.00    +0.004 C 
BRANCH   8   9
ATOM      9  C   LIG    1       24.362 -13.301   2.802  0.00  0.00    +0.000 C 
BRANCH   9  11
ATOM     10  C   LIG    1       23.661 -11.447   4.396  0.00  0.00    +0.004 C 
ATOM     11  C   LIG    1       24.029 -12.919   4.249  0.00  0.00    -0.003 C 
ENDBRANCH   9  11
ENDBRANCH   8   9
ENDBRANCH   7   8
ENDBRANCH   5   7
ENDBRANCH   4   6
ENDBRANCH   2   4
ENDBRANCH   1   3
BRANCH   1  12
ATOM     12  C   LIG    1       22.656 -19.961   4.590  0.00  0.00    +0.004 C 
BRANCH  12  13
ATOM     13  C   LIG    1       22.903 -20.331   6.065  0.00  0.00    +0.000 C 
BRANCH  13  14
ATOM     14  C   LIG    1       23.959 -21.447   6.216  0.00  0.00    +0.000 C 
BRANCH  14  15
ATOM     15  C   LIG    1       25.169 -21.026   7.061  0.00  0.00    +0.000 C 
BRANCH  15  16
ATOM     16  C   LIG    1       26.502 -21.383   6.400  0.00  0.00    +0.011 C 
BRANCH  16  17
ATOM     17  C   LIG    1       27.242 -20.154   5.869  0.00  0.00    +0.120 C 
BRANCH  17  18
ATOM     18  C   LIG    1       28.651 -20.016   6.374  0.00  0.00    +0.305 C 
ATOM     19  O   LIG    1       29.240 -18.929   6.482  0.00  0.00    -0.251 OA
BRANCH  18  20
ATOM     20  O   LIG    1       29.238 -21.181   6.713  0.00  0.00    -0.481 OA
ATOM     21  H   LIG    1       29.451 -21.755   5.956  0.00  0.00    +0.295 HD
ENDBRANCH  18  20
ENDBRANCH  17  18
ENDBRANCH  16  17
ENDBRANCH  15  16
ENDBRANCH  14  15
ENDBRANCH  13  14
ENDBRANCH  12  13
ENDBRANCH   1  12
TORSDOF 15
ENDMDL
MODEL 3
REMARK VINA RESULT:      -5.8      2.448      7.220
REMARK  Name = *****
REMARK                            x       y       z     vdW  Elec       q    Type
REMARK                         _______ _______ _______ _____ _____    ______ ____
ROOT
ATOM      1  C   LIG    1       24.189 -15.887   3.958  0.00  0.00    +0.027 C 
ENDROOT
BRANCH   1   3
ATOM      2  C   LIG    1       25.867 -17.817   3.322  0.00  0.00    -0.027 C 
ATOM      3  C   LIG    1       25.460 -16.535   3.444  0.00  0.00    -0.031 C 
BRANCH   2   4
ATOM      4  C   LIG    1       25.262 -19.139   3.748  0.00  0.00    +0.054 C 
BRANCH   4   6
ATOM      5  C   LIG    1       25.776 -20.614   5.794  0.00  0.00    -0.031 C 
ATOM      6  C   LIG    1       26.145 -19.980   4.658  0.00  0.00    -0.027 C 
BRANCH   5   7
ATOM      7  C   LIG    1       24.406 -20.565   6.433  0.00  0.00    +0.027 C 
BRANCH   7   8
ATOM      8  C   LIG    1       23.315 -21.482   5.846  0.00  0.00    +0.004 C 
BRANCH   8   9
ATOM      9  C   LIG    1       22.274 -20.706   5.004  0.00  0.00    +0.000 C 
BRANCH   9  11
ATOM     10  C   LIG    1       21.647 -18.440   4.032  0.00  0.00    +0.004 C 
ATOM     11  C   LIG    1       22.336 -19.183   5.171  0.00  0.00    -0.003 C 
ENDBRANCH   9  11
ENDBRANCH   8   9
ENDBRANCH   7   8
ENDBRANCH   5   7
ENDBRANCH   4   6
ENDBRANCH   2   4
ENDBRANCH   1   3
BRANCH   1  12
ATOM     12  C   LIG    1       24.383 -14.407   4.321  0.00  0.00    +0.004 C 
BRANCH  12  13
ATOM     13  C   LIG    1       23.904 -13.398   3.260  0.00  0.00    +0.000 C 
BRANCH  13  14
ATOM     14  C   LIG    1       24.917 -13.245   2.104  0.00  0.00    +0.000 C 
BRANCH  14  15
ATOM     15  C   LIG    1       26.273 -12.687   2.556  0.00  0.00    +0.000 C 
BRANCH  15  16
ATOM     16  C   LIG    1       27.306 -13.787   2.812  0.00  0.00    +0.011 C 
BRANCH  16  17
ATOM     17  C   LIG    1       28.490 -13.295   3.647  0.00  0.00    +0.120 C 
BRANCH  17  18
ATOM     18  C   LIG    1       28.137 -12.915   5.057  0.00  0.00    +0.305 C 
ATOM     19  O   LIG    1       27.228 -13.453   5.708  0.00  0.00    -0.251 OA
BRANCH  18  20
ATOM     20  O   LIG    1       28.898 -11.931   5.576  0.00  0.00    -0.481 OA
ATOM     21  H   LIG    1       29.740 -11.790   5.108  0.00  0.00    +0.295 HD
ENDBRANCH  18  20
ENDBRANCH  17  18
ENDBRANCH  16  17
ENDBRANCH  15  16
ENDBRANCH  14  15
ENDBRANCH  13  14
ENDBRANCH  12  13
ENDBRANCH   1  12
TORSDOF 15
ENDMDL
MODEL 4
REMARK VINA RESULT:      -5.8      1.926      6.669
REMARK  Name = *****
REMARK                            x       y       z     vdW  Elec       q    Type
REMARK                         _______ _______ _______ _____ _____    ______ ____
ROOT
ATOM      1  C   LIG    1       22.342 -17.920   4.437  0.00  0.00    +0.027 C 
ENDROOT
BRANCH   1   3
ATOM      2  C   LIG    1       24.139 -19.789   3.962  0.00  0.00    -0.027 C 
ATOM      3  C   LIG    1       23.678 -18.521   4.048  0.00  0.00    -0.031 C 
BRANCH   2   4
ATOM      4  C   LIG    1       23.540 -21.132   4.322  0.00  0.00    +0.054 C 
BRANCH   4   6
ATOM      5  C   LIG    1       23.512 -20.875   6.883  0.00  0.00    -0.031 C 
ATOM      6  C   LIG    1       22.922 -21.203   5.711  0.00  0.00    -0.027 C 
BRANCH   5   7
ATOM      7  C   LIG    1       24.943 -20.423   7.061  0.00  0.00    +0.027 C 
BRANCH   7   8
ATOM      8  C   LIG    1       26.054 -21.453   6.778  0.00  0.00    +0.004 C 
BRANCH   8   9
ATOM      9  C   LIG    1       27.472 -20.840   6.871  0.00  0.00    +0.000 C 
BRANCH   9  11
ATOM     10  C   LIG    1       29.051 -19.094   5.908  0.00  0.00    +0.004 C 
ATOM     11  C   LIG    1       27.904 -20.057   5.625  0.00  0.00    -0.003 C 
ENDBRANCH   9  11
ENDBRANCH   8   9
ENDBRANCH   7   8
ENDBRANCH   5   7
ENDBRANCH   4   6
ENDBRANCH   2   4
ENDBRANCH   1   3
BRANCH   1  12
ATOM     12  C   LIG    1       22.406 -16.394   4.606  0.00  0.00    +0.004 C 
BRANCH  12  13
ATOM     13  C   LIG    1       23.653 -15.715   4.008  0.00  0.00    +0.000 C 
BRANCH  13  14
ATOM     14  C   LIG    1       23.676 -14.195   4.283  0.00  0.00    +0.000 C 
BRANCH  14  15
ATOM     15  C   LIG    1       23.948 -13.355   3.028  0.00  0.00    +0.000 C 
BRANCH  15  16
ATOM     16  C   LIG    1       25.357 -12.759   3.012  0.00  0.00    +0.011 C 
BRANCH  16  17
ATOM     17  C   LIG    1       26.395 -13.723   2.435  0.00  0.00    +0.120 C 
BRANCH  17  18
ATOM     18  C   LIG    1       27.507 -14.074   3.383  0.00  0.00    +0.305 C 
ATOM     19  O   LIG    1       27.427 -14.973   4.235  0.00  0.00    -0.251 OA
BRANCH  18  20
ATOM     20  O   LIG    1       28.621 -13.331   3.234  0.00  0.00    -0.481 OA
ATOM     21  H   LIG    1       28.696 -12.893   2.368  0.00  0.00    +0.295 HD
ENDBRANCH  18  20
ENDBRANCH  17  18
ENDBRANCH  16  17
ENDBRANCH  15  16
ENDBRANCH  14  15
ENDBRANCH  13  14
ENDBRANCH  12  13
ENDBRANCH   1  12
TORSDOF 15
ENDMDL
MODEL 5
REMARK VINA RESULT:      -5.7      1.793      1.994
REMARK  Name = *****
REMARK                            x       y       z     vdW  Elec       q    Type
REMARK                         _______ _______ _______ _____ _____    ______ ____
ROOT
ATOM      1  C   LIG    1       22.564 -18.396   4.129  0.00  0.00    +0.027 C 
ENDROOT
BRANCH   1   3
ATOM      2  C   LIG    1       22.533 -15.866   4.868  0.00  0.00    -0.027 C 
ATOM      3  C   LIG    1       22.116 -17.152   4.870  0.00  0.00    -0.031 C 
BRANCH   2   4
ATOM      4  C   LIG    1       23.692 -15.157   4.200  0.00  0.00    +0.054 C 
BRANCH   4   6
ATOM      5  C   LIG    1       24.215 -12.698   3.649  0.00  0.00    -0.031 C 
ATOM      6  C   LIG    1       23.776 -13.665   4.486  0.00  0.00    -0.027 C 
BRANCH   5   7
ATOM      7  C   LIG    1       24.775 -12.912   2.261  0.00  0.00    +0.027 C 
BRANCH   7   8
ATOM      8  C   LIG    1       26.150 -13.599   2.148  0.00  0.00    +0.004 C 
BRANCH   8   9
ATOM      9  C   LIG    1       27.233 -12.909   3.011  0.00  0.00    +0.000 C 
BRANCH   9  11
ATOM     10  C   LIG    1       27.437 -15.264   3.949  0.00  0.00    +0.004 C 
ATOM     11  C   LIG    1       28.047 -13.868   3.888  0.00  0.00    -0.003 C 
ENDBRANCH   9  11
ENDBRANCH   8   9
ENDBRANCH   7   8
ENDBRANCH   5   7
ENDBRANCH   4   6
ENDBRANCH   2   4
ENDBRANCH   1   3
BRANCH   1  12
ATOM     12  C   LIG    1       21.760 -19.644   4.525  0.00  0.00    +0.004 C 
BRANCH  12  13
ATOM     13  C   LIG    1       22.564 -20.751   5.234  0.00  0.00    +0.000 C 
BRANCH  13  14
ATOM     14  C   LIG    1       23.146 -20.274   6.582  0.00  0.00    +0.000 C 
BRANCH  14  15
ATOM     15  C   LIG    1       24.514 -20.891   6.904  0.00  0.00    +0.000 C 
BRANCH  15  16
ATOM     16  C   LIG    1       25.320 -21.225   5.646  0.00  0.00    +0.011 C 
BRANCH  16  17
ATOM     17  C   LIG    1       26.188 -20.056   5.178  0.00  0.00    +0.120 C 
BRANCH  17  18
ATOM     18  C   LIG    1       25.779 -19.474   3.854  0.00  0.00    +0.305 C 
ATOM     19  O   LIG    1       25.916 -18.277   3.556  0.00  0.00    -0.251 OA
BRANCH  18  20
ATOM     20  O   LIG    1       25.247 -20.366   2.995  0.00  0.00    -0.481 OA
ATOM     21  H   LIG    1       24.850 -21.145   3.423  0.00  0.00    +0.295 HD
ENDBRANCH  18  20
ENDBRANCH  17  18
ENDBRANCH  16  17
ENDBRANCH  15  16
ENDBRANCH  14  15
ENDBRANCH  13  14
ENDBRANCH  12  13
ENDBRANCH   1  12
TORSDOF 15
ENDMDL
MODEL 6
REMARK VINA RESULT:      -5.5      1.083      2.189
REMARK  Name = *****
REMARK                            x       y       z     vdW  Elec       q    Type
REMARK                         _______ _______ _______ _____ _____    ______ ____
ROOT
ATOM      1  C   LIG    1       22.298 -16.656   4.986  0.00  0.00    +0.027 C 
ENDROOT
BRANCH   1   3
ATOM      2  C   LIG    1       23.806 -14.748   3.970  0.00  0.00    -0.027 C 
ATOM      3  C   LIG    1       23.146 -15.926   3.962  0.00  0.00    -0.031 C 
BRANCH   2   4
ATOM      4  C   LIG    1       23.886 -13.614   4.971  0.00  0.00    +0.054 C 
BRANCH   4   6
ATOM      5  C   LIG    1       24.097 -11.789   3.168  0.00  0.00    -0.031 C 
ATOM      6  C   LIG    1       23.685 -12.227   4.380  0.00  0.00    -0.027 C 
BRANCH   5   7
ATOM      7  C   LIG    1       24.904 -12.581   2.166  0.00  0.00    +0.027 C 
BRANCH   7   8
ATOM      8  C   LIG    1       26.420 -12.705   2.414  0.00  0.00    +0.004 C 
BRANCH   8   9
ATOM      9  C   LIG    1       26.882 -14.176   2.558  0.00  0.00    +0.000 C 
BRANCH   9  11
ATOM     10  C   LIG    1       27.454 -13.352   4.896  0.00  0.00    +0.004 C 
ATOM     11  C   LIG    1       27.570 -14.493   3.892  0.00  0.00    -0.003 C 
ENDBRANCH   9  11
ENDBRANCH   8   9
ENDBRANCH   7   8
ENDBRANCH   5   7
ENDBRANCH   4   6
ENDBRANCH   2   4
ENDBRANCH   1   3
BRANCH   1  12
ATOM     12  C   LIG    1       22.058 -18.127   4.617  0.00  0.00    +0.004 C 
BRANCH  12  13
ATOM     13  C   LIG    1       23.273 -18.867   4.024  0.00  0.00    +0.000 C 
BRANCH  13  14
ATOM     14  C   LIG    1       23.279 -20.366   4.395  0.00  0.00    +0.000 C 
BRANCH  14  15
ATOM     15  C   LIG    1       22.912 -20.628   5.862  0.00  0.00    +0.000 C 
BRANCH  15  16
ATOM     16  C   LIG    1       24.139 -20.692   6.773  0.00  0.00    +0.011 C 
BRANCH  16  17
ATOM     17  C   LIG    1       25.336 -21.368   6.100  0.00  0.00    +0.120 C 
BRANCH  17  18
ATOM     18  C   LIG    1       26.578 -20.524   6.057  0.00  0.00    +0.305 C 
ATOM     19  O   LIG    1       27.250 -20.235   7.059  0.00  0.00    -0.251 OA
BRANCH  18  20
ATOM     20  O   LIG    1       26.920 -20.100   4.824  0.00  0.00    -0.481 OA
ATOM     21  H   LIG    1       26.164 -19.858   4.261  0.00  0.00    +0.295 HD
ENDBRANCH  18  20
ENDBRANCH  17  18
ENDBRANCH  16  17
ENDBRANCH  15  16
ENDBRANCH  14  15
ENDBRANCH  13  14
ENDBRANCH  12  13
ENDBRANCH   1  12
TORSDOF 15
ENDMDL
MODEL 7
REMARK VINA RESULT:      -5.4      2.783      7.701
REMARK  Name = *****
REMARK                            x       y       z     vdW  Elec       q    Type
REMARK                         _______ _______ _______ _____ _____    ______ ____
ROOT
ATOM      1  C   LIG    1       27.155 -17.632   3.978  0.00  0.00    +0.027 C 
ENDROOT
BRANCH   1   3
ATOM      2  C   LIG    1       28.998 -18.659   5.558  0.00  0.00    -0.027 C 
ATOM      3  C   LIG    1       28.425 -17.695   4.804  0.00  0.00    -0.031 C 
BRANCH   2   4
ATOM      4  C   LIG    1       28.553 -20.045   5.977  0.00  0.00    +0.054 C 
BRANCH   4   6
ATOM      5  C   LIG    1       26.259 -20.633   6.986  0.00  0.00    -0.031 C 
ATOM      6  C   LIG    1       27.487 -20.071   7.062  0.00  0.00    -0.027 C 
BRANCH   5   7
ATOM      7  C   LIG    1       25.665 -21.305   5.769  0.00  0.00    +0.027 C 
BRANCH   7   8
ATOM      8  C   LIG    1       25.277 -20.406   4.579  0.00  0.00    +0.004 C 
BRANCH   8   9
ATOM      9  C   LIG    1       23.780 -20.527   4.203  0.00  0.00    +0.000 C 
BRANCH   9  11
ATOM     10  C   LIG    1       22.326 -18.519   4.769  0.00  0.00    +0.004 C 
ATOM     11  C   LIG    1       22.821 -19.889   5.216  0.00  0.00    -0.003 C 
ENDBRANCH   9  11
ENDBRANCH   8   9
ENDBRANCH   7   8
ENDBRANCH   5   7
ENDBRANCH   4   6
ENDBRANCH   2   4
ENDBRANCH   1   3
BRANCH   1  12
ATOM     12  C   LIG    1       26.747 -16.193   3.628  0.00  0.00    +0.004 C 
BRANCH  12  13
ATOM     13  C   LIG    1       27.654 -15.090   4.207  0.00  0.00    +0.000 C 
BRANCH  13  14
ATOM     14  C   LIG    1       27.651 -13.816   3.333  0.00  0.00    +0.000 C 
BRANCH  14  15
ATOM     15  C   LIG    1       26.586 -13.842   2.228  0.00  0.00    +0.000 C 
BRANCH  15  16
ATOM     16  C   LIG    1       25.712 -12.586   2.223  0.00  0.00    +0.011 C 
BRANCH  16  17
ATOM     17  C   LIG    1       24.265 -12.876   2.626  0.00  0.00    +0.120 C 
BRANCH  17  18
ATOM     18  C   LIG    1       24.067 -13.098   4.099  0.00  0.00    +0.305 C 
ATOM     19  O   LIG    1       24.007 -14.220   4.625  0.00  0.00    -0.251 OA
BRANCH  18  20
ATOM     20  O   LIG    1       23.964 -11.965   4.823  0.00  0.00    -0.481 OA
ATOM     21  H   LIG    1       23.144 -11.898   5.344  0.00  0.00    +0.295 HD
ENDBRANCH  18  20
ENDBRANCH  17  18
ENDBRANCH  16  17
ENDBRANCH  15  16
ENDBRANCH  14  15
ENDBRANCH  13  14
ENDBRANCH  12  13
ENDBRANCH   1  12
TORSDOF 15
ENDMDL
MODEL 8
REMARK VINA RESULT:      -5.1      2.791      4.257
REMARK  Name = *****
REMARK                            x       y       z     vdW  Elec       q    Type
REMARK                         _______ _______ _______ _____ _____    ______ ____
ROOT
ATOM      1  C   LIG    1       25.803 -19.485   3.665  0.00  0.00    +0.027 C 
ENDROOT
BRANCH   1   3
ATOM      2  C   LIG    1       25.961 -16.865   3.416  0.00  0.00    -0.027 C 
ATOM      3  C   LIG    1       25.331 -18.060   3.445  0.00  0.00    -0.031 C 
BRANCH   2   4
ATOM      4  C   LIG    1       27.387 -16.442   3.697  0.00  0.00    +0.054 C 
BRANCH   4   6
ATOM      5  C   LIG    1       27.132 -13.886   3.520  0.00  0.00    -0.031 C 
ATOM      6  C   LIG    1       27.544 -15.002   4.164  0.00  0.00    -0.027 C 
BRANCH   5   7
ATOM      7  C   LIG    1       26.476 -13.839   2.158  0.00  0.00    +0.027 C 
BRANCH   7   8
ATOM      8  C   LIG    1       25.038 -13.291   2.081  0.00  0.00    +0.004 C 
BRANCH   8   9
ATOM      9  C   LIG    1       24.746 -12.229   3.168  0.00  0.00    +0.000 C 
BRANCH   9  11
ATOM     10  C   LIG    1       23.658 -14.249   4.266  0.00  0.00    +0.004 C 
ATOM     11  C   LIG    1       24.011 -12.773   4.400  0.00  0.00    -0.003 C 
ENDBRANCH   9  11
ENDBRANCH   8   9
ENDBRANCH   7   8
ENDBRANCH   5   7
ENDBRANCH   4   6
ENDBRANCH   2   4
ENDBRANCH   1   3
BRANCH   1  12
ATOM     12  C   LIG    1       26.687 -19.629   4.913  0.00  0.00    +0.004 C 
BRANCH  12  13
ATOM     13  C   LIG    1       26.166 -20.608   5.983  0.00  0.00    +0.000 C 
BRANCH  13  14
ATOM     14  C   LIG    1       24.853 -21.297   5.551  0.00  0.00    +0.000 C 
BRANCH  14  15
ATOM     15  C   LIG    1       23.728 -21.163   6.586  0.00  0.00    +0.000 C 
BRANCH  15  16
ATOM     16  C   LIG    1       22.771 -20.011   6.269  0.00  0.00    +0.011 C 
BRANCH  16  17
ATOM     17  C   LIG    1       22.531 -19.845   4.768  0.00  0.00    +0.120 C 
BRANCH  17  18
ATOM     18  C   LIG    1       21.857 -18.555   4.390  0.00  0.00    +0.305 C 
ATOM     19  O   LIG    1       22.220 -17.442   4.800  0.00  0.00    -0.251 OA
BRANCH  18  20
ATOM     20  O   LIG    1       20.813 -18.699   3.550  0.00  0.00    -0.481 OA
ATOM     21  H   LIG    1       20.134 -18.005   3.635  0.00  0.00    +0.295 HD
ENDBRANCH  18  20
ENDBRANCH  17  18
ENDBRANCH  16  17
ENDBRANCH  15  16
ENDBRANCH  14  15
ENDBRANCH  13  14
ENDBRANCH  12  13
ENDBRANCH   1  12
TORSDOF 15
ENDMDL
MODEL 9
REMARK VINA RESULT:      -5.0      1.660      3.398
REMARK  Name = *****
REMARK                            x       y       z     vdW  Elec       q    Type
REMARK                         _______ _______ _______ _____ _____    ______ ____
ROOT
ATOM      1  C   LIG    1       22.905 -15.541   4.877  0.00  0.00    +0.027 C 
ENDROOT
BRANCH   1   3
ATOM      2  C   LIG    1       23.788 -13.554   3.387  0.00  0.00    -0.027 C 
ATOM      3  C   LIG    1       23.127 -14.707   3.630  0.00  0.00    -0.031 C 
BRANCH   2   4
ATOM      4  C   LIG    1       24.494 -12.558   4.284  0.00  0.00    +0.054 C 
BRANCH   4   6
ATOM      5  C   LIG    1       26.602 -13.447   5.464  0.00  0.00    -0.031 C 
ATOM      6  C   LIG    1       25.276 -13.178   5.432  0.00  0.00    -0.027 C 
BRANCH   5   7
ATOM      7  C   LIG    1       27.577 -13.239   4.328  0.00  0.00    +0.027 C 
BRANCH   7   8
ATOM      8  C   LIG    1       27.645 -14.331   3.242  0.00  0.00    +0.004 C 
BRANCH   8   9
ATOM      9  C   LIG    1       27.279 -15.734   3.783  0.00  0.00    +0.000 C 
BRANCH   9  11
ATOM     10  C   LIG    1       25.957 -17.876   3.422  0.00  0.00    +0.004 C 
ATOM     11  C   LIG    1       26.105 -16.403   3.059  0.00  0.00    -0.003 C 
ENDBRANCH   9  11
ENDBRANCH   8   9
ENDBRANCH   7   8
ENDBRANCH   5   7
ENDBRANCH   4   6
ENDBRANCH   2   4
ENDBRANCH   1   3
BRANCH   1  12
ATOM     12  C   LIG    1       22.061 -16.796   4.607  0.00  0.00    +0.004 C 
BRANCH  12  13
ATOM     13  C   LIG    1       22.831 -18.130   4.643  0.00  0.00    +0.000 C 
BRANCH  13  14
ATOM     14  C   LIG    1       21.939 -19.327   4.245  0.00  0.00    +0.000 C 
BRANCH  14  15
ATOM     15  C   LIG    1       22.215 -20.590   5.071  0.00  0.00    +0.000 C 
BRANCH  15  16
ATOM     16  C   LIG    1       22.995 -20.295   6.355  0.00  0.00    +0.011 C 
BRANCH  16  17
ATOM     17  C   LIG    1       24.080 -21.337   6.634  0.00  0.00    +0.120 C 
BRANCH  17  18
ATOM     18  C   LIG    1       25.471 -20.890   6.280  0.00  0.00    +0.305 C 
ATOM     19  O   LIG    1       26.217 -20.278   7.060  0.00  0.00    -0.251 OA
BRANCH  18  20
ATOM     20  O   LIG    1       25.859 -21.215   5.030  0.00  0.00    -0.481 OA
ATOM     21  H   LIG    1       25.806 -22.166   4.831  0.00  0.00    +0.295 HD
ENDBRANCH  18  20
ENDBRANCH  17  18
ENDBRANCH  16  17
ENDBRANCH  15  16
ENDBRANCH  14  15
ENDBRANCH  13  14
ENDBRANCH  12  13
ENDBRANCH   1  12
TORSDOF 15
ENDMDL
