MODEL 1
REMARK VINA RESULT:      -6.8      0.000      0.000
REMARK  Name = *****
REMARK                            x       y       z     vdW  Elec       q    Type
REMARK                         _______ _______ _______ _____ _____    ______ ____
ROOT
ATOM      1  C   LIG    1       25.191 -21.035   6.186  0.00  0.00    +0.039 C 
ATOM      2  C   LIG    1       24.622 -20.681   7.591  0.00  0.00    +0.018 C 
ENDROOT
BRANCH   1   3
ATOM      3  C   LIG    1       24.265 -20.398   5.061  0.00  0.00    -0.002 C 
ATOM      4  C   LIG    1       24.081 -21.239   3.785  0.00  0.00    +0.008 C 
BRANCH   3   6
ATOM      5  C   LIG    1       22.232 -18.778   4.663  0.00  0.00    +0.004 C 
ATOM      6  C   LIG    1       22.864 -19.883   5.491  0.00  0.00    +0.000 C 
ENDBRANCH   3   6
ENDBRANCH   1   3
BRANCH   1   7
ATOM      7  C   LIG    1       26.669 -20.548   6.181  0.00  0.00    +0.244 C 
BRANCH   7   8
ATOM      8  O   LIG    1       27.152 -20.365   7.520  0.00  0.00    -0.450 OA
BRANCH   8   9
ATOM      9  C   LIG    1       28.486 -20.230   7.680  0.00  0.00    +0.398 C 
ATOM     10  O   LIG    1       29.058 -19.466   8.436  0.00  0.00    -0.227 OA
ATOM     11  N   LIG    1       29.129 -21.069   6.842  0.00  0.00    -0.295 N 
ATOM     12  H   LIG    1       30.136 -21.105   6.878  0.00  0.00    +0.148 HD
ATOM     13  H   LIG    1       28.607 -21.737   6.298  0.00  0.00    +0.148 HD
ENDBRANCH   8   9
ENDBRANCH   7   8
ENDBRANCH   1   7
BRANCH   1  14
ATOM     14  C   LIG    1       25.218 -22.591   6.064  0.00  0.00    +0.244 C 
BRANCH  14  15
ATOM     15  O   LIG    1       24.416 -23.224   7.083  0.00  0.00    -0.450 OA
BRANCH  15  16
ATOM     16  C   LIG    1       23.466 -24.094   6.666  0.00  0.00    +0.398 C 
ATOM     17  O   LIG    1       23.612 -25.268   6.397  0.00  0.00    -0.227 OA
ATOM     18  N   LIG    1       22.274 -23.461   6.557  0.00  0.00    -0.295 N 
ATOM     19  H   LIG    1       21.500 -23.967   6.153  0.00  0.00    +0.148 HD
ATOM     20  H   LIG    1       22.210 -22.470   6.724  0.00  0.00    +0.148 HD
ENDBRANCH  15  16
ENDBRANCH  14  15
ENDBRANCH   1  14
TORSDOF 8
ENDMDL
MODEL 2
REMARK VINA RESULT:      -6.6      1.589      1.668
REMARK  Name = *****
REMARK                            x       y       z     vdW  Elec       q    Type
REMARK                         _______ _______ _______ _____ _____    ______ ____
ROOT
ATOM      1  C   LIG    1       24.395 -21.725   6.327  0.00  0.00    +0.039 C 
ATOM      2  C   LIG    1       23.086 -22.215   7.011  0.00  0.00    +0.018 C 
ENDROOT
BRANCH   1   3
ATOM      3  C   LIG    1       24.102 -20.395   5.506  0.00  0.00    -0.002 C 
ATOM      4  C   LIG    1       24.704 -20.329   4.091  0.00  0.00    +0.008 C 
BRANCH   3   6
ATOM      5  C   LIG    1       22.332 -18.680   4.588  0.00  0.00    +0.004 C 
ATOM      6  C   LIG    1       22.625 -19.921   5.411  0.00  0.00    +0.000 C 
ENDBRANCH   3   6
ENDBRANCH   1   3
BRANCH   1   7
ATOM      7  C   LIG    1       25.451 -21.585   7.460  0.00  0.00    +0.244 C 
BRANCH   7   8
ATOM      8  O   LIG    1       26.116 -20.314   7.387  0.00  0.00    -0.450 OA
BRANCH   8   9
ATOM      9  C   LIG    1       27.463 -20.329   7.310  0.00  0.00    +0.398 C 
ATOM     10  O   LIG    1       28.250 -20.169   8.226  0.00  0.00    -0.227 OA
ATOM     11  N   LIG    1       27.842 -20.530   6.030  0.00  0.00    -0.295 N 
ATOM     12  H   LIG    1       28.827 -20.602   5.827  0.00  0.00    +0.148 HD
ATOM     13  H   LIG    1       27.152 -20.739   5.327  0.00  0.00    +0.148 HD
ENDBRANCH   8   9
ENDBRANCH   7   8
ENDBRANCH   1   7
BRANCH   1  14
ATOM     14  C   LIG    1       24.887 -22.862   5.377  0.00  0.00    +0.244 C 
BRANCH  14  15
ATOM     15  O   LIG    1       25.519 -23.935   6.107  0.00  0.00    -0.450 OA
BRANCH  15  16
ATOM     16  C   LIG    1       25.376 -25.187   5.608  0.00  0.00    +0.398 C 
ATOM     17  O   LIG    1       26.257 -25.981   5.353  0.00  0.00    -0.227 OA
ATOM     18  N   LIG    1       24.065 -25.453   5.396  0.00  0.00    -0.295 N 
ATOM     19  H   LIG    1       23.824 -26.313   4.926  0.00  0.00    +0.148 HD
ATOM     20  H   LIG    1       23.372 -24.741   5.558  0.00  0.00    +0.148 HD
ENDBRANCH  15  16
ENDBRANCH  14  15
ENDBRANCH   1  14
TORSDOF 8
ENDMDL
MODEL 3
REMARK VINA RESULT:      -6.5      3.697      4.779
REMARK  Name = *****
REMARK                            x       y       z     vdW  Elec       q    Type
REMARK                         _______ _______ _______ _____ _____    ______ ____
ROOT
ATOM      1  C   LIG    1       27.134 -21.095   7.110  0.00  0.00    +0.039 C 
ATOM      2  C   LIG    1       26.609 -20.332   8.361  0.00  0.00    +0.018 C 
ENDROOT
BRANCH   1   3
ATOM      3  C   LIG    1       26.055 -22.168   6.648  0.00  0.00    -0.002 C 
ATOM      4  C   LIG    1       25.955 -23.438   7.511  0.00  0.00    +0.008 C 
BRANCH   3   6
ATOM      5  C   LIG    1       23.478 -22.328   7.149  0.00  0.00    +0.004 C 
ATOM      6  C   LIG    1       24.609 -21.664   6.385  0.00  0.00    +0.000 C 
ENDBRANCH   3   6
ENDBRANCH   1   3
BRANCH   1   7
ATOM      7  C   LIG    1       27.481 -20.008   6.052  0.00  0.00    +0.244 C 
BRANCH   7   8
ATOM      8  O   LIG    1       28.898 -19.943   5.831  0.00  0.00    -0.450 OA
BRANCH   8   9
ATOM      9  C   LIG    1       29.464 -18.717   5.827  0.00  0.00    +0.398 C 
ATOM     10  O   LIG    1       30.300 -18.294   6.606  0.00  0.00    -0.227 OA
ATOM     11  N   LIG    1       28.947 -17.983   4.819  0.00  0.00    -0.295 N 
ATOM     12  H   LIG    1       29.306 -17.053   4.670  0.00  0.00    +0.148 HD
ATOM     13  H   LIG    1       28.321 -18.409   4.155  0.00  0.00    +0.148 HD
ENDBRANCH   8   9
ENDBRANCH   7   8
ENDBRANCH   1   7
BRANCH   1  14
ATOM     14  C   LIG    1       28.472 -21.793   7.508  0.00  0.00    +0.244 C 
BRANCH  14  15
ATOM     15  O   LIG    1       29.119 -21.126   8.612  0.00  0.00    -0.450 OA
BRANCH  15  16
ATOM     16  C   LIG    1       30.412 -21.449   8.854  0.00  0.00    +0.398 C 
ATOM     17  O   LIG    1       30.841 -22.136   9.758  0.00  0.00    -0.227 OA
ATOM     18  N   LIG    1       31.214 -20.865   7.932  0.00  0.00    -0.295 N 
ATOM     19  H   LIG    1       32.213 -20.936   8.058  0.00  0.00    +0.148 HD
ATOM     20  H   LIG    1       30.824 -20.248   7.240  0.00  0.00    +0.148 HD
ENDBRANCH  15  16
ENDBRANCH  14  15
ENDBRANCH   1  14
TORSDOF 8
ENDMDL
MODEL 4
REMARK VINA RESULT:      -6.4      2.487      5.021
REMARK  Name = *****
REMARK                            x       y       z     vdW  Elec       q    Type
REMARK                         _______ _______ _______ _____ _____    ______ ____
ROOT
ATOM      1  C   LIG    1       24.639 -21.547   6.720  0.00  0.00    +0.039 C 
ATOM      2  C   LIG    1       23.257 -20.862   6.932  0.00  0.00    +0.018 C 
ENDROOT
BRANCH   1   3
ATOM      3  C   LIG    1       24.576 -23.047   7.244  0.00  0.00    -0.002 C 
ATOM      4  C   LIG    1       23.388 -23.888   6.739  0.00  0.00    +0.008 C 
BRANCH   3   6
ATOM      5  C   LIG    1       25.696 -25.346   6.627  0.00  0.00    +0.004 C 
ATOM      6  C   LIG    1       25.858 -23.912   7.100  0.00  0.00    +0.000 C 
ENDBRANCH   3   6
ENDBRANCH   1   3
BRANCH   1   7
ATOM      7  C   LIG    1       24.976 -21.387   5.210  0.00  0.00    +0.244 C 
BRANCH   7   8
ATOM      8  O   LIG    1       24.056 -20.489   4.572  0.00  0.00    -0.450 OA
BRANCH   8   9
ATOM      9  C   LIG    1       24.579 -19.412   3.949  0.00  0.00    +0.398 C 
ATOM     10  O   LIG    1       23.971 -18.446   3.525  0.00  0.00    -0.227 OA
ATOM     11  N   LIG    1       25.915 -19.560   3.833  0.00  0.00    -0.295 N 
ATOM     12  H   LIG    1       26.447 -18.810   3.419  0.00  0.00    +0.148 HD
ATOM     13  H   LIG    1       26.376 -20.339   4.276  0.00  0.00    +0.148 HD
ENDBRANCH   8   9
ENDBRANCH   7   8
ENDBRANCH   1   7
BRANCH   1  14
ATOM     14  C   LIG    1       25.701 -20.728   7.519  0.00  0.00    +0.244 C 
BRANCH  14  15
ATOM     15  O   LIG    1       26.800 -20.313   6.680  0.00  0.00    -0.450 OA
BRANCH  15  16
ATOM     16  C   LIG    1       28.042 -20.378   7.217  0.00  0.00    +0.398 C 
ATOM     17  O   LIG    1       28.420 -19.880   8.256  0.00  0.00    -0.227 OA
ATOM     18  N   LIG    1       28.861 -21.085   6.402  0.00  0.00    -0.295 N 
ATOM     19  H   LIG    1       29.843 -21.121   6.629  0.00  0.00    +0.148 HD
ATOM     20  H   LIG    1       28.524 -21.423   5.516  0.00  0.00    +0.148 HD
ENDBRANCH  15  16
ENDBRANCH  14  15
ENDBRANCH   1  14
TORSDOF 8
ENDMDL
MODEL 5
REMARK VINA RESULT:      -6.3      2.526      4.617
REMARK  Name = *****
REMARK                            x       y       z     vdW  Elec       q    Type
REMARK                         _______ _______ _______ _____ _____    ______ ____
ROOT
ATOM      1  C   LIG    1       26.184 -21.126   6.872  0.00  0.00    +0.039 C 
ATOM      2  C   LIG    1       25.279 -20.684   8.058  0.00  0.00    +0.018 C 
ENDROOT
BRANCH   1   3
ATOM      3  C   LIG    1       27.615 -20.446   7.011  0.00  0.00    -0.002 C 
ATOM      4  C   LIG    1       28.721 -21.322   7.627  0.00  0.00    +0.008 C 
BRANCH   3   6
ATOM      5  C   LIG    1       29.363 -18.792   5.949  0.00  0.00    +0.004 C 
ATOM      6  C   LIG    1       28.208 -19.758   5.750  0.00  0.00    +0.000 C 
ENDBRANCH   3   6
ENDBRANCH   1   3
BRANCH   1   7
ATOM      7  C   LIG    1       26.187 -22.682   6.883  0.00  0.00    +0.244 C 
BRANCH   7   8
ATOM      8  O   LIG    1       24.929 -23.192   7.350  0.00  0.00    -0.450 OA
BRANCH   8   9
ATOM      9  C   LIG    1       24.288 -24.072   6.552  0.00  0.00    +0.398 C 
ATOM     10  O   LIG    1       23.162 -24.510   6.703  0.00  0.00    -0.227 OA
ATOM     11  N   LIG    1       25.099 -24.436   5.536  0.00  0.00    -0.295 N 
ATOM     12  H   LIG    1       24.737 -25.064   4.836  0.00  0.00    +0.148 HD
ATOM     13  H   LIG    1       25.989 -23.981   5.414  0.00  0.00    +0.148 HD
ENDBRANCH   8   9
ENDBRANCH   7   8
ENDBRANCH   1   7
BRANCH   1  14
ATOM     14  C   LIG    1       25.485 -20.677   5.550  0.00  0.00    +0.244 C 
BRANCH  14  15
ATOM     15  O   LIG    1       24.090 -20.372   5.757  0.00  0.00    -0.450 OA
BRANCH  15  16
ATOM     16  C   LIG    1       23.199 -20.981   4.938  0.00  0.00    +0.398 C 
ATOM     17  O   LIG    1       21.997 -21.055   5.086  0.00  0.00    -0.227 OA
ATOM     18  N   LIG    1       23.845 -21.546   3.890  0.00  0.00    -0.295 N 
ATOM     19  H   LIG    1       23.312 -22.124   3.258  0.00  0.00    +0.148 HD
ATOM     20  H   LIG    1       24.850 -21.518   3.842  0.00  0.00    +0.148 HD
ENDBRANCH  15  16
ENDBRANCH  14  15
ENDBRANCH   1  14
TORSDOF 8
ENDMDL
MODEL 6
REMARK VINA RESULT:      -6.2      3.123      5.014
REMARK  Name = *****
REMARK                            x       y       z     vdW  Elec       q    Type
REMARK                         _______ _______ _______ _____ _____    ______ ____
ROOT
ATOM      1  C   LIG    1       24.744 -21.870   6.409  0.00  0.00    +0.039 C 
ATOM      2  C   LIG    1       23.446 -21.990   7.259  0.00  0.00    +0.018 C 
ENDROOT
BRANCH   1   3
ATOM      3  C   LIG    1       25.651 -20.698   6.983  0.00  0.00    -0.002 C 
ATOM      4  C   LIG    1       25.995 -20.784   8.482  0.00  0.00    +0.008 C 
BRANCH   3   6
ATOM      5  C   LIG    1       28.280 -20.691   6.898  0.00  0.00    +0.004 C 
ATOM      6  C   LIG    1       26.962 -20.364   6.219  0.00  0.00    +0.000 C 
ENDBRANCH   3   6
ENDBRANCH   1   3
BRANCH   1   7
ATOM      7  C   LIG    1       25.401 -23.281   6.419  0.00  0.00    +0.244 C 
BRANCH   7   8
ATOM      8  O   LIG    1       25.068 -24.009   5.227  0.00  0.00    -0.450 OA
BRANCH   8   9
ATOM      9  C   LIG    1       25.150 -25.355   5.286  0.00  0.00    +0.398 C 
ATOM     10  O   LIG    1       26.165 -26.027   5.269  0.00  0.00    -0.227 OA
ATOM     11  N   LIG    1       23.909 -25.882   5.345  0.00  0.00    -0.295 N 
ATOM     12  H   LIG    1       23.816 -26.882   5.433  0.00  0.00    +0.148 HD
ATOM     13  H   LIG    1       23.108 -25.278   5.440  0.00  0.00    +0.148 HD
ENDBRANCH   8   9
ENDBRANCH   7   8
ENDBRANCH   1   7
BRANCH   1  14
ATOM     14  C   LIG    1       24.321 -21.571   4.937  0.00  0.00    +0.244 C 
BRANCH  14  15
ATOM     15  O   LIG    1       23.149 -20.731   4.875  0.00  0.00    -0.450 OA
BRANCH  15  16
ATOM     16  C   LIG    1       23.304 -19.496   4.340  0.00  0.00    +0.398 C 
ATOM     17  O   LIG    1       24.233 -19.097   3.670  0.00  0.00    -0.227 OA
ATOM     18  N   LIG    1       22.253 -18.711   4.679  0.00  0.00    -0.295 N 
ATOM     19  H   LIG    1       22.293 -17.732   4.435  0.00  0.00    +0.148 HD
ATOM     20  H   LIG    1       21.537 -19.061   5.293  0.00  0.00    +0.148 HD
ENDBRANCH  15  16
ENDBRANCH  14  15
ENDBRANCH   1  14
TORSDOF 8
ENDMDL
MODEL 7
REMARK VINA RESULT:      -6.2      2.658      5.047
REMARK  Name = *****
REMARK                            x       y       z     vdW  Elec       q    Type
REMARK                         _______ _______ _______ _____ _____    ______ ____
ROOT
ATOM      1  C   LIG    1       26.192 -21.366   6.956  0.00  0.00    +0.039 C 
ATOM      2  C   LIG    1       25.709 -20.604   8.225  0.00  0.00    +0.018 C 
ENDROOT
BRANCH   1   3
ATOM      3  C   LIG    1       25.236 -22.606   6.683  0.00  0.00    -0.002 C 
ATOM      4  C   LIG    1       25.798 -23.988   7.067  0.00  0.00    +0.008 C 
BRANCH   3   6
ATOM      5  C   LIG    1       22.782 -23.551   6.723  0.00  0.00    +0.004 C 
ATOM      6  C   LIG    1       23.782 -22.524   7.224  0.00  0.00    +0.000 C 
ENDBRANCH   3   6
ENDBRANCH   1   3
BRANCH   1   7
ATOM      7  C   LIG    1       26.251 -20.311   5.813  0.00  0.00    +0.244 C 
BRANCH   7   8
ATOM      8  O   LIG    1       25.401 -20.692   4.721  0.00  0.00    -0.450 OA
BRANCH   8   9
ATOM      9  C   LIG    1       24.842 -19.696   4.001  0.00  0.00    +0.398 C 
ATOM     10  O   LIG    1       23.654 -19.516   3.803  0.00  0.00    -0.227 OA
ATOM     11  N   LIG    1       25.810 -18.907   3.492  0.00  0.00    -0.295 N 
ATOM     12  H   LIG    1       25.537 -18.095   2.960  0.00  0.00    +0.148 HD
ATOM     13  H   LIG    1       26.771 -19.053   3.756  0.00  0.00    +0.148 HD
ENDBRANCH   8   9
ENDBRANCH   7   8
ENDBRANCH   1   7
BRANCH   1  14
ATOM     14  C   LIG    1       27.655 -21.843   7.218  0.00  0.00    +0.244 C 
BRANCH  14  15
ATOM     15  O   LIG    1       28.277 -21.104   8.290  0.00  0.00    -0.450 OA
BRANCH  15  16
ATOM     16  C   LIG    1       29.495 -20.565   8.041  0.00  0.00    +0.398 C 
ATOM     17  O   LIG    1       30.293 -20.145   8.853  0.00  0.00    -0.227 OA
ATOM     18  N   LIG    1       29.720 -20.529   6.706  0.00  0.00    -0.295 N 
ATOM     19  H   LIG    1       30.546 -20.054   6.375  0.00  0.00    +0.148 HD
ATOM     20  H   LIG    1       29.004 -20.826   6.064  0.00  0.00    +0.148 HD
ENDBRANCH  15  16
ENDBRANCH  14  15
ENDBRANCH   1  14
TORSDOF 8
ENDMDL
MODEL 8
REMARK VINA RESULT:      -6.1      1.621      4.882
REMARK  Name = *****
REMARK                            x       y       z     vdW  Elec       q    Type
REMARK                         _______ _______ _______ _____ _____    ______ ____
ROOT
ATOM      1  C   LIG    1       25.453 -21.168   6.849  0.00  0.00    +0.039 C 
ATOM      2  C   LIG    1       25.865 -20.613   5.454  0.00  0.00    +0.018 C 
ENDROOT
BRANCH   1   3
ATOM      3  C   LIG    1       23.899 -20.922   7.082  0.00  0.00    -0.002 C 
ATOM      4  C   LIG    1       23.127 -20.319   5.895  0.00  0.00    +0.008 C 
BRANCH   3   6
ATOM      5  C   LIG    1       22.321 -22.978   6.635  0.00  0.00    +0.004 C 
ATOM      6  C   LIG    1       23.061 -22.107   7.635  0.00  0.00    +0.000 C 
ENDBRANCH   3   6
ENDBRANCH   1   3
BRANCH   1   7
ATOM      7  C   LIG    1       25.898 -22.658   6.872  0.00  0.00    +0.244 C 
BRANCH   7   8
ATOM      8  O   LIG    1       25.518 -23.326   5.660  0.00  0.00    -0.450 OA
BRANCH   8   9
ATOM      9  C   LIG    1       25.477 -24.675   5.687  0.00  0.00    +0.398 C 
ATOM     10  O   LIG    1       26.088 -25.410   6.442  0.00  0.00    -0.227 OA
ATOM     11  N   LIG    1       24.654 -25.123   4.716  0.00  0.00    -0.295 N 
ATOM     12  H   LIG    1       24.496 -26.116   4.642  0.00  0.00    +0.148 HD
ATOM     13  H   LIG    1       24.110 -24.470   4.175  0.00  0.00    +0.148 HD
ENDBRANCH   8   9
ENDBRANCH   7   8
ENDBRANCH   1   7
BRANCH   1  14
ATOM     14  C   LIG    1       26.299 -20.418   7.926  0.00  0.00    +0.244 C 
BRANCH  14  15
ATOM     15  O   LIG    1       27.550 -21.087   8.187  0.00  0.00    -0.450 OA
BRANCH  15  16
ATOM     16  C   LIG    1       28.684 -20.428   7.847  0.00  0.00    +0.398 C 
ATOM     17  O   LIG    1       29.125 -19.417   8.351  0.00  0.00    -0.227 OA
ATOM     18  N   LIG    1       29.286 -21.051   6.806  0.00  0.00    -0.295 N 
ATOM     19  H   LIG    1       30.086 -20.605   6.382  0.00  0.00    +0.148 HD
ATOM     20  H   LIG    1       28.851 -21.849   6.373  0.00  0.00    +0.148 HD
ENDBRANCH  15  16
ENDBRANCH  14  15
ENDBRANCH   1  14
TORSDOF 8
ENDMDL
MODEL 9
REMARK VINA RESULT:      -6.0      1.891      4.349
REMARK  Name = *****
REMARK                            x       y       z     vdW  Elec       q    Type
REMARK                         _______ _______ _______ _____ _____    ______ ____
ROOT
ATOM      1  C   LIG    1       24.803 -20.939   5.028  0.00  0.00    +0.039 C 
ATOM      2  C   LIG    1       25.027 -20.151   3.704  0.00  0.00    +0.018 C 
ENDROOT
BRANCH   1   3
ATOM      3  C   LIG    1       23.489 -20.406   5.749  0.00  0.00    -0.002 C 
ATOM      4  C   LIG    1       22.668 -19.364   4.969  0.00  0.00    +0.008 C 
BRANCH   3   6
ATOM      5  C   LIG    1       22.845 -22.135   7.623  0.00  0.00    +0.004 C 
ATOM      6  C   LIG    1       22.498 -21.465   6.306  0.00  0.00    +0.000 C 
ENDBRANCH   3   6
ENDBRANCH   1   3
BRANCH   1   7
ATOM      7  C   LIG    1       24.781 -22.445   4.639  0.00  0.00    +0.244 C 
BRANCH   7   8
ATOM      8  O   LIG    1       25.346 -23.252   5.683  0.00  0.00    -0.450 OA
BRANCH   8   9
ATOM      9  C   LIG    1       25.185 -24.588   5.583  0.00  0.00    +0.398 C 
ATOM     10  O   LIG    1       26.062 -25.423   5.448  0.00  0.00    -0.227 OA
ATOM     11  N   LIG    1       23.871 -24.891   5.631  0.00  0.00    -0.295 N 
ATOM     12  H   LIG    1       23.601 -25.862   5.606  0.00  0.00    +0.148 HD
ATOM     13  H   LIG    1       23.194 -24.170   5.827  0.00  0.00    +0.148 HD
ENDBRANCH   8   9
ENDBRANCH   7   8
ENDBRANCH   1   7
BRANCH   1  14
ATOM     14  C   LIG    1       26.057 -20.715   5.930  0.00  0.00    +0.244 C 
BRANCH  14  15
ATOM     15  O   LIG    1       25.699 -20.195   7.228  0.00  0.00    -0.450 OA
BRANCH  15  16
ATOM     16  C   LIG    1       26.157 -20.871   8.310  0.00  0.00    +0.398 C 
ATOM     17  O   LIG    1       25.940 -20.622   9.477  0.00  0.00    -0.227 OA
ATOM     18  N   LIG    1       26.944 -21.899   7.913  0.00  0.00    -0.295 N 
ATOM     19  H   LIG    1       27.437 -22.422   8.621  0.00  0.00    +0.148 HD
ATOM     20  H   LIG    1       27.152 -22.029   6.937  0.00  0.00    +0.148 HD
ENDBRANCH  15  16
ENDBRANCH  14  15
ENDBRANCH   1  14
TORSDOF 8
ENDMDL
