MODEL 1
REMARK VINA RESULT:      27.6      0.000      0.000
REMARK  Name = *****
REMARK                            x       y       z     vdW  Elec       q    Type
REMARK                         _______ _______ _______ _____ _____    ______ ____
ROOT
ATOM      1  C   LIG    1       25.549 -13.847   5.930  0.00  0.00    +0.025 C 
ATOM      2  C   LIG    1       24.461 -14.288   4.938  0.00  0.00    +0.042 C 
ATOM      3  C   LIG    1       24.646 -13.541   3.599  0.00  0.00    +0.201 C 
ATOM      4  N   LIG    1       25.418 -14.395   2.716  0.00  0.00    -0.271 N 
ATOM      5  C   LIG    1       25.237 -15.845   2.854  0.00  0.00    +0.165 C 
ATOM      6  C   LIG    1       26.742 -15.989   2.543  0.00  0.00    +0.190 C 
ATOM      7  C   LIG    1       26.778 -14.454   2.764  0.00  0.00    +0.240 C 
ATOM      8  O   LIG    1       27.583 -13.597   3.041  0.00  0.00    -0.273 OA
ATOM      9  S   LIG    1       24.702 -16.098   4.596  0.00  0.00    -0.127 S 
ATOM     10  C   LIG    1       23.095 -14.114   5.610  0.00  0.00    +0.025 C 
ENDROOT
BRANCH   6  11
ATOM     11  N   LIG    1       27.542 -16.829   3.464  0.00  0.00    -0.300 N 
ATOM     12  H   LIG    1       28.208 -17.513   3.111  0.00  0.00    +0.150 HD
ATOM     13  C   LIG    1       27.273 -16.827   4.820  0.00  0.00    +0.235 C 
ATOM     14  O   LIG    1       26.400 -16.104   5.295  0.00  0.00    -0.274 OA
BRANCH  13  15
ATOM     15  C   LIG    1       28.171 -17.777   5.650  0.00  0.00    +0.168 C 
BRANCH  15  16
ATOM     16  C   LIG    1       27.513 -19.111   5.961  0.00  0.00    -0.022 A 
ATOM     17  C   LIG    1       26.193 -19.395   5.570  0.00  0.00    +0.006 A 
ATOM     18  C   LIG    1       25.595 -20.614   5.898  0.00  0.00    +0.000 A 
ATOM     19  C   LIG    1       26.308 -21.572   6.614  0.00  0.00    +0.000 A 
ATOM     20  C   LIG    1       27.621 -21.314   6.998  0.00  0.00    +0.000 A 
ATOM     21  C   LIG    1       28.220 -20.093   6.676  0.00  0.00    +0.006 A 
ENDBRANCH  15  16
BRANCH  15  22
ATOM     22  N   LIG    1       29.462 -17.952   4.947  0.00  0.00    -0.316 NA
ATOM     23  H   LIG    1       29.469 -17.313   4.151  0.00  0.00    +0.119 HD
ATOM     24  H   LIG    1       30.198 -17.611   5.567  0.00  0.00    +0.119 HD
ENDBRANCH  15  22
ENDBRANCH  13  15
ENDBRANCH   6  11
BRANCH   3  25
ATOM     25  C   LIG    1       23.377 -13.248   2.812  0.00  0.00    +0.332 C 
ATOM     26  O   LIG    1       23.272 -12.402   1.932  0.00  0.00    -0.249 OA
BRANCH  25  27
ATOM     27  O   LIG    1       22.365 -14.033   3.256  0.00  0.00    -0.426 OA
BRANCH  27  28
ATOM     28  C   LIG    1       22.221 -15.261   2.541  0.00  0.00    +0.473 C 
BRANCH  28  29
ATOM     29  O   LIG    1       21.702 -16.270   3.405  0.00  0.00    -0.426 OA
BRANCH  29  30
ATOM     30  C   LIG    1       21.859 -17.527   2.924  0.00  0.00    +0.333 C 
ATOM     31  O   LIG    1       21.170 -18.035   2.048  0.00  0.00    -0.249 OA
BRANCH  30  32
ATOM     32  C   LIG    1       22.950 -18.269   3.685  0.00  0.00    +0.213 C 
ATOM     33  C   LIG    1       22.436 -18.841   5.020  0.00  0.00    +0.113 C 
ATOM     34  C   LIG    1       23.602 -19.119   5.980  0.00  0.00    +0.037 C 
ATOM     35  C   LIG    1       21.433 -17.959   5.781  0.00  0.00    +0.037 C 
ATOM     36  S   LIG    1       21.627 -20.396   4.496  0.00  0.00    -0.004 S 
ATOM     37  O   LIG    1       20.214 -20.124   4.305  0.00  0.00    -0.172 OA
ATOM     38  O   LIG    1       22.041 -21.462   5.388  0.00  0.00    -0.172 OA
ATOM     39  C   LIG    1       22.414 -20.601   2.883  0.00  0.00    +0.228 C 
ATOM     40  C   LIG    1       23.680 -21.453   2.766  0.00  0.00    +0.142 C 
ATOM     41  C   LIG    1       24.436 -20.130   2.947  0.00  0.00    +0.221 C 
ATOM     42  O   LIG    1       25.554 -19.781   3.277  0.00  0.00    -0.275 OA
ATOM     43  N   LIG    1       23.296 -19.406   2.826  0.00  0.00    -0.263 N 
ENDBRANCH  30  32
ENDBRANCH  29  30
ENDBRANCH  28  29
ENDBRANCH  27  28
ENDBRANCH  25  27
ENDBRANCH   3  25
TORSDOF 10
ENDMDL
MODEL 2
REMARK VINA RESULT:      28.8      2.204      5.406
REMARK  Name = *****
REMARK                            x       y       z     vdW  Elec       q    Type
REMARK                         _______ _______ _______ _____ _____    ______ ____
ROOT
ATOM      1  C   LIG    1       21.764 -14.797   6.127  0.00  0.00    +0.025 C 
ATOM      2  C   LIG    1       22.317 -16.172   5.722  0.00  0.00    +0.042 C 
ATOM      3  C   LIG    1       21.612 -16.658   4.436  0.00  0.00    +0.201 C 
ATOM      4  N   LIG    1       22.445 -16.290   3.307  0.00  0.00    -0.271 N 
ATOM      5  C   LIG    1       23.897 -16.277   3.517  0.00  0.00    +0.165 C 
ATOM      6  C   LIG    1       23.949 -15.058   2.572  0.00  0.00    +0.190 C 
ATOM      7  C   LIG    1       22.408 -15.049   2.747  0.00  0.00    +0.240 C 
ATOM      8  O   LIG    1       21.488 -14.275   2.634  0.00  0.00    -0.273 OA
ATOM      9  S   LIG    1       24.118 -15.966   5.317  0.00  0.00    -0.127 S 
ATOM     10  C   LIG    1       22.211 -17.110   6.929  0.00  0.00    +0.025 C 
ENDROOT
BRANCH   6  11
ATOM     11  N   LIG    1       24.696 -13.870   3.047  0.00  0.00    -0.300 N 
ATOM     12  H   LIG    1       24.244 -13.152   3.610  0.00  0.00    +0.150 HD
ATOM     13  C   LIG    1       25.976 -13.623   2.588  0.00  0.00    +0.235 C 
ATOM     14  O   LIG    1       26.536 -14.397   1.815  0.00  0.00    -0.274 OA
BRANCH  13  15
ATOM     15  C   LIG    1       26.617 -12.330   3.150  0.00  0.00    +0.168 C 
BRANCH  15  16
ATOM     16  C   LIG    1       27.368 -12.545   4.453  0.00  0.00    -0.022 A 
ATOM     17  C   LIG    1       28.618 -11.949   4.694  0.00  0.00    +0.006 A 
ATOM     18  C   LIG    1       29.309 -12.189   5.884  0.00  0.00    +0.000 A 
ATOM     19  C   LIG    1       28.758 -13.020   6.856  0.00  0.00    +0.000 A 
ATOM     20  C   LIG    1       27.514 -13.608   6.641  0.00  0.00    +0.000 A 
ATOM     21  C   LIG    1       26.823 -13.374   5.449  0.00  0.00    +0.006 A 
ENDBRANCH  15  16
BRANCH  15  22
ATOM     22  N   LIG    1       27.483 -11.733   2.109  0.00  0.00    -0.316 NA
ATOM     23  H   LIG    1       28.157 -12.444   1.822  0.00  0.00    +0.119 HD
ATOM     24  H   LIG    1       26.904 -11.569   1.283  0.00  0.00    +0.119 HD
ENDBRANCH  15  22
ENDBRANCH  13  15
ENDBRANCH   6  11
BRANCH   3  25
ATOM     25  C   LIG    1       21.438 -18.163   4.292  0.00  0.00    +0.332 C 
ATOM     26  O   LIG    1       20.542 -18.713   3.663  0.00  0.00    -0.249 OA
BRANCH  25  27
ATOM     27  O   LIG    1       22.397 -18.810   5.000  0.00  0.00    -0.426 OA
BRANCH  27  28
ATOM     28  C   LIG    1       22.072 -20.163   5.320  0.00  0.00    +0.473 C 
BRANCH  28  29
ATOM     29  O   LIG    1       23.210 -20.999   5.115  0.00  0.00    -0.426 OA
BRANCH  29  30
ATOM     30  C   LIG    1       24.241 -20.721   5.948  0.00  0.00    +0.333 C 
ATOM     31  O   LIG    1       24.131 -20.223   7.062  0.00  0.00    -0.249 OA
BRANCH  30  32
ATOM     32  C   LIG    1       25.577 -21.021   5.282  0.00  0.00    +0.213 C 
ATOM     33  C   LIG    1       25.570 -20.659   3.784  0.00  0.00    +0.113 C 
ATOM     34  C   LIG    1       26.680 -21.410   3.034  0.00  0.00    +0.037 C 
ATOM     35  C   LIG    1       24.257 -20.943   3.037  0.00  0.00    +0.037 C 
ATOM     36  S   LIG    1       25.894 -18.859   3.813  0.00  0.00    -0.004 S 
ATOM     37  O   LIG    1       24.616 -18.172   3.776  0.00  0.00    -0.172 OA
ATOM     38  O   LIG    1       26.907 -18.551   2.822  0.00  0.00    -0.172 OA
ATOM     39  C   LIG    1       26.592 -18.719   5.473  0.00  0.00    +0.228 C 
ATOM     40  C   LIG    1       28.110 -18.795   5.660  0.00  0.00    +0.142 C 
ATOM     41  C   LIG    1       27.879 -20.293   5.903  0.00  0.00    +0.221 C 
ATOM     42  O   LIG    1       28.543 -21.312   5.876  0.00  0.00    -0.275 OA
ATOM     43  N   LIG    1       26.534 -20.129   5.942  0.00  0.00    -0.263 N 
ENDBRANCH  30  32
ENDBRANCH  29  30
ENDBRANCH  28  29
ENDBRANCH  27  28
ENDBRANCH  25  27
ENDBRANCH   3  25
TORSDOF 10
ENDMDL
MODEL 3
REMARK VINA RESULT:      30.1      2.249      5.774
REMARK  Name = *****
REMARK                            x       y       z     vdW  Elec       q    Type
REMARK                         _______ _______ _______ _____ _____    ______ ____
ROOT
ATOM      1  C   LIG    1       26.754 -16.128   6.659  0.00  0.00    +0.025 C 
ATOM      2  C   LIG    1       27.915 -16.872   5.980  0.00  0.00    +0.042 C 
ATOM      3  C   LIG    1       27.361 -18.039   5.134  0.00  0.00    +0.201 C 
ATOM      4  N   LIG    1       27.218 -17.570   3.769  0.00  0.00    -0.271 N 
ATOM      5  C   LIG    1       28.184 -16.572   3.296  0.00  0.00    +0.165 C 
ATOM      6  C   LIG    1       27.027 -15.942   2.491  0.00  0.00    +0.190 C 
ATOM      7  C   LIG    1       26.129 -16.871   3.348  0.00  0.00    +0.240 C 
ATOM      8  O   LIG    1       24.977 -16.940   3.704  0.00  0.00    -0.273 OA
ATOM      9  S   LIG    1       28.743 -15.689   4.810  0.00  0.00    -0.127 S 
ATOM     10  C   LIG    1       28.935 -17.260   7.057  0.00  0.00    +0.025 C 
ENDROOT
BRANCH   6  11
ATOM     11  N   LIG    1       26.828 -14.481   2.630  0.00  0.00    -0.300 N 
ATOM     12  H   LIG    1       25.954 -14.038   2.355  0.00  0.00    +0.150 HD
ATOM     13  C   LIG    1       27.887 -13.663   2.975  0.00  0.00    +0.235 C 
ATOM     14  O   LIG    1       29.000 -14.127   3.211  0.00  0.00    -0.274 OA
BRANCH  13  15
ATOM     15  C   LIG    1       27.532 -12.158   3.053  0.00  0.00    +0.168 C 
BRANCH  15  16
ATOM     16  C   LIG    1       26.083 -11.898   3.431  0.00  0.00    -0.022 A 
ATOM     17  C   LIG    1       25.679 -11.775   4.772  0.00  0.00    +0.006 A 
ATOM     18  C   LIG    1       24.336 -11.572   5.099  0.00  0.00    +0.000 A 
ATOM     19  C   LIG    1       23.378 -11.481   4.092  0.00  0.00    +0.000 A 
ATOM     20  C   LIG    1       23.762 -11.586   2.758  0.00  0.00    +0.000 A 
ATOM     21  C   LIG    1       25.104 -11.794   2.428  0.00  0.00    +0.006 A 
ENDBRANCH  15  16
BRANCH  15  22
ATOM     22  N   LIG    1       28.471 -11.492   3.984  0.00  0.00    -0.316 NA
ATOM     23  H   LIG    1       28.053 -11.518   4.916  0.00  0.00    +0.119 HD
ATOM     24  H   LIG    1       29.305 -12.078   4.053  0.00  0.00    +0.119 HD
ENDBRANCH  15  22
ENDBRANCH  13  15
ENDBRANCH   6  11
BRANCH   3  25
ATOM     25  C   LIG    1       28.255 -19.265   5.012  0.00  0.00    +0.332 C 
ATOM     26  O   LIG    1       29.144 -19.410   4.181  0.00  0.00    -0.249 OA
BRANCH  25  27
ATOM     27  O   LIG    1       27.896 -20.193   5.932  0.00  0.00    -0.426 OA
BRANCH  27  28
ATOM     28  C   LIG    1       27.191 -21.311   5.388  0.00  0.00    +0.473 C 
BRANCH  28  29
ATOM     29  O   LIG    1       25.990 -21.533   6.124  0.00  0.00    -0.426 OA
BRANCH  29  30
ATOM     30  C   LIG    1       25.051 -20.576   5.928  0.00  0.00    +0.333 C 
ATOM     31  O   LIG    1       24.973 -19.529   6.558  0.00  0.00    -0.249 OA
BRANCH  30  32
ATOM     32  C   LIG    1       24.038 -21.013   4.879  0.00  0.00    +0.213 C 
ATOM     33  C   LIG    1       22.592 -20.689   5.302  0.00  0.00    +0.113 C 
ATOM     34  C   LIG    1       21.588 -21.557   4.528  0.00  0.00    +0.037 C 
ATOM     35  C   LIG    1       22.279 -20.871   6.796  0.00  0.00    +0.037 C 
ATOM     36  S   LIG    1       22.433 -18.926   4.842  0.00  0.00    -0.004 S 
ATOM     37  O   LIG    1       22.738 -18.127   6.014  0.00  0.00    -0.172 OA
ATOM     38  O   LIG    1       21.174 -18.736   4.148  0.00  0.00    -0.172 OA
ATOM     39  C   LIG    1       23.806 -18.809   3.673  0.00  0.00    +0.228 C 
ATOM     40  C   LIG    1       23.542 -19.017   2.180  0.00  0.00    +0.142 C 
ATOM     41  C   LIG    1       23.918 -20.481   2.446  0.00  0.00    +0.221 C 
ATOM     42  O   LIG    1       23.748 -21.557   1.903  0.00  0.00    -0.275 OA
ATOM     43  N   LIG    1       24.342 -20.195   3.701  0.00  0.00    -0.263 N 
ENDBRANCH  30  32
ENDBRANCH  29  30
ENDBRANCH  28  29
ENDBRANCH  27  28
ENDBRANCH  25  27
ENDBRANCH   3  25
TORSDOF 10
ENDMDL
