MODEL 1
REMARK VINA RESULT:      -4.1      0.000      0.000
REMARK  Name = *****
REMARK                            x       y       z     vdW  Elec       q    Type
REMARK                         _______ _______ _______ _____ _____    ______ ____
ROOT
ATOM      1  N   LIG    1       26.508 -21.495   5.880  0.00  0.00    -0.078 NA
ATOM      2  C   LIG    1       25.330 -21.572   5.338  0.00  0.00    +0.163 C 
ENDROOT
BRANCH   2   3
ATOM      3  C   LIG    1       24.413 -20.456   5.058  0.00  0.00    +0.033 A 
ATOM      4  C   LIG    1       24.677 -19.549   4.024  0.00  0.00    +0.051 A 
ATOM      5 CL   LIG    1       26.043 -19.694   2.975  0.00  0.00    -0.083 Cl
ATOM      6  C   LIG    1       23.781 -18.505   3.768  0.00  0.00    +0.021 A 
ATOM      7  C   LIG    1       22.618 -18.372   4.527  0.00  0.00    +0.003 A 
ATOM      8  C   LIG    1       22.343 -19.291   5.540  0.00  0.00    +0.021 A 
ATOM      9  C   LIG    1       23.236 -20.335   5.804  0.00  0.00    +0.051 A 
ATOM     10 CL   LIG    1       22.821 -21.446   7.062  0.00  0.00    -0.083 Cl
ENDBRANCH   2   3
BRANCH   1  12
ATOM     11  C   LIG    1       28.136 -20.074   6.452  0.00  0.00    +0.404 C 
ATOM     12  N   LIG    1       26.862 -20.195   6.265  0.00  0.00    +0.044 NA
BRANCH  11  13
ATOM     13  N   LIG    1       28.723 -18.920   6.846  0.00  0.00    -0.287 N 
ATOM     14  H   LIG    1       29.247 -18.504   6.084  0.00  0.00    +0.255 HD
ATOM     15  H   LIG    1       29.304 -19.056   7.665  0.00  0.00    +0.255 HD
ENDBRANCH  11  13
BRANCH  11  16
ATOM     16  N   LIG    1       29.058 -21.051   6.277  0.00  0.00    -0.287 N 
ATOM     17  H   LIG    1       28.608 -21.780   5.723  0.00  0.00    +0.255 HD
ATOM     18  H   LIG    1       29.376 -21.427   7.161  0.00  0.00    +0.255 HD
ENDBRANCH  11  16
ENDBRANCH   1  12
TORSDOF 4
ENDMDL
MODEL 2
REMARK VINA RESULT:      -3.6      5.718      6.910
REMARK  Name = *****
REMARK                            x       y       z     vdW  Elec       q    Type
REMARK                         _______ _______ _______ _____ _____    ______ ____
ROOT
ATOM      1  N   LIG    1       28.000 -13.768   2.754  0.00  0.00    -0.078 NA
ATOM      2  C   LIG    1       26.873 -14.187   2.261  0.00  0.00    +0.163 C 
ENDROOT
BRANCH   2   3
ATOM      3  C   LIG    1       25.606 -14.368   2.986  0.00  0.00    +0.033 A 
ATOM      4  C   LIG    1       24.681 -13.322   3.091  0.00  0.00    +0.051 A 
ATOM      5 CL   LIG    1       24.920 -11.781   2.345  0.00  0.00    -0.083 Cl
ATOM      6  C   LIG    1       23.476 -13.524   3.772  0.00  0.00    +0.021 A 
ATOM      7  C   LIG    1       23.184 -14.767   4.334  0.00  0.00    +0.003 A 
ATOM      8  C   LIG    1       24.094 -15.816   4.207  0.00  0.00    +0.021 A 
ATOM      9  C   LIG    1       25.302 -15.621   3.530  0.00  0.00    +0.051 A 
ATOM     10 CL   LIG    1       26.374 -16.970   3.397  0.00  0.00    -0.083 Cl
ENDBRANCH   2   3
BRANCH   1  12
ATOM     11  C   LIG    1       28.721 -12.553   4.486  0.00  0.00    +0.404 C 
ATOM     12  N   LIG    1       27.952 -13.531   4.134  0.00  0.00    +0.044 NA
BRANCH  11  13
ATOM     13  N   LIG    1       28.863 -12.142   5.768  0.00  0.00    -0.287 N 
ATOM     14  H   LIG    1       29.827 -12.226   6.069  0.00  0.00    +0.255 HD
ATOM     15  H   LIG    1       28.235 -12.637   6.390  0.00  0.00    +0.255 HD
ENDBRANCH  11  13
BRANCH  11  16
ATOM     16  N   LIG    1       29.475 -11.799   3.650  0.00  0.00    -0.287 N 
ATOM     17  H   LIG    1       29.788 -12.417   2.901  0.00  0.00    +0.255 HD
ATOM     18  H   LIG    1       30.270 -11.394   4.128  0.00  0.00    +0.255 HD
ENDBRANCH  11  16
ENDBRANCH   1  12
TORSDOF 4
ENDMDL
MODEL 3
REMARK VINA RESULT:      -3.6      0.282      2.454
REMARK  Name = *****
REMARK                            x       y       z     vdW  Elec       q    Type
REMARK                         _______ _______ _______ _____ _____    ______ ____
ROOT
ATOM      1  N   LIG    1       26.504 -21.469   5.417  0.00  0.00    -0.078 NA
ATOM      2  C   LIG    1       25.308 -21.555   4.916  0.00  0.00    +0.163 C 
ENDROOT
BRANCH   2   3
ATOM      3  C   LIG    1       24.323 -20.469   4.794  0.00  0.00    +0.033 A 
ATOM      4  C   LIG    1       23.265 -20.351   5.704  0.00  0.00    +0.051 A 
ATOM      5 CL   LIG    1       23.065 -21.414   7.052  0.00  0.00    -0.083 Cl
ATOM      6  C   LIG    1       22.350 -19.301   5.575  0.00  0.00    +0.021 A 
ATOM      7  C   LIG    1       22.494 -18.361   4.555  0.00  0.00    +0.003 A 
ATOM      8  C   LIG    1       23.562 -18.465   3.664  0.00  0.00    +0.021 A 
ATOM      9  C   LIG    1       24.479 -19.514   3.784  0.00  0.00    +0.051 A 
ATOM     10 CL   LIG    1       25.788 -19.568   2.656  0.00  0.00    -0.083 Cl
ENDBRANCH   2   3
BRANCH   1  12
ATOM     11  C   LIG    1       28.021 -20.128   6.365  0.00  0.00    +0.404 C 
ATOM     12  N   LIG    1       26.806 -20.199   5.926  0.00  0.00    +0.044 NA
BRANCH  11  13
ATOM     13  N   LIG    1       28.546 -19.012   6.921  0.00  0.00    -0.287 N 
ATOM     14  H   LIG    1       29.548 -19.109   7.045  0.00  0.00    +0.255 HD
ATOM     15  H   LIG    1       28.085 -18.775   7.791  0.00  0.00    +0.255 HD
ENDBRANCH  11  13
BRANCH  11  16
ATOM     16  N   LIG    1       28.935 -21.127   6.326  0.00  0.00    -0.287 N 
ATOM     17  H   LIG    1       29.816 -20.705   6.028  0.00  0.00    +0.255 HD
ATOM     18  H   LIG    1       28.661 -21.859   5.683  0.00  0.00    +0.255 HD
ENDBRANCH  11  16
ENDBRANCH   1  12
TORSDOF 4
ENDMDL
MODEL 4
REMARK VINA RESULT:      -3.5      1.653      2.970
REMARK  Name = *****
REMARK                            x       y       z     vdW  Elec       q    Type
REMARK                         _______ _______ _______ _____ _____    ______ ____
ROOT
ATOM      1  N   LIG    1       25.084 -21.508   4.242  0.00  0.00    -0.078 NA
ATOM      2  C   LIG    1       24.324 -20.773   3.488  0.00  0.00    +0.163 C 
ENDROOT
BRANCH   2   3
ATOM      3  C   LIG    1       23.620 -19.541   3.877  0.00  0.00    +0.033 A 
ATOM      4  C   LIG    1       22.346 -19.592   4.455  0.00  0.00    +0.051 A 
ATOM      5 CL   LIG    1       21.533 -21.077   4.806  0.00  0.00    -0.083 Cl
ATOM      6  C   LIG    1       21.704 -18.407   4.831  0.00  0.00    +0.021 A 
ATOM      7  C   LIG    1       22.333 -17.176   4.647  0.00  0.00    +0.003 A 
ATOM      8  C   LIG    1       23.613 -17.127   4.095  0.00  0.00    +0.021 A 
ATOM      9  C   LIG    1       24.260 -18.307   3.713  0.00  0.00    +0.051 A 
ATOM     10 CL   LIG    1       25.851 -18.172   3.052  0.00  0.00    -0.083 Cl
ENDBRANCH   2   3
BRANCH   1  12
ATOM     11  C   LIG    1       26.316 -20.548   5.843  0.00  0.00    +0.404 C 
ATOM     12  N   LIG    1       25.159 -21.057   5.567  0.00  0.00    +0.044 NA
BRANCH  11  13
ATOM     13  N   LIG    1       26.642 -20.060   7.062  0.00  0.00    -0.287 N 
ATOM     14  H   LIG    1       25.923 -19.431   7.403  0.00  0.00    +0.255 HD
ATOM     15  H   LIG    1       27.551 -19.615   7.055  0.00  0.00    +0.255 HD
ENDBRANCH  11  13
BRANCH  11  16
ATOM     16  N   LIG    1       27.349 -20.417   4.976  0.00  0.00    -0.287 N 
ATOM     17  H   LIG    1       28.026 -21.141   5.217  0.00  0.00    +0.255 HD
ATOM     18  H   LIG    1       27.776 -19.502   5.041  0.00  0.00    +0.255 HD
ENDBRANCH  11  16
ENDBRANCH   1  12
TORSDOF 4
ENDMDL
MODEL 5
REMARK VINA RESULT:      -3.5      1.725      2.020
REMARK  Name = *****
REMARK                            x       y       z     vdW  Elec       q    Type
REMARK                         _______ _______ _______ _____ _____    ______ ____
ROOT
ATOM      1  N   LIG    1       24.976 -21.415   4.220  0.00  0.00    -0.078 NA
ATOM      2  C   LIG    1       24.255 -20.620   3.487  0.00  0.00    +0.163 C 
ENDROOT
BRANCH   2   3
ATOM      3  C   LIG    1       23.623 -19.361   3.908  0.00  0.00    +0.033 A 
ATOM      4  C   LIG    1       24.282 -18.136   3.749  0.00  0.00    +0.051 A 
ATOM      5 CL   LIG    1       25.837 -17.997   3.006  0.00  0.00    -0.083 Cl
ATOM      6  C   LIG    1       23.652 -16.950   4.144  0.00  0.00    +0.021 A 
ATOM      7  C   LIG    1       22.365 -16.981   4.681  0.00  0.00    +0.003 A 
ATOM      8  C   LIG    1       21.699 -18.199   4.816  0.00  0.00    +0.021 A 
ATOM      9  C   LIG    1       22.323 -19.388   4.427  0.00  0.00    +0.051 A 
ATOM     10 CL   LIG    1       21.431 -20.858   4.606  0.00  0.00    -0.083 Cl
ENDBRANCH   2   3
BRANCH   1  12
ATOM     11  C   LIG    1       26.258 -20.549   5.834  0.00  0.00    +0.404 C 
ATOM     12  N   LIG    1       25.079 -21.001   5.556  0.00  0.00    +0.044 NA
BRANCH  11  13
ATOM     13  N   LIG    1       26.614 -20.106   7.062  0.00  0.00    -0.287 N 
ATOM     14  H   LIG    1       27.563 -19.749   7.056  0.00  0.00    +0.255 HD
ATOM     15  H   LIG    1       26.491 -20.821   7.768  0.00  0.00    +0.255 HD
ENDBRANCH  11  13
BRANCH  11  16
ATOM     16  N   LIG    1       27.290 -20.440   4.962  0.00  0.00    -0.287 N 
ATOM     17  H   LIG    1       27.862 -19.658   5.283  0.00  0.00    +0.255 HD
ATOM     18  H   LIG    1       26.964 -20.274   4.018  0.00  0.00    +0.255 HD
ENDBRANCH  11  16
ENDBRANCH   1  12
TORSDOF 4
ENDMDL
MODEL 6
REMARK VINA RESULT:      -3.4      5.715      7.027
REMARK  Name = *****
REMARK                            x       y       z     vdW  Elec       q    Type
REMARK                         _______ _______ _______ _____ _____    ______ ____
ROOT
ATOM      1  N   LIG    1       27.950 -13.703   2.713  0.00  0.00    -0.078 NA
ATOM      2  C   LIG    1       26.843 -14.167   2.217  0.00  0.00    +0.163 C 
ENDROOT
BRANCH   2   3
ATOM      3  C   LIG    1       25.586 -14.412   2.940  0.00  0.00    +0.033 A 
ATOM      4  C   LIG    1       25.306 -15.668   3.493  0.00  0.00    +0.051 A 
ATOM      5 CL   LIG    1       26.416 -16.992   3.423  0.00  0.00    -0.083 Cl
ATOM      6  C   LIG    1       24.110 -15.871   4.189  0.00  0.00    +0.021 A 
ATOM      7  C   LIG    1       23.202 -14.825   4.350  0.00  0.00    +0.003 A 
ATOM      8  C   LIG    1       23.492 -13.568   3.822  0.00  0.00    +0.021 A 
ATOM      9  C   LIG    1       24.684 -13.358   3.121  0.00  0.00    +0.051 A 
ATOM     10 CL   LIG    1       24.986 -11.769   2.509  0.00  0.00    -0.083 Cl
ENDBRANCH   2   3
BRANCH   1  12
ATOM     11  C   LIG    1       28.688 -12.535   4.471  0.00  0.00    +0.404 C 
ATOM     12  N   LIG    1       27.893 -13.484   4.097  0.00  0.00    +0.044 NA
BRANCH  11  13
ATOM     13  N   LIG    1       28.827 -12.147   5.760  0.00  0.00    -0.287 N 
ATOM     14  H   LIG    1       27.968 -11.735   6.107  0.00  0.00    +0.255 HD
ATOM     15  H   LIG    1       29.613 -11.520   5.879  0.00  0.00    +0.255 HD
ENDBRANCH  11  13
BRANCH  11  16
ATOM     16  N   LIG    1       29.475 -11.793   3.654  0.00  0.00    -0.287 N 
ATOM     17  H   LIG    1       29.452 -10.839   4.015  0.00  0.00    +0.255 HD
ATOM     18  H   LIG    1       29.145 -11.815   2.698  0.00  0.00    +0.255 HD
ENDBRANCH  11  16
ENDBRANCH   1  12
TORSDOF 4
ENDMDL
MODEL 7
REMARK VINA RESULT:      -3.3      3.306      4.216
REMARK  Name = *****
REMARK                            x       y       z     vdW  Elec       q    Type
REMARK                         _______ _______ _______ _____ _____    ______ ____
ROOT
ATOM      1  N   LIG    1       25.786 -17.768   3.030  0.00  0.00    -0.078 NA
ATOM      2  C   LIG    1       25.726 -19.003   3.430  0.00  0.00    +0.163 C 
ENDROOT
BRANCH   2   3
ATOM      3  C   LIG    1       24.894 -19.538   4.519  0.00  0.00    +0.033 A 
ATOM      4  C   LIG    1       23.497 -19.510   4.438  0.00  0.00    +0.051 A 
ATOM      5 CL   LIG    1       22.649 -18.910   3.056  0.00  0.00    -0.083 Cl
ATOM      6  C   LIG    1       22.728 -20.039   5.481  0.00  0.00    +0.021 A 
ATOM      7  C   LIG    1       23.347 -20.609   6.593  0.00  0.00    +0.003 A 
ATOM      8  C   LIG    1       24.739 -20.660   6.662  0.00  0.00    +0.021 A 
ATOM      9  C   LIG    1       25.514 -20.129   5.625  0.00  0.00    +0.051 A 
ATOM     10 CL   LIG    1       27.233 -20.243   5.770  0.00  0.00    -0.083 Cl
ENDBRANCH   2   3
BRANCH   1  12
ATOM     11  C   LIG    1       25.378 -15.666   3.673  0.00  0.00    +0.404 C 
ATOM     12  N   LIG    1       24.994 -16.896   3.789  0.00  0.00    +0.044 NA
BRANCH  11  13
ATOM     13  N   LIG    1       24.785 -14.638   4.322  0.00  0.00    -0.287 N 
ATOM     14  H   LIG    1       25.353 -14.329   5.103  0.00  0.00    +0.255 HD
ATOM     15  H   LIG    1       23.846 -14.874   4.617  0.00  0.00    +0.255 HD
ENDBRANCH  11  13
BRANCH  11  16
ATOM     16  N   LIG    1       26.397 -15.226   2.896  0.00  0.00    -0.287 N 
ATOM     17  H   LIG    1       25.987 -14.590   2.210  0.00  0.00    +0.255 HD
ATOM     18  H   LIG    1       26.867 -15.990   2.428  0.00  0.00    +0.255 HD
ENDBRANCH  11  16
ENDBRANCH   1  12
TORSDOF 4
ENDMDL
MODEL 8
REMARK VINA RESULT:      -3.1      3.278      4.153
REMARK  Name = *****
REMARK                            x       y       z     vdW  Elec       q    Type
REMARK                         _______ _______ _______ _____ _____    ______ ____
ROOT
ATOM      1  N   LIG    1       25.758 -17.871   3.010  0.00  0.00    -0.078 NA
ATOM      2  C   LIG    1       25.717 -19.106   3.413  0.00  0.00    +0.163 C 
ENDROOT
BRANCH   2   3
ATOM      3  C   LIG    1       24.921 -19.645   4.526  0.00  0.00    +0.033 A 
ATOM      4  C   LIG    1       25.542 -20.174   5.664  0.00  0.00    +0.051 A 
ATOM      5 CL   LIG    1       27.257 -20.186   5.878  0.00  0.00    -0.083 Cl
ATOM      6  C   LIG    1       24.762 -20.667   6.716  0.00  0.00    +0.021 A 
ATOM      7  C   LIG    1       23.370 -20.620   6.644  0.00  0.00    +0.003 A 
ATOM      8  C   LIG    1       22.753 -20.070   5.521  0.00  0.00    +0.021 A 
ATOM      9  C   LIG    1       23.525 -19.578   4.464  0.00  0.00    +0.051 A 
ATOM     10 CL   LIG    1       22.693 -18.894   3.112  0.00  0.00    -0.083 Cl
ENDBRANCH   2   3
BRANCH   1  12
ATOM     11  C   LIG    1       25.361 -15.772   3.670  0.00  0.00    +0.404 C 
ATOM     12  N   LIG    1       24.983 -17.004   3.792  0.00  0.00    +0.044 NA
BRANCH  11  13
ATOM     13  N   LIG    1       24.781 -14.748   4.337  0.00  0.00    -0.287 N 
ATOM     14  H   LIG    1       25.480 -14.092   4.669  0.00  0.00    +0.255 HD
ATOM     15  H   LIG    1       24.194 -15.078   5.093  0.00  0.00    +0.255 HD
ENDBRANCH  11  13
BRANCH  11  16
ATOM     16  N   LIG    1       26.358 -15.326   2.869  0.00  0.00    -0.287 N 
ATOM     17  H   LIG    1       26.413 -15.974   2.083  0.00  0.00    +0.255 HD
ATOM     18  H   LIG    1       27.243 -15.293   3.359  0.00  0.00    +0.255 HD
ENDBRANCH  11  16
ENDBRANCH   1  12
TORSDOF 4
ENDMDL
MODEL 9
REMARK VINA RESULT:      -2.6      3.325      4.503
REMARK  Name = *****
REMARK                            x       y       z     vdW  Elec       q    Type
REMARK                         _______ _______ _______ _____ _____    ______ ____
ROOT
ATOM      1  N   LIG    1       22.293 -20.083   4.188  0.00  0.00    -0.078 NA
ATOM      2  C   LIG    1       23.388 -20.778   4.121  0.00  0.00    +0.163 C 
ENDROOT
BRANCH   2   3
ATOM      3  C   LIG    1       24.627 -20.549   4.880  0.00  0.00    +0.033 A 
ATOM      4  C   LIG    1       25.742 -19.955   4.275  0.00  0.00    +0.051 A 
ATOM      5 CL   LIG    1       25.738 -19.402   2.638  0.00  0.00    -0.083 Cl
ATOM      6  C   LIG    1       26.904 -19.733   5.023  0.00  0.00    +0.021 A 
ATOM      7  C   LIG    1       26.952 -20.086   6.371  0.00  0.00    +0.003 A 
ATOM      8  C   LIG    1       25.833 -20.654   6.980  0.00  0.00    +0.021 A 
ATOM      9  C   LIG    1       24.669 -20.882   6.238  0.00  0.00    +0.051 A 
ATOM     10 CL   LIG    1       23.315 -21.572   7.062  0.00  0.00    -0.083 Cl
ENDBRANCH   2   3
BRANCH   1  12
ATOM     11  C   LIG    1       22.051 -17.878   4.466  0.00  0.00    +0.404 C 
ATOM     12  N   LIG    1       22.383 -18.982   5.051  0.00  0.00    +0.044 NA
BRANCH  11  13
ATOM     13  N   LIG    1       22.073 -16.674   5.082  0.00  0.00    -0.287 N 
ATOM     14  H   LIG    1       22.278 -15.933   4.420  0.00  0.00    +0.255 HD
ATOM     15  H   LIG    1       22.720 -16.664   5.861  0.00  0.00    +0.255 HD
ENDBRANCH  11  13
BRANCH  11  16
ATOM     16  N   LIG    1       21.629 -17.758   3.184  0.00  0.00    -0.287 N 
ATOM     17  H   LIG    1       21.308 -18.683   2.894  0.00  0.00    +0.255 HD
ATOM     18  H   LIG    1       22.372 -17.437   2.575  0.00  0.00    +0.255 HD
ENDBRANCH  11  16
ENDBRANCH   1  12
TORSDOF 4
ENDMDL
