MODEL 1
REMARK VINA RESULT:      -6.3      0.000      0.000
REMARK  Name = *****
REMARK                            x       y       z     vdW  Elec       q    Type
REMARK                         _______ _______ _______ _____ _____    ______ ____
ROOT
ATOM      1  C   LIG    1       21.120 -27.475  15.462  0.00  0.00    +0.015 C 
ATOM      2  C   LIG    1       22.308 -28.177  14.411  0.00  0.00    +0.011 C 
ATOM      3  C   LIG    1       23.665 -26.897  14.155  0.00  0.00    +0.123 C 
ATOM      4  O   LIG    1       25.144 -27.031  13.343  0.00  0.00    -0.457 OA
ATOM      5  C   LIG    1       26.455 -26.916  14.013  0.00  0.00    +0.308 C 
ATOM      6  O   LIG    1       27.509 -27.516  13.795  0.00  0.00    -0.251 OA
ATOM      7  C   LIG    1       26.365 -25.834  15.012  0.00  0.00    +0.124 C 
ATOM      8  C   LIG    1       24.737 -26.055  15.382  0.00  0.00    +0.060 C 
ATOM      9  C   LIG    1       22.360 -26.287  13.284  0.00  0.00    +0.037 C 
ATOM     10  C   LIG    1       21.736 -27.577  12.857  0.00  0.00    +0.000 C 
ATOM     11  C   LIG    1       20.575 -26.734  13.026  0.00  0.00    +0.012 C 
ATOM     12  C   LIG    1       21.565 -29.285  14.059  0.00  0.00    +0.006 C 
ATOM     13  C   LIG    1       22.641 -30.655  13.924  0.00  0.00    +0.001 C 
ATOM     14  C   LIG    1       23.919 -30.260  14.429  0.00  0.00    +0.000 C 
ATOM     15  C   LIG    1       24.547 -29.289  13.117  0.00  0.00    +0.019 C 
ATOM     16  C   LIG    1       24.866 -29.978  11.776  0.00  0.00    -0.057 C 
ATOM     17  C   LIG    1       24.161 -31.307  11.867  0.00  0.00    -0.007 C 
ATOM     18  C   LIG    1       25.089 -32.094  12.837  0.00  0.00    +0.016 C 
ATOM     19  C   LIG    1       23.956 -31.814  10.427  0.00  0.00    +0.019 C 
ATOM     20  C   LIG    1       23.238 -30.787   9.485  0.00  0.00    +0.080 C 
ATOM     21  C   LIG    1       24.428 -30.012   9.136  0.00  0.00    +0.156 C 
ATOM     22  O   LIG    1       24.836 -29.955   7.983  0.00  0.00    -0.293 OA
ATOM     23  C   LIG    1       25.157 -29.446  10.503  0.00  0.00    +0.046 C 
ATOM     24  C   LIG    1       25.026 -29.315  14.518  0.00  0.00    +0.012 C 
ATOM     25  C   LIG    1       22.746 -31.161  12.473  0.00  0.00    +0.003 C 
ATOM     26  C   LIG    1       21.962 -30.138  11.778  0.00  0.00    +0.005 C 
ATOM     27  C   LIG    1       21.245 -29.396  12.887  0.00  0.00    +0.011 C 
ENDROOT
TORSDOF 0
ENDMDL
MODEL 2
REMARK VINA RESULT:      -6.0      1.245      1.434
REMARK  Name = *****
REMARK                            x       y       z     vdW  Elec       q    Type
REMARK                         _______ _______ _______ _____ _____    ______ ____
ROOT
ATOM      1  C   LIG    1       22.488 -28.088  15.500  0.00  0.00    +0.015 C 
ATOM      2  C   LIG    1       23.452 -28.766  14.227  0.00  0.00    +0.011 C 
ATOM      3  C   LIG    1       25.082 -27.825  14.188  0.00  0.00    +0.123 C 
ATOM      4  O   LIG    1       26.472 -28.100  13.262  0.00  0.00    -0.457 OA
ATOM      5  C   LIG    1       27.778 -28.473  13.843  0.00  0.00    +0.308 C 
ATOM      6  O   LIG    1       28.647 -29.232  13.411  0.00  0.00    -0.251 OA
ATOM      7  C   LIG    1       27.971 -27.687  15.076  0.00  0.00    +0.124 C 
ATOM      8  C   LIG    1       26.344 -27.598  15.500  0.00  0.00    +0.060 C 
ATOM      9  C   LIG    1       23.961 -26.723  13.587  0.00  0.00    +0.037 C 
ATOM     10  C   LIG    1       23.031 -27.678  12.909  0.00  0.00    +0.000 C 
ATOM     11  C   LIG    1       22.118 -26.652  13.359  0.00  0.00    +0.012 C 
ATOM     12  C   LIG    1       22.452 -29.540  13.674  0.00  0.00    +0.006 C 
ATOM     13  C   LIG    1       23.152 -31.049  13.136  0.00  0.00    +0.001 C 
ATOM     14  C   LIG    1       24.493 -31.110  13.627  0.00  0.00    +0.000 C 
ATOM     15  C   LIG    1       25.329 -30.019  12.545  0.00  0.00    +0.019 C 
ATOM     16  C   LIG    1       25.452 -30.406  11.058  0.00  0.00    -0.057 C 
ATOM     17  C   LIG    1       24.438 -31.507  10.878  0.00  0.00    -0.007 C 
ATOM     18  C   LIG    1       25.152 -32.710  11.560  0.00  0.00    +0.016 C 
ATOM     19  C   LIG    1       24.098 -31.573   9.377  0.00  0.00    +0.019 C 
ATOM     20  C   LIG    1       23.648 -30.202   8.764  0.00  0.00    +0.080 C 
ATOM     21  C   LIG    1       24.989 -29.671   8.526  0.00  0.00    +0.156 C 
ATOM     22  O   LIG    1       25.386 -29.426   7.394  0.00  0.00    -0.293 OA
ATOM     23  C   LIG    1       25.852 -29.657   9.933  0.00  0.00    +0.046 C 
ATOM     24  C   LIG    1       25.801 -30.509  13.860  0.00  0.00    +0.012 C 
ATOM     25  C   LIG    1       23.111 -31.185  11.603  0.00  0.00    +0.003 C 
ATOM     26  C   LIG    1       22.599 -29.864  11.232  0.00  0.00    +0.005 C 
ATOM     27  C   LIG    1       22.102 -29.274  12.537  0.00  0.00    +0.011 C 
ENDROOT
TORSDOF 0
ENDMDL
MODEL 3
REMARK VINA RESULT:      -6.0      2.062      3.687
REMARK  Name = *****
REMARK                            x       y       z     vdW  Elec       q    Type
REMARK                         _______ _______ _______ _____ _____    ______ ____
ROOT
ATOM      1  C   LIG    1       21.999 -31.932  12.904  0.00  0.00    +0.015 C 
ATOM      2  C   LIG    1       23.150 -31.337  11.751  0.00  0.00    +0.011 C 
ATOM      3  C   LIG    1       23.663 -29.611  12.301  0.00  0.00    +0.123 C 
ATOM      4  O   LIG    1       24.842 -28.575  11.667  0.00  0.00    -0.457 OA
ATOM      5  C   LIG    1       26.043 -28.154  12.415  0.00  0.00    +0.308 C 
ATOM      6  O   LIG    1       27.192 -27.951  12.015  0.00  0.00    -0.251 OA
ATOM      7  C   LIG    1       25.647 -27.898  13.812  0.00  0.00    +0.124 C 
ATOM      8  C   LIG    1       24.422 -29.053  13.874  0.00  0.00    +0.060 C 
ATOM      9  C   LIG    1       22.085 -29.411  11.750  0.00  0.00    +0.037 C 
ATOM     10  C   LIG    1       22.077 -30.450  10.674  0.00  0.00    +0.000 C 
ATOM     11  C   LIG    1       20.712 -30.507  11.144  0.00  0.00    +0.012 C 
ATOM     12  C   LIG    1       22.967 -32.340  10.821  0.00  0.00    +0.006 C 
ATOM     13  C   LIG    1       24.515 -32.721  10.104  0.00  0.00    +0.001 C 
ATOM     14  C   LIG    1       25.525 -32.036  10.850  0.00  0.00    +0.000 C 
ATOM     15  C   LIG    1       25.353 -30.393  10.274  0.00  0.00    +0.019 C 
ATOM     16  C   LIG    1       25.696 -30.088   8.803  0.00  0.00    -0.057 C 
ATOM     17  C   LIG    1       25.735 -31.443   8.144  0.00  0.00    -0.007 C 
ATOM     18  C   LIG    1       27.092 -32.006   8.657  0.00  0.00    +0.016 C 
ATOM     19  C   LIG    1       25.523 -31.222   6.634  0.00  0.00    +0.019 C 
ATOM     20  C   LIG    1       24.238 -30.393   6.285  0.00  0.00    +0.080 C 
ATOM     21  C   LIG    1       24.828 -29.070   6.484  0.00  0.00    +0.156 C 
ATOM     22  O   LIG    1       24.930 -28.271   5.561  0.00  0.00    -0.293 OA
ATOM     23  C   LIG    1       25.450 -28.949   8.008  0.00  0.00    +0.046 C 
ATOM     24  C   LIG    1       26.046 -30.842  11.504  0.00  0.00    +0.012 C 
ATOM     25  C   LIG    1       24.566 -32.339   8.613  0.00  0.00    +0.003 C 
ATOM     26  C   LIG    1       23.275 -31.664   8.468  0.00  0.00    +0.005 C 
ATOM     27  C   LIG    1       22.520 -32.021   9.732  0.00  0.00    +0.011 C 
ENDROOT
TORSDOF 0
ENDMDL
MODEL 4
REMARK VINA RESULT:      -6.0      2.293      6.114
REMARK  Name = *****
REMARK                            x       y       z     vdW  Elec       q    Type
REMARK                         _______ _______ _______ _____ _____    ______ ____
ROOT
ATOM      1  C   LIG    1       26.763 -31.331   9.181  0.00  0.00    +0.015 C 
ATOM      2  C   LIG    1       25.401 -30.985  10.199  0.00  0.00    +0.011 C 
ATOM      3  C   LIG    1       23.848 -31.471   9.252  0.00  0.00    +0.123 C 
ATOM      4  O   LIG    1       22.232 -31.493   9.757  0.00  0.00    -0.457 OA
ATOM      5  C   LIG    1       21.428 -32.727   9.857  0.00  0.00    +0.308 C 
ATOM      6  O   LIG    1       20.563 -33.042  10.678  0.00  0.00    -0.251 OA
ATOM      7  C   LIG    1       21.752 -33.581   8.700  0.00  0.00    +0.124 C 
ATOM      8  C   LIG    1       23.356 -33.091   8.548  0.00  0.00    +0.060 C 
ATOM      9  C   LIG    1       24.390 -30.086   8.463  0.00  0.00    +0.037 C 
ATOM     10  C   LIG    1       24.993 -29.370   9.629  0.00  0.00    +0.000 C 
ATOM     11  C   LIG    1       25.870 -28.966   8.553  0.00  0.00    +0.012 C 
ATOM     12  C   LIG    1       26.102 -30.280  11.156  0.00  0.00    +0.006 C 
ATOM     13  C   LIG    1       25.430 -30.656  12.725  0.00  0.00    +0.001 C 
ATOM     14  C   LIG    1       24.511 -31.738  12.560  0.00  0.00    +0.000 C 
ATOM     15  C   LIG    1       23.125 -30.937  11.854  0.00  0.00    +0.019 C 
ATOM     16  C   LIG    1       22.353 -29.910  12.706  0.00  0.00    -0.057 C 
ATOM     17  C   LIG    1       23.287 -29.603  13.849  0.00  0.00    -0.007 C 
ATOM     18  C   LIG    1       23.151 -30.881  14.724  0.00  0.00    +0.016 C 
ATOM     19  C   LIG    1       22.869 -28.236  14.424  0.00  0.00    +0.019 C 
ATOM     20  C   LIG    1       22.789 -27.092  13.355  0.00  0.00    +0.080 C 
ATOM     21  C   LIG    1       21.442 -27.399  12.874  0.00  0.00    +0.156 C 
ATOM     22  O   LIG    1       20.522 -26.601  13.000  0.00  0.00    -0.293 OA
ATOM     23  C   LIG    1       21.369 -28.964  12.355  0.00  0.00    +0.046 C 
ATOM     24  C   LIG    1       23.411 -32.390  11.859  0.00  0.00    +0.012 C 
ATOM     25  C   LIG    1       24.746 -29.433  13.364  0.00  0.00    +0.003 C 
ATOM     26  C   LIG    1       24.842 -28.471  12.264  0.00  0.00    +0.005 C 
ATOM     27  C   LIG    1       25.825 -29.100  11.298  0.00  0.00    +0.011 C 
ENDROOT
TORSDOF 0
ENDMDL
MODEL 5
REMARK VINA RESULT:      -5.8      2.149      5.807
REMARK  Name = *****
REMARK                            x       y       z     vdW  Elec       q    Type
REMARK                         _______ _______ _______ _____ _____    ______ ____
ROOT
ATOM      1  C   LIG    1       26.044 -31.585   9.443  0.00  0.00    +0.015 C 
ATOM      2  C   LIG    1       25.654 -30.498  10.737  0.00  0.00    +0.011 C 
ATOM      3  C   LIG    1       23.801 -30.171  10.663  0.00  0.00    +0.123 C 
ATOM      4  O   LIG    1       22.809 -29.303  11.725  0.00  0.00    -0.457 OA
ATOM      5  C   LIG    1       21.722 -29.920  12.511  0.00  0.00    +0.308 C 
ATOM      6  O   LIG    1       21.333 -29.669  13.654  0.00  0.00    -0.251 OA
ATOM      7  C   LIG    1       21.038 -30.906  11.654  0.00  0.00    +0.124 C 
ATOM      8  C   LIG    1       22.393 -31.343  10.754  0.00  0.00    +0.060 C 
ATOM      9  C   LIG    1       24.414 -29.344   9.332  0.00  0.00    +0.037 C 
ATOM     10  C   LIG    1       25.750 -28.960   9.886  0.00  0.00    +0.000 C 
ATOM     11  C   LIG    1       26.061 -29.162   8.489  0.00  0.00    +0.012 C 
ATOM     12  C   LIG    1       26.956 -30.192  11.076  0.00  0.00    +0.006 C 
ATOM     13  C   LIG    1       27.054 -30.034  12.814  0.00  0.00    +0.001 C 
ATOM     14  C   LIG    1       25.814 -30.483  13.366  0.00  0.00    +0.000 C 
ATOM     15  C   LIG    1       24.753 -29.134  13.028  0.00  0.00    +0.019 C 
ATOM     16  C   LIG    1       25.019 -27.791  13.737  0.00  0.00    -0.057 C 
ATOM     17  C   LIG    1       26.421 -27.929  14.274  0.00  0.00    -0.007 C 
ATOM     18  C   LIG    1       26.203 -28.872  15.492  0.00  0.00    +0.016 C 
ATOM     19  C   LIG    1       26.965 -26.505  14.499  0.00  0.00    +0.019 C 
ATOM     20  C   LIG    1       26.866 -25.578  13.239  0.00  0.00    +0.080 C 
ATOM     21  C   LIG    1       25.475 -25.171  13.434  0.00  0.00    +0.156 C 
ATOM     22  O   LIG    1       25.175 -24.002  13.642  0.00  0.00    -0.293 OA
ATOM     23  C   LIG    1       24.500 -26.500  13.508  0.00  0.00    +0.046 C 
ATOM     24  C   LIG    1       24.356 -30.515  13.384  0.00  0.00    +0.012 C 
ATOM     25  C   LIG    1       27.365 -28.588  13.242  0.00  0.00    +0.003 C 
ATOM     26  C   LIG    1       27.308 -27.909  11.946  0.00  0.00    +0.005 C 
ATOM     27  C   LIG    1       27.316 -29.035  10.932  0.00  0.00    +0.011 C 
ENDROOT
TORSDOF 0
ENDMDL
MODEL 6
REMARK VINA RESULT:      -5.4      2.813      4.128
REMARK  Name = *****
REMARK                            x       y       z     vdW  Elec       q    Type
REMARK                         _______ _______ _______ _____ _____    ______ ____
ROOT
ATOM      1  C   LIG    1       21.814 -27.434  15.500  0.00  0.00    +0.015 C 
ATOM      2  C   LIG    1       21.495 -28.708  14.366  0.00  0.00    +0.011 C 
ATOM      3  C   LIG    1       22.613 -28.433  12.876  0.00  0.00    +0.123 C 
ATOM      4  O   LIG    1       22.856 -29.401  11.509  0.00  0.00    -0.457 OA
ATOM      5  C   LIG    1       24.147 -30.039  11.182  0.00  0.00    +0.308 C 
ATOM      6  O   LIG    1       24.379 -31.136  10.671  0.00  0.00    -0.251 OA
ATOM      7  C   LIG    1       25.224 -29.079  11.491  0.00  0.00    +0.124 C 
ATOM      8  C   LIG    1       24.441 -28.326  12.778  0.00  0.00    +0.060 C 
ATOM      9  C   LIG    1       21.466 -27.206  12.757  0.00  0.00    +0.037 C 
ATOM     10  C   LIG    1       20.293 -27.921  13.349  0.00  0.00    +0.000 C 
ATOM     11  C   LIG    1       20.057 -26.563  13.785  0.00  0.00    +0.012 C 
ATOM     12  C   LIG    1       20.375 -29.203  15.004  0.00  0.00    +0.006 C 
ATOM     13  C   LIG    1       20.379 -30.945  14.858  0.00  0.00    +0.001 C 
ATOM     14  C   LIG    1       21.643 -31.337  14.318  0.00  0.00    +0.000 C 
ATOM     15  C   LIG    1       21.463 -30.922  12.628  0.00  0.00    +0.019 C 
ATOM     16  C   LIG    1       20.433 -31.697  11.784  0.00  0.00    -0.057 C 
ATOM     17  C   LIG    1       19.563 -32.386  12.804  0.00  0.00    -0.007 C 
ATOM     18  C   LIG    1       20.489 -33.541  13.281  0.00  0.00    +0.016 C 
ATOM     19  C   LIG    1       18.225 -32.715  12.114  0.00  0.00    +0.019 C 
ATOM     20  C   LIG    1       17.536 -31.480  11.436  0.00  0.00    +0.080 C 
ATOM     21  C   LIG    1       18.292 -31.528  10.185  0.00  0.00    +0.156 C 
ATOM     22  O   LIG    1       17.739 -31.735   9.113  0.00  0.00    -0.293 OA
ATOM     23  C   LIG    1       19.911 -31.449  10.497  0.00  0.00    +0.046 C 
ATOM     24  C   LIG    1       22.726 -31.188  13.354  0.00  0.00    +0.012 C 
ATOM     25  C   LIG    1       19.216 -31.449  13.984  0.00  0.00    +0.003 C 
ATOM     26  C   LIG    1       18.662 -30.176  13.518  0.00  0.00    +0.005 C 
ATOM     27  C   LIG    1       19.314 -29.135  14.406  0.00  0.00    +0.011 C 
ENDROOT
TORSDOF 0
ENDMDL
MODEL 7
REMARK VINA RESULT:      -5.3      1.928      5.428
REMARK  Name = *****
REMARK                            x       y       z     vdW  Elec       q    Type
REMARK                         _______ _______ _______ _____ _____    ______ ____
ROOT
ATOM      1  C   LIG    1       27.915 -29.772  12.342  0.00  0.00    +0.015 C 
ATOM      2  C   LIG    1       26.183 -29.736  12.431  0.00  0.00    +0.011 C 
ATOM      3  C   LIG    1       25.523 -29.837  10.670  0.00  0.00    +0.123 C 
ATOM      4  O   LIG    1       23.930 -29.972  10.114  0.00  0.00    -0.457 OA
ATOM      5  C   LIG    1       23.422 -31.146   9.375  0.00  0.00    +0.308 C 
ATOM      6  O   LIG    1       22.314 -31.684   9.413  0.00  0.00    -0.251 OA
ATOM      7  C   LIG    1       24.471 -31.584   8.435  0.00  0.00    +0.124 C 
ATOM      8  C   LIG    1       25.781 -31.121   9.387  0.00  0.00    +0.060 C 
ATOM      9  C   LIG    1       26.174 -28.288  10.773  0.00  0.00    +0.037 C 
ATOM     10  C   LIG    1       25.899 -28.012  12.218  0.00  0.00    +0.000 C 
ATOM     11  C   LIG    1       27.144 -27.306  12.017  0.00  0.00    +0.012 C 
ATOM     12  C   LIG    1       26.106 -29.405  13.768  0.00  0.00    +0.006 C 
ATOM     13  C   LIG    1       24.748 -30.253  14.472  0.00  0.00    +0.001 C 
ATOM     14  C   LIG    1       24.270 -31.192  13.507  0.00  0.00    +0.000 C 
ATOM     15  C   LIG    1       23.400 -30.161  12.393  0.00  0.00    +0.019 C 
ATOM     16  C   LIG    1       22.128 -29.446  12.889  0.00  0.00    -0.057 C 
ATOM     17  C   LIG    1       22.204 -29.558  14.390  0.00  0.00    -0.007 C 
ATOM     18  C   LIG    1       21.818 -31.048  14.617  0.00  0.00    +0.016 C 
ATOM     19  C   LIG    1       21.318 -28.443  14.976  0.00  0.00    +0.019 C 
ATOM     20  C   LIG    1       21.657 -27.010  14.437  0.00  0.00    +0.080 C 
ATOM     21  C   LIG    1       20.877 -27.101  13.203  0.00  0.00    +0.156 C 
ATOM     22  O   LIG    1       19.925 -26.360  12.993  0.00  0.00    -0.293 OA
ATOM     23  C   LIG    1       21.365 -28.407  12.320  0.00  0.00    +0.046 C 
ATOM     24  C   LIG    1       23.871 -31.544  12.149  0.00  0.00    +0.012 C 
ATOM     25  C   LIG    1       23.634 -29.285  14.912  0.00  0.00    +0.003 C 
ATOM     26  C   LIG    1       24.163 -28.020  14.400  0.00  0.00    +0.005 C 
ATOM     27  C   LIG    1       25.606 -28.329  14.052  0.00  0.00    +0.011 C 
ENDROOT
TORSDOF 0
ENDMDL
MODEL 8
REMARK VINA RESULT:      -5.3      2.447      6.652
REMARK  Name = *****
REMARK                            x       y       z     vdW  Elec       q    Type
REMARK                         _______ _______ _______ _____ _____    ______ ____
ROOT
ATOM      1  C   LIG    1       24.808 -33.825   7.182  0.00  0.00    +0.015 C 
ATOM      2  C   LIG    1       24.891 -32.419   8.196  0.00  0.00    +0.011 C 
ATOM      3  C   LIG    1       25.683 -31.040   7.187  0.00  0.00    +0.123 C 
ATOM      4  O   LIG    1       25.918 -29.409   7.576  0.00  0.00    -0.457 OA
ATOM      5  C   LIG    1       25.272 -28.298   6.848  0.00  0.00    +0.308 C 
ATOM      6  O   LIG    1       24.843 -27.222   7.270  0.00  0.00    -0.251 OA
ATOM      7  C   LIG    1       25.282 -28.625   5.410  0.00  0.00    +0.124 C 
ATOM      8  C   LIG    1       25.160 -30.294   5.596  0.00  0.00    +0.060 C 
ATOM      9  C   LIG    1       26.955 -32.098   7.501  0.00  0.00    +0.037 C 
ATOM     10  C   LIG    1       26.519 -32.601   8.841  0.00  0.00    +0.000 C 
ATOM     11  C   LIG    1       27.166 -33.769   8.287  0.00  0.00    +0.012 C 
ATOM     12  C   LIG    1       24.544 -33.057   9.369  0.00  0.00    +0.006 C 
ATOM     13  C   LIG    1       23.538 -31.979  10.309  0.00  0.00    +0.001 C 
ATOM     14  C   LIG    1       23.204 -30.860   9.484  0.00  0.00    +0.000 C 
ATOM     15  C   LIG    1       24.689 -29.935   9.504  0.00  0.00    +0.019 C 
ATOM     16  C   LIG    1       25.146 -29.304  10.834  0.00  0.00    -0.057 C 
ATOM     17  C   LIG    1       24.324 -30.011  11.880  0.00  0.00    -0.007 C 
ATOM     18  C   LIG    1       22.932 -29.343  11.695  0.00  0.00    +0.016 C 
ATOM     19  C   LIG    1       25.069 -29.863  13.221  0.00  0.00    +0.019 C 
ATOM     20  C   LIG    1       26.564 -30.334  13.175  0.00  0.00    +0.080 C 
ATOM     21  C   LIG    1       27.118 -29.095  12.632  0.00  0.00    +0.156 C 
ATOM     22  O   LIG    1       27.920 -28.422  13.267  0.00  0.00    -0.293 OA
ATOM     23  C   LIG    1       26.371 -28.716  11.210  0.00  0.00    +0.046 C 
ATOM     24  C   LIG    1       23.569 -29.807   8.544  0.00  0.00    +0.012 C 
ATOM     25  C   LIG    1       24.235 -31.530  11.606  0.00  0.00    +0.003 C 
ATOM     26  C   LIG    1       25.560 -32.123  11.415  0.00  0.00    +0.005 C 
ATOM     27  C   LIG    1       25.378 -33.086  10.259  0.00  0.00    +0.011 C 
ENDROOT
TORSDOF 0
ENDMDL
MODEL 9
REMARK VINA RESULT:      -5.0      1.797      2.391
REMARK  Name = *****
REMARK                            x       y       z     vdW  Elec       q    Type
REMARK                         _______ _______ _______ _____ _____    ______ ____
ROOT
ATOM      1  C   LIG    1       21.241 -26.397  15.500  0.00  0.00    +0.015 C 
ATOM      2  C   LIG    1       21.755 -27.823  14.655  0.00  0.00    +0.011 C 
ATOM      3  C   LIG    1       23.254 -27.356  13.616  0.00  0.00    +0.123 C 
ATOM      4  O   LIG    1       24.271 -28.332  12.678  0.00  0.00    -0.457 OA
ATOM      5  C   LIG    1       25.705 -28.530  12.970  0.00  0.00    +0.308 C 
ATOM      6  O   LIG    1       26.407 -29.535  12.839  0.00  0.00    -0.251 OA
ATOM      7  C   LIG    1       26.269 -27.235  13.396  0.00  0.00    +0.124 C 
ATOM      8  C   LIG    1       24.868 -26.651  14.126  0.00  0.00    +0.060 C 
ATOM      9  C   LIG    1       21.966 -26.609  12.831  0.00  0.00    +0.037 C 
ATOM     10  C   LIG    1       20.893 -27.606  13.135  0.00  0.00    +0.000 C 
ATOM     11  C   LIG    1       20.148 -26.367  13.136  0.00  0.00    +0.012 C 
ATOM     12  C   LIG    1       20.652 -28.591  14.968  0.00  0.00    +0.006 C 
ATOM     13  C   LIG    1       21.181 -30.234  15.242  0.00  0.00    +0.001 C 
ATOM     14  C   LIG    1       22.610 -30.236  15.272  0.00  0.00    +0.000 C 
ATOM     15  C   LIG    1       23.013 -30.098  13.576  0.00  0.00    +0.019 C 
ATOM     16  C   LIG    1       22.653 -31.264  12.635  0.00  0.00    -0.057 C 
ATOM     17  C   LIG    1       21.669 -32.087  13.427  0.00  0.00    -0.007 C 
ATOM     18  C   LIG    1       22.602 -32.802  14.447  0.00  0.00    +0.016 C 
ATOM     19  C   LIG    1       20.858 -32.923  12.419  0.00  0.00    +0.019 C 
ATOM     20  C   LIG    1       20.192 -32.078  11.279  0.00  0.00    +0.080 C 
ATOM     21  C   LIG    1       21.365 -32.007  10.409  0.00  0.00    +0.156 C 
ATOM     22  O   LIG    1       21.362 -32.508   9.292  0.00  0.00    -0.293 OA
ATOM     23  C   LIG    1       22.640 -31.354  11.228  0.00  0.00    +0.046 C 
ATOM     24  C   LIG    1       23.904 -29.839  14.730  0.00  0.00    +0.012 C 
ATOM     25  C   LIG    1       20.644 -31.196  14.165  0.00  0.00    +0.003 C 
ATOM     26  C   LIG    1       20.001 -30.245  13.257  0.00  0.00    +0.005 C 
ATOM     27  C   LIG    1       19.940 -28.953  14.046  0.00  0.00    +0.011 C 
ENDROOT
TORSDOF 0
ENDMDL
