MODEL 1
REMARK VINA RESULT:      -4.2      0.000      0.000
REMARK  Name = *****
REMARK                            x       y       z     vdW  Elec       q    Type
REMARK                         _______ _______ _______ _____ _____    ______ ____
ROOT
ATOM      1  C   LIG    1       24.096 -11.905   2.518  0.00  0.00    +0.044 C 
ATOM      2  C   LIG    1       25.104 -12.944   2.905  0.00  0.00    -0.043 C 
ATOM      3  C   LIG    1       24.597 -14.261   3.263  0.00  0.00    +0.028 C 
ATOM      4  C   LIG    1       25.425 -15.258   3.633  0.00  0.00    +0.065 C 
ATOM      5  N   LIG    1       26.780 -14.980   3.646  0.00  0.00    -0.151 N 
ATOM      6  C   LIG    1       27.366 -13.775   3.324  0.00  0.00    +0.284 C 
ATOM      7  O   LIG    1       28.579 -13.579   3.354  0.00  0.00    -0.265 OA
ATOM      8  C   LIG    1       26.424 -12.699   2.930  0.00  0.00    +0.076 C 
ENDROOT
BRANCH   4   9
ATOM      9  C   LIG    1       24.967 -16.665   4.014  0.00  0.00    +0.039 C 
ATOM     10  C   LIG    1       25.572 -17.799   3.158  0.00  0.00    +0.010 C 
ATOM     11  C   LIG    1       25.093 -19.170   3.631  0.00  0.00    +0.001 C 
ATOM     12  C   LIG    1       23.570 -19.259   3.625  0.00  0.00    +0.000 C 
ATOM     13  C   LIG    1       22.939 -18.134   4.439  0.00  0.00    +0.001 C 
ATOM     14  C   LIG    1       23.430 -16.758   3.990  0.00  0.00    +0.010 C 
ENDBRANCH   4   9
BRANCH   5  15
ATOM     15  O   LIG    1       27.655 -16.021   4.026  0.00  0.00    -0.423 OA
ATOM     16  H   LIG    1       27.843 -16.440   3.161  0.00  0.00    +0.326 HD
ENDBRANCH   5  15
TORSDOF 2
ENDMDL
MODEL 2
REMARK VINA RESULT:      -4.2      1.303      1.919
REMARK  Name = *****
REMARK                            x       y       z     vdW  Elec       q    Type
REMARK                         _______ _______ _______ _____ _____    ______ ____
ROOT
ATOM      1  C   LIG    1       23.812 -12.141   4.761  0.00  0.00    +0.044 C 
ATOM      2  C   LIG    1       24.566 -13.355   4.309  0.00  0.00    -0.043 C 
ATOM      3  C   LIG    1       23.821 -14.602   4.212  0.00  0.00    +0.028 C 
ATOM      4  C   LIG    1       24.415 -15.749   3.823  0.00  0.00    +0.065 C 
ATOM      5  N   LIG    1       25.760 -15.687   3.508  0.00  0.00    -0.151 N 
ATOM      6  C   LIG    1       26.557 -14.564   3.561  0.00  0.00    +0.284 C 
ATOM      7  O   LIG    1       27.752 -14.563   3.272  0.00  0.00    -0.265 OA
ATOM      8  C   LIG    1       25.874 -13.323   4.002  0.00  0.00    +0.076 C 
ENDROOT
BRANCH   4   9
ATOM      9  C   LIG    1       23.697 -17.091   3.691  0.00  0.00    +0.039 C 
ATOM     10  C   LIG    1       22.486 -17.274   4.631  0.00  0.00    +0.010 C 
ATOM     11  C   LIG    1       21.805 -18.623   4.407  0.00  0.00    +0.001 C 
ATOM     12  C   LIG    1       22.788 -19.777   4.579  0.00  0.00    +0.000 C 
ATOM     13  C   LIG    1       24.011 -19.611   3.684  0.00  0.00    +0.001 C 
ATOM     14  C   LIG    1       24.687 -18.255   3.884  0.00  0.00    +0.010 C 
ENDBRANCH   4   9
BRANCH   5  15
ATOM     15  O   LIG    1       26.388 -16.882   3.094  0.00  0.00    -0.423 OA
ATOM     16  H   LIG    1       25.671 -17.535   3.235  0.00  0.00    +0.326 HD
ENDBRANCH   5  15
TORSDOF 2
ENDMDL
MODEL 3
REMARK VINA RESULT:      -3.9      1.997      5.351
REMARK  Name = *****
REMARK                            x       y       z     vdW  Elec       q    Type
REMARK                         _______ _______ _______ _____ _____    ______ ____
ROOT
ATOM      1  C   LIG    1       23.766 -19.960   3.659  0.00  0.00    +0.044 C 
ATOM      2  C   LIG    1       25.114 -19.389   3.980  0.00  0.00    -0.043 C 
ATOM      3  C   LIG    1       25.389 -18.035   3.519  0.00  0.00    +0.028 C 
ATOM      4  C   LIG    1       26.576 -17.439   3.753  0.00  0.00    +0.065 C 
ATOM      5  N   LIG    1       27.518 -18.164   4.458  0.00  0.00    -0.151 N 
ATOM      6  C   LIG    1       27.363 -19.446   4.942  0.00  0.00    +0.284 C 
ATOM      7  O   LIG    1       28.235 -20.049   5.564  0.00  0.00    -0.265 OA
ATOM      8  C   LIG    1       26.049 -20.074   4.660  0.00  0.00    +0.076 C 
ENDROOT
BRANCH   4   9
ATOM      9  C   LIG    1       26.932 -16.022   3.308  0.00  0.00    +0.039 C 
ATOM     10  C   LIG    1       27.749 -15.206   4.333  0.00  0.00    +0.010 C 
ATOM     11  C   LIG    1       28.095 -13.819   3.793  0.00  0.00    +0.001 C 
ATOM     12  C   LIG    1       26.841 -13.052   3.387  0.00  0.00    +0.000 C 
ATOM     13  C   LIG    1       25.995 -13.844   2.395  0.00  0.00    +0.001 C 
ATOM     14  C   LIG    1       25.663 -15.242   2.916  0.00  0.00    +0.010 C 
ENDBRANCH   4   9
BRANCH   5  15
ATOM     15  O   LIG    1       28.762 -17.546   4.712  0.00  0.00    -0.423 OA
ATOM     16  H   LIG    1       28.674 -16.718   4.196  0.00  0.00    +0.326 HD
ENDBRANCH   5  15
TORSDOF 2
ENDMDL
MODEL 4
REMARK VINA RESULT:      -3.8      2.117      2.889
REMARK  Name = *****
REMARK                            x       y       z     vdW  Elec       q    Type
REMARK                         _______ _______ _______ _____ _____    ______ ____
ROOT
ATOM      1  C   LIG    1       28.526 -13.542   3.631  0.00  0.00    +0.044 C 
ATOM      2  C   LIG    1       27.069 -13.854   3.785  0.00  0.00    -0.043 C 
ATOM      3  C   LIG    1       26.649 -15.222   3.515  0.00  0.00    +0.028 C 
ATOM      4  C   LIG    1       25.358 -15.597   3.619  0.00  0.00    +0.065 C 
ATOM      5  N   LIG    1       24.450 -14.629   4.004  0.00  0.00    -0.151 N 
ATOM      6  C   LIG    1       24.736 -13.310   4.286  0.00  0.00    +0.284 C 
ATOM      7  O   LIG    1       23.889 -12.486   4.623  0.00  0.00    -0.265 OA
ATOM      8  C   LIG    1       26.165 -12.931   4.153  0.00  0.00    +0.076 C 
ENDROOT
BRANCH   4   9
ATOM      9  C   LIG    1       24.847 -17.013   3.359  0.00  0.00    +0.039 C 
ATOM     10  C   LIG    1       23.646 -17.439   4.231  0.00  0.00    +0.010 C 
ATOM     11  C   LIG    1       23.175 -18.849   3.880  0.00  0.00    +0.001 C 
ATOM     12  C   LIG    1       24.307 -19.862   4.012  0.00  0.00    +0.000 C 
ATOM     13  C   LIG    1       25.523 -19.456   3.184  0.00  0.00    +0.001 C 
ATOM     14  C   LIG    1       25.988 -18.037   3.511  0.00  0.00    +0.010 C 
ENDBRANCH   4   9
BRANCH   5  15
ATOM     15  O   LIG    1       23.096 -15.014   4.121  0.00  0.00    -0.423 OA
ATOM     16  H   LIG    1       22.643 -14.148   4.047  0.00  0.00    +0.326 HD
ENDBRANCH   5  15
TORSDOF 2
ENDMDL
MODEL 5
REMARK VINA RESULT:      -3.4      1.635      5.228
REMARK  Name = *****
REMARK                            x       y       z     vdW  Elec       q    Type
REMARK                         _______ _______ _______ _____ _____    ______ ____
ROOT
ATOM      1  C   LIG    1       21.339 -18.749   4.271  0.00  0.00    +0.044 C 
ATOM      2  C   LIG    1       22.784 -18.441   4.020  0.00  0.00    -0.043 C 
ATOM      3  C   LIG    1       23.180 -17.040   4.046  0.00  0.00    +0.028 C 
ATOM      4  C   LIG    1       24.455 -16.664   3.824  0.00  0.00    +0.065 C 
ATOM      5  N   LIG    1       25.375 -17.667   3.582  0.00  0.00    -0.151 N 
ATOM      6  C   LIG    1       25.112 -19.020   3.537  0.00  0.00    +0.284 C 
ATOM      7  O   LIG    1       25.968 -19.873   3.315  0.00  0.00    -0.265 OA
ATOM      8  C   LIG    1       23.697 -19.396   3.778  0.00  0.00    +0.076 C 
ENDROOT
BRANCH   4   9
ATOM      9  C   LIG    1       24.945 -15.217   3.844  0.00  0.00    +0.039 C 
ATOM     10  C   LIG    1       23.844 -14.164   4.095  0.00  0.00    +0.010 C 
ATOM     11  C   LIG    1       24.424 -12.751   4.137  0.00  0.00    +0.001 C 
ATOM     12  C   LIG    1       25.185 -12.424   2.856  0.00  0.00    +0.000 C 
ATOM     13  C   LIG    1       26.263 -13.463   2.563  0.00  0.00    +0.001 C 
ATOM     14  C   LIG    1       25.697 -14.883   2.542  0.00  0.00    +0.010 C 
ENDBRANCH   4   9
BRANCH   5  15
ATOM     15  O   LIG    1       26.715 -17.283   3.354  0.00  0.00    -0.423 OA
ATOM     16  H   LIG    1       26.803 -17.452   2.393  0.00  0.00    +0.326 HD
ENDBRANCH   5  15
TORSDOF 2
ENDMDL
MODEL 6
REMARK VINA RESULT:      -3.1      2.691      5.431
REMARK  Name = *****
REMARK                            x       y       z     vdW  Elec       q    Type
REMARK                         _______ _______ _______ _____ _____    ______ ____
ROOT
ATOM      1  C   LIG    1       29.474 -18.576   5.558  0.00  0.00    +0.044 C 
ATOM      2  C   LIG    1       28.100 -18.574   4.959  0.00  0.00    -0.043 C 
ATOM      3  C   LIG    1       27.624 -17.320   4.393  0.00  0.00    +0.028 C 
ATOM      4  C   LIG    1       26.398 -17.217   3.839  0.00  0.00    +0.065 C 
ATOM      5  N   LIG    1       25.617 -18.358   3.822  0.00  0.00    -0.151 N 
ATOM      6  C   LIG    1       25.968 -19.592   4.325  0.00  0.00    +0.284 C 
ATOM      7  O   LIG    1       25.234 -20.577   4.287  0.00  0.00    -0.265 OA
ATOM      8  C   LIG    1       27.319 -19.666   4.934  0.00  0.00    +0.076 C 
ENDROOT
BRANCH   4   9
ATOM      9  C   LIG    1       25.835 -15.940   3.220  0.00  0.00    +0.039 C 
ATOM     10  C   LIG    1       26.886 -14.854   2.903  0.00  0.00    +0.010 C 
ATOM     11  C   LIG    1       26.244 -13.630   2.252  0.00  0.00    +0.001 C 
ATOM     12  C   LIG    1       25.136 -13.052   3.127  0.00  0.00    +0.000 C 
ATOM     13  C   LIG    1       24.094 -14.108   3.483  0.00  0.00    +0.001 C 
ATOM     14  C   LIG    1       24.729 -15.347   4.113  0.00  0.00    +0.010 C 
ENDBRANCH   4   9
BRANCH   5  15
ATOM     15  O   LIG    1       24.334 -18.261   3.239  0.00  0.00    -0.423 OA
ATOM     16  H   LIG    1       23.906 -19.073   3.581  0.00  0.00    +0.326 HD
ENDBRANCH   5  15
TORSDOF 2
ENDMDL
MODEL 7
REMARK VINA RESULT:      -3.1      2.359      5.632
REMARK  Name = *****
REMARK                            x       y       z     vdW  Elec       q    Type
REMARK                         _______ _______ _______ _____ _____    ______ ____
ROOT
ATOM      1  C   LIG    1       25.459 -20.114   2.997  0.00  0.00    +0.044 C 
ATOM      2  C   LIG    1       24.725 -18.879   3.423  0.00  0.00    -0.043 C 
ATOM      3  C   LIG    1       25.461 -17.623   3.391  0.00  0.00    +0.028 C 
ATOM      4  C   LIG    1       24.889 -16.461   3.764  0.00  0.00    +0.065 C 
ATOM      5  N   LIG    1       23.567 -16.510   4.168  0.00  0.00    -0.151 N 
ATOM      6  C   LIG    1       22.778 -17.638   4.233  0.00  0.00    +0.284 C 
ATOM      7  O   LIG    1       21.605 -17.628   4.602  0.00  0.00    -0.265 OA
ATOM      8  C   LIG    1       23.442 -18.900   3.824  0.00  0.00    +0.076 C 
ENDROOT
BRANCH   4   9
ATOM      9  C   LIG    1       25.596 -15.107   3.749  0.00  0.00    +0.039 C 
ATOM     10  C   LIG    1       25.330 -14.250   2.493  0.00  0.00    +0.010 C 
ATOM     11  C   LIG    1       26.041 -12.900   2.578  0.00  0.00    +0.001 C 
ATOM     12  C   LIG    1       27.541 -13.075   2.790  0.00  0.00    +0.000 C 
ATOM     13  C   LIG    1       27.839 -13.942   4.009  0.00  0.00    +0.001 C 
ATOM     14  C   LIG    1       27.113 -15.286   3.945  0.00  0.00    +0.010 C 
ENDBRANCH   4   9
BRANCH   5  15
ATOM     15  O   LIG    1       22.958 -15.296   4.554  0.00  0.00    -0.423 OA
ATOM     16  H   LIG    1       22.824 -14.863   3.685  0.00  0.00    +0.326 HD
ENDBRANCH   5  15
TORSDOF 2
ENDMDL
MODEL 8
REMARK VINA RESULT:      -2.9      1.144      1.195
REMARK  Name = *****
REMARK                            x       y       z     vdW  Elec       q    Type
REMARK                         _______ _______ _______ _____ _____    ______ ____
ROOT
ATOM      1  C   LIG    1       23.595 -12.205   4.197  0.00  0.00    +0.044 C 
ATOM      2  C   LIG    1       24.482 -13.367   3.868  0.00  0.00    -0.043 C 
ATOM      3  C   LIG    1       23.977 -14.697   4.178  0.00  0.00    +0.028 C 
ATOM      4  C   LIG    1       24.705 -15.804   3.927  0.00  0.00    +0.065 C 
ATOM      5  N   LIG    1       25.949 -15.622   3.352  0.00  0.00    -0.151 N 
ATOM      6  C   LIG    1       26.522 -14.414   3.015  0.00  0.00    +0.284 C 
ATOM      7  O   LIG    1       27.635 -14.306   2.506  0.00  0.00    -0.265 OA
ATOM      8  C   LIG    1       25.696 -13.218   3.313  0.00  0.00    +0.076 C 
ENDROOT
BRANCH   4   9
ATOM      9  C   LIG    1       24.239 -17.229   4.218  0.00  0.00    +0.039 C 
ATOM     10  C   LIG    1       24.544 -18.252   3.102  0.00  0.00    +0.010 C 
ATOM     11  C   LIG    1       24.080 -19.655   3.490  0.00  0.00    +0.001 C 
ATOM     12  C   LIG    1       22.594 -19.674   3.832  0.00  0.00    +0.000 C 
ATOM     13  C   LIG    1       22.253 -18.653   4.913  0.00  0.00    +0.001 C 
ATOM     14  C   LIG    1       22.734 -17.250   4.545  0.00  0.00    +0.010 C 
ENDBRANCH   4   9
BRANCH   5  15
ATOM     15  O   LIG    1       26.717 -16.776   3.079  0.00  0.00    -0.423 OA
ATOM     16  H   LIG    1       26.110 -17.277   2.496  0.00  0.00    +0.326 HD
ENDBRANCH   5  15
TORSDOF 2
ENDMDL
MODEL 9
REMARK VINA RESULT:      -2.7      3.453      6.436
REMARK  Name = *****
REMARK                            x       y       z     vdW  Elec       q    Type
REMARK                         _______ _______ _______ _____ _____    ______ ____
ROOT
ATOM      1  C   LIG    1       25.880 -21.572   5.872  0.00  0.00    +0.044 C 
ATOM      2  C   LIG    1       24.713 -20.805   5.327  0.00  0.00    -0.043 C 
ATOM      3  C   LIG    1       24.977 -19.470   4.811  0.00  0.00    +0.028 C 
ATOM      4  C   LIG    1       23.990 -18.701   4.308  0.00  0.00    +0.065 C 
ATOM      5  N   LIG    1       22.717 -19.239   4.294  0.00  0.00    -0.151 N 
ATOM      6  C   LIG    1       22.356 -20.488   4.752  0.00  0.00    +0.284 C 
ATOM      7  O   LIG    1       21.206 -20.920   4.718  0.00  0.00    -0.265 OA
ATOM      8  C   LIG    1       23.465 -21.303   5.306  0.00  0.00    +0.076 C 
ENDROOT
BRANCH   4   9
ATOM      9  C   LIG    1       24.193 -17.296   3.743  0.00  0.00    +0.039 C 
ATOM     10  C   LIG    1       25.667 -16.854   3.618  0.00  0.00    +0.010 C 
ATOM     11  C   LIG    1       25.780 -15.457   3.010  0.00  0.00    +0.001 C 
ATOM     12  C   LIG    1       24.988 -14.433   3.817  0.00  0.00    +0.000 C 
ATOM     13  C   LIG    1       23.532 -14.855   3.984  0.00  0.00    +0.001 C 
ATOM     14  C   LIG    1       23.408 -16.261   4.571  0.00  0.00    +0.010 C 
ENDBRANCH   4   9
BRANCH   5  15
ATOM     15  O   LIG    1       21.678 -18.443   3.764  0.00  0.00    -0.423 OA
ATOM     16  H   LIG    1       22.187 -17.735   3.317  0.00  0.00    +0.326 HD
ENDBRANCH   5  15
TORSDOF 2
ENDMDL
