MODEL 1
REMARK VINA RESULT:      -2.8      0.000      0.000
REMARK  Name = *****
REMARK                            x       y       z     vdW  Elec       q    Type
REMARK                         _______ _______ _______ _____ _____    ______ ____
ROOT
ATOM      1  C   LIG    1       24.489 -12.413   4.155  0.00  0.00    +0.044 C 
ATOM      2  C   LIG    1       24.641 -13.893   3.943  0.00  0.00    -0.045 A 
ATOM      3  C   LIG    1       25.879 -14.472   3.625  0.00  0.00    -0.045 A 
ATOM      4  C   LIG    1       27.109 -13.630   3.426  0.00  0.00    +0.044 C 
ATOM      5  C   LIG    1       25.978 -15.872   3.505  0.00  0.00    +0.031 A 
ATOM      6  C   LIG    1       24.885 -16.719   3.741  0.00  0.00    +0.069 A 
ATOM      7  C   LIG    1       23.623 -16.109   3.943  0.00  0.00    +0.089 A 
ATOM      8  N   LIG    1       22.423 -16.841   4.004  0.00  0.00    -0.237 NA
ATOM      9  C   LIG    1       22.512 -18.134   4.049  0.00  0.00    +0.171 A 
ATOM     10  C   LIG    1       23.841 -18.843   4.170  0.00  0.00    +0.171 A 
ATOM     11  N   LIG    1       23.840 -20.057   4.634  0.00  0.00    -0.173 NA
ATOM     12  C   LIG    1       22.675 -20.664   5.033  0.00  0.00    +0.350 C 
ATOM     13  O   LIG    1       22.653 -21.566   5.855  0.00  0.00    -0.245 OA
ATOM     14  N   LIG    1       21.494 -20.250   4.475  0.00  0.00    -0.272 N 
ATOM     15  H   LIG    1       20.677 -20.782   4.728  0.00  0.00    +0.173 HD
ATOM     16  C   LIG    1       21.274 -18.983   4.042  0.00  0.00    +0.282 C 
ATOM     17  O   LIG    1       20.175 -18.553   3.714  0.00  0.00    -0.265 OA
ATOM     18  N   LIG    1       24.989 -18.134   3.813  0.00  0.00    -0.320 N 
ATOM     19  C   LIG    1       23.519 -14.720   4.059  0.00  0.00    +0.033 A 
ENDROOT
BRANCH  18  20
ATOM     20  C   LIG    1       26.320 -18.737   4.073  0.00  0.00    +0.158 C 
BRANCH  20  21
ATOM     21  C   LIG    1       26.234 -20.017   4.935  0.00  0.00    +0.165 C 
BRANCH  21  22
ATOM     22  O   LIG    1       26.564 -21.170   4.129  0.00  0.00    -0.387 OA
ATOM     23  H   LIG    1       26.503 -20.885   3.196  0.00  0.00    +0.210 HD
ENDBRANCH  21  22
BRANCH  21  24
ATOM     24  C   LIG    1       27.179 -20.042   6.175  0.00  0.00    +0.175 C 
BRANCH  24  25
ATOM     25  O   LIG    1       26.754 -21.095   7.062  0.00  0.00    -0.387 OA
ATOM     26  H   LIG    1       26.634 -20.699   7.946  0.00  0.00    +0.210 HD
ENDBRANCH  24  25
BRANCH  24  27
ATOM     27  C   LIG    1       28.683 -20.131   5.853  0.00  0.00    +0.171 C 
BRANCH  27  28
ATOM     28  O   LIG    1       29.310 -21.094   6.712  0.00  0.00    -0.387 OA
ATOM     29  H   LIG    1       30.071 -20.619   7.110  0.00  0.00    +0.210 HD
ENDBRANCH  27  28
BRANCH  27  30
ATOM     30  C   LIG    1       29.449 -18.810   6.034  0.00  0.00    +0.189 C 
BRANCH  30  31
ATOM     31  O   LIG    1       29.314 -18.064   4.813  0.00  0.00    -0.392 OA
ATOM     32  H   LIG    1       30.023 -17.395   4.794  0.00  0.00    +0.209 HD
ENDBRANCH  30  31
ENDBRANCH  27  30
ENDBRANCH  24  27
ENDBRANCH  21  24
ENDBRANCH  20  21
ENDBRANCH  18  20
TORSDOF 9
ENDMDL
MODEL 2
REMARK VINA RESULT:      -1.4      2.528      6.401
REMARK  Name = *****
REMARK                            x       y       z     vdW  Elec       q    Type
REMARK                         _______ _______ _______ _____ _____    ______ ____
ROOT
ATOM      1  C   LIG    1       29.466 -19.898   7.062  0.00  0.00    +0.044 C 
ATOM      2  C   LIG    1       28.545 -19.323   6.023  0.00  0.00    -0.045 A 
ATOM      3  C   LIG    1       27.535 -20.090   5.422  0.00  0.00    -0.045 A 
ATOM      4  C   LIG    1       27.360 -21.548   5.750  0.00  0.00    +0.044 C 
ATOM      5  C   LIG    1       26.657 -19.483   4.505  0.00  0.00    +0.031 A 
ATOM      6  C   LIG    1       26.724 -18.113   4.203  0.00  0.00    +0.069 A 
ATOM      7  C   LIG    1       27.820 -17.388   4.727  0.00  0.00    +0.089 A 
ATOM      8  N   LIG    1       28.107 -16.062   4.352  0.00  0.00    -0.237 NA
ATOM      9  C   LIG    1       27.227 -15.441   3.631  0.00  0.00    +0.171 A 
ATOM     10  C   LIG    1       25.881 -16.046   3.310  0.00  0.00    +0.171 A 
ATOM     11  N   LIG    1       24.918 -15.240   2.975  0.00  0.00    -0.173 NA
ATOM     12  C   LIG    1       25.107 -13.880   2.946  0.00  0.00    +0.350 C 
ATOM     13  O   LIG    1       24.190 -13.087   3.084  0.00  0.00    -0.245 OA
ATOM     14  N   LIG    1       26.373 -13.398   2.740  0.00  0.00    -0.272 N 
ATOM     15  H   LIG    1       26.452 -12.399   2.636  0.00  0.00    +0.173 HD
ATOM     16  C   LIG    1       27.497 -14.050   3.132  0.00  0.00    +0.282 C 
ATOM     17  O   LIG    1       28.615 -13.554   3.121  0.00  0.00    -0.265 OA
ATOM     18  N   LIG    1       25.746 -17.430   3.432  0.00  0.00    -0.320 N 
ATOM     19  C   LIG    1       28.697 -17.987   5.636  0.00  0.00    +0.033 A 
ENDROOT
BRANCH  18  20
ATOM     20  C   LIG    1       24.401 -18.041   3.286  0.00  0.00    +0.158 C 
BRANCH  20  21
ATOM     21  C   LIG    1       23.507 -17.811   4.525  0.00  0.00    +0.165 C 
BRANCH  21  22
ATOM     22  O   LIG    1       22.867 -16.518   4.430  0.00  0.00    -0.387 OA
ATOM     23  H   LIG    1       23.584 -15.857   4.358  0.00  0.00    +0.210 HD
ENDBRANCH  21  22
BRANCH  21  24
ATOM     24  C   LIG    1       22.376 -18.865   4.727  0.00  0.00    +0.175 C 
BRANCH  24  25
ATOM     25  O   LIG    1       21.331 -18.616   3.768  0.00  0.00    -0.387 OA
ATOM     26  H   LIG    1       20.483 -18.850   4.194  0.00  0.00    +0.210 HD
ENDBRANCH  24  25
BRANCH  24  27
ATOM     27  C   LIG    1       22.837 -20.335   4.708  0.00  0.00    +0.171 C 
BRANCH  27  28
ATOM     28  O   LIG    1       21.711 -21.203   4.903  0.00  0.00    -0.387 OA
ATOM     29  H   LIG    1       21.093 -20.981   4.174  0.00  0.00    +0.210 HD
ENDBRANCH  27  28
BRANCH  27  30
ATOM     30  C   LIG    1       23.865 -20.690   5.797  0.00  0.00    +0.189 C 
BRANCH  30  31
ATOM     31  O   LIG    1       23.185 -20.640   7.062  0.00  0.00    -0.392 OA
ATOM     32  H   LIG    1       22.445 -20.013   6.977  0.00  0.00    +0.209 HD
ENDBRANCH  30  31
ENDBRANCH  27  30
ENDBRANCH  24  27
ENDBRANCH  21  24
ENDBRANCH  20  21
ENDBRANCH  18  20
TORSDOF 9
ENDMDL
MODEL 3
REMARK VINA RESULT:      -1.4      2.121      4.808
REMARK  Name = *****
REMARK                            x       y       z     vdW  Elec       q    Type
REMARK                         _______ _______ _______ _____ _____    ______ ____
ROOT
ATOM      1  C   LIG    1       19.596 -18.947   3.687  0.00  0.00    +0.044 C 
ATOM      2  C   LIG    1       21.039 -18.594   3.910  0.00  0.00    -0.045 A 
ATOM      3  C   LIG    1       22.003 -19.570   4.206  0.00  0.00    -0.045 A 
ATOM      4  C   LIG    1       21.627 -21.018   4.370  0.00  0.00    +0.044 C 
ATOM      5  C   LIG    1       23.353 -19.193   4.339  0.00  0.00    +0.031 A 
ATOM      6  C   LIG    1       23.781 -17.872   4.135  0.00  0.00    +0.069 A 
ATOM      7  C   LIG    1       22.781 -16.887   3.956  0.00  0.00    +0.089 A 
ATOM      8  N   LIG    1       23.064 -15.509   3.928  0.00  0.00    -0.237 NA
ATOM      9  C   LIG    1       24.310 -15.154   3.895  0.00  0.00    +0.171 A 
ATOM     10  C   LIG    1       25.427 -16.161   3.751  0.00  0.00    +0.171 A 
ATOM     11  N   LIG    1       26.570 -15.738   3.300  0.00  0.00    -0.173 NA
ATOM     12  C   LIG    1       26.748 -14.427   2.933  0.00  0.00    +0.350 C 
ATOM     13  O   LIG    1       27.591 -14.081   2.121  0.00  0.00    -0.245 OA
ATOM     14  N   LIG    1       25.957 -13.470   3.513  0.00  0.00    -0.272 N 
ATOM     15  H   LIG    1       26.182 -12.515   3.283  0.00  0.00    +0.173 HD
ATOM     16  C   LIG    1       24.690 -13.702   3.938  0.00  0.00    +0.282 C 
ATOM     17  O   LIG    1       23.913 -12.822   4.286  0.00  0.00    -0.265 OA
ATOM     18  N   LIG    1       25.148 -17.490   4.075  0.00  0.00    -0.320 N 
ATOM     19  C   LIG    1       21.439 -17.256   3.827  0.00  0.00    +0.033 A 
ENDROOT
BRANCH  18  20
ATOM     20  C   LIG    1       26.167 -18.531   3.792  0.00  0.00    +0.158 C 
BRANCH  20  21
ATOM     21  C   LIG    1       26.064 -19.739   4.750  0.00  0.00    +0.165 C 
BRANCH  21  22
ATOM     22  O   LIG    1       26.350 -20.958   4.028  0.00  0.00    -0.387 OA
ATOM     23  H   LIG    1       27.184 -21.312   4.395  0.00  0.00    +0.210 HD
ENDBRANCH  21  22
BRANCH  21  24
ATOM     24  C   LIG    1       27.031 -19.696   5.972  0.00  0.00    +0.175 C 
BRANCH  24  25
ATOM     25  O   LIG    1       26.534 -20.587   6.989  0.00  0.00    -0.387 OA
ATOM     26  H   LIG    1       26.763 -21.496   6.716  0.00  0.00    +0.210 HD
ENDBRANCH  24  25
BRANCH  24  27
ATOM     27  C   LIG    1       28.513 -19.962   5.646  0.00  0.00    +0.171 C 
BRANCH  27  28
ATOM     28  O   LIG    1       28.937 -21.186   6.263  0.00  0.00    -0.387 OA
ATOM     29  H   LIG    1       29.016 -21.827   5.524  0.00  0.00    +0.210 HD
ENDBRANCH  27  28
BRANCH  27  30
ATOM     30  C   LIG    1       29.475 -18.864   6.132  0.00  0.00    +0.189 C 
BRANCH  30  31
ATOM     31  O   LIG    1       29.473 -17.822   5.142  0.00  0.00    -0.392 OA
ATOM     32  H   LIG    1       30.360 -17.418   5.136  0.00  0.00    +0.209 HD
ENDBRANCH  30  31
ENDBRANCH  27  30
ENDBRANCH  24  27
ENDBRANCH  21  24
ENDBRANCH  20  21
ENDBRANCH  18  20
TORSDOF 9
ENDMDL
MODEL 4
REMARK VINA RESULT:      -0.6      2.566      6.552
REMARK  Name = *****
REMARK                            x       y       z     vdW  Elec       q    Type
REMARK                         _______ _______ _______ _____ _____    ______ ____
ROOT
ATOM      1  C   LIG    1       21.016 -21.572   5.790  0.00  0.00    +0.044 C 
ATOM      2  C   LIG    1       22.233 -20.947   5.169  0.00  0.00    -0.045 A 
ATOM      3  C   LIG    1       22.155 -20.180   3.996  0.00  0.00    -0.045 A 
ATOM      4  C   LIG    1       20.852 -19.992   3.269  0.00  0.00    +0.044 C 
ATOM      5  C   LIG    1       23.316 -19.560   3.496  0.00  0.00    +0.031 A 
ATOM      6  C   LIG    1       24.550 -19.642   4.160  0.00  0.00    +0.069 A 
ATOM      7  C   LIG    1       24.631 -20.514   5.271  0.00  0.00    +0.089 A 
ATOM      8  N   LIG    1       25.847 -20.828   5.907  0.00  0.00    -0.237 NA
ATOM      9  C   LIG    1       26.896 -20.153   5.559  0.00  0.00    +0.171 A 
ATOM     10  C   LIG    1       26.817 -18.978   4.611  0.00  0.00    +0.171 A 
ATOM     11  N   LIG    1       27.781 -18.107   4.644  0.00  0.00    -0.173 NA
ATOM     12  C   LIG    1       28.821 -18.230   5.531  0.00  0.00    +0.350 C 
ATOM     13  O   LIG    1       29.475 -17.274   5.914  0.00  0.00    -0.245 OA
ATOM     14  N   LIG    1       29.144 -19.479   5.994  0.00  0.00    -0.272 N 
ATOM     15  H   LIG    1       29.968 -19.535   6.571  0.00  0.00    +0.173 HD
ATOM     16  C   LIG    1       28.241 -20.482   6.140  0.00  0.00    +0.282 C 
ATOM     17  O   LIG    1       28.475 -21.534   6.719  0.00  0.00    -0.265 OA
ATOM     18  N   LIG    1       25.692 -18.882   3.790  0.00  0.00    -0.320 N 
ATOM     19  C   LIG    1       23.482 -21.134   5.770  0.00  0.00    +0.033 A 
ENDROOT
BRANCH  18  20
ATOM     20  C   LIG    1       25.500 -17.661   2.969  0.00  0.00    +0.158 C 
BRANCH  20  21
ATOM     21  C   LIG    1       25.856 -16.367   3.735  0.00  0.00    +0.165 C 
BRANCH  21  22
ATOM     22  O   LIG    1       27.116 -15.847   3.252  0.00  0.00    -0.387 OA
ATOM     23  H   LIG    1       27.344 -16.365   2.455  0.00  0.00    +0.210 HD
ENDBRANCH  21  22
BRANCH  21  24
ATOM     24  C   LIG    1       24.811 -15.218   3.612  0.00  0.00    +0.175 C 
BRANCH  24  25
ATOM     25  O   LIG    1       23.638 -15.573   4.369  0.00  0.00    -0.387 OA
ATOM     26  H   LIG    1       23.927 -15.763   5.282  0.00  0.00    +0.210 HD
ENDBRANCH  24  25
BRANCH  24  27
ATOM     27  C   LIG    1       25.332 -13.815   3.980  0.00  0.00    +0.171 C 
BRANCH  27  28
ATOM     28  O   LIG    1       26.202 -13.900   5.117  0.00  0.00    -0.387 OA
ATOM     29  H   LIG    1       26.537 -14.823   5.111  0.00  0.00    +0.210 HD
ENDBRANCH  27  28
BRANCH  27  30
ATOM     30  C   LIG    1       24.229 -12.804   4.339  0.00  0.00    +0.189 C 
BRANCH  30  31
ATOM     31  O   LIG    1       23.759 -12.226   3.110  0.00  0.00    -0.392 OA
ATOM     32  H   LIG    1       23.494 -12.956   2.521  0.00  0.00    +0.209 HD
ENDBRANCH  30  31
ENDBRANCH  27  30
ENDBRANCH  24  27
ENDBRANCH  21  24
ENDBRANCH  20  21
ENDBRANCH  18  20
TORSDOF 9
ENDMDL
