MODEL 1
REMARK VINA RESULT:      -3.3      0.000      0.000
REMARK  Name = *****
REMARK                            x       y       z     vdW  Elec       q    Type
REMARK                         _______ _______ _______ _____ _____    ______ ____
ROOT
ATOM      1  C   LIG    1       27.052 -15.277   2.963  0.00  0.00    +0.064 C 
ATOM      2  C   LIG    1       25.850 -16.110   3.323  0.00  0.00    +0.024 C 
ATOM      3  C   LIG    1       24.629 -15.645   3.678  0.00  0.00    +0.003 C 
ATOM      4  C   LIG    1       23.586 -16.608   4.019  0.00  0.00    +0.034 C 
ATOM      5  C   LIG    1       23.791 -17.936   3.992  0.00  0.00    +0.117 C 
ATOM      6  C   LIG    1       25.131 -18.435   3.588  0.00  0.00    +0.266 C 
ATOM      7  O   LIG    1       25.406 -19.629   3.529  0.00  0.00    -0.267 OA
ATOM      8  N   LIG    1       26.065 -17.475   3.284  0.00  0.00    -0.325 N 
ATOM      9  H   LIG    1       26.976 -17.834   3.017  0.00  0.00    +0.169 HD
ENDROOT
BRANCH   3  10
ATOM     10  C   LIG    1       24.349 -14.197   3.728  0.00  0.00    -0.013 A 
ATOM     11  C   LIG    1       24.280 -13.529   4.951  0.00  0.00    +0.028 A 
ATOM     12  C   LIG    1       24.028 -12.168   4.941  0.00  0.00    +0.111 A 
ATOM     13  N   LIG    1       23.852 -11.447   3.814  0.00  0.00    -0.263 NA
ATOM     14  C   LIG    1       23.934 -12.113   2.642  0.00  0.00    +0.111 A 
ATOM     15  C   LIG    1       24.179 -13.473   2.547  0.00  0.00    +0.028 A 
ENDBRANCH   3  10
BRANCH   5  16
ATOM     16  C   LIG    1       22.783 -18.847   4.352  0.00  0.00    +0.105 C 
ATOM     17  N   LIG    1       21.957 -19.593   4.647  0.00  0.00    -0.191 NA
ENDBRANCH   5  16
TORSDOF 2
ENDMDL
MODEL 2
REMARK VINA RESULT:      -2.9      2.440      5.600
REMARK  Name = *****
REMARK                            x       y       z     vdW  Elec       q    Type
REMARK                         _______ _______ _______ _____ _____    ______ ____
ROOT
ATOM      1  C   LIG    1       28.062 -17.640   4.509  0.00  0.00    +0.064 C 
ATOM      2  C   LIG    1       27.241 -16.493   3.982  0.00  0.00    +0.024 C 
ATOM      3  C   LIG    1       25.950 -16.552   3.576  0.00  0.00    +0.003 C 
ATOM      4  C   LIG    1       25.322 -15.336   3.068  0.00  0.00    +0.034 C 
ATOM      5  C   LIG    1       25.974 -14.162   2.991  0.00  0.00    +0.117 C 
ATOM      6  C   LIG    1       27.385 -14.107   3.452  0.00  0.00    +0.266 C 
ATOM      7  O   LIG    1       28.054 -13.080   3.425  0.00  0.00    -0.267 OA
ATOM      8  N   LIG    1       27.914 -15.288   3.914  0.00  0.00    -0.325 N 
ATOM      9  H   LIG    1       28.880 -15.233   4.218  0.00  0.00    +0.169 HD
ENDROOT
BRANCH   3  10
ATOM     10  C   LIG    1       25.187 -17.813   3.635  0.00  0.00    -0.013 A 
ATOM     11  C   LIG    1       25.827 -19.040   3.444  0.00  0.00    +0.028 A 
ATOM     12  C   LIG    1       25.067 -20.193   3.524  0.00  0.00    +0.111 A 
ATOM     13  N   LIG    1       23.743 -20.202   3.784  0.00  0.00    -0.263 NA
ATOM     14  C   LIG    1       23.149 -19.005   3.977  0.00  0.00    +0.111 A 
ATOM     15  C   LIG    1       23.820 -17.795   3.914  0.00  0.00    +0.028 A 
ENDBRANCH   3  10
BRANCH   5  16
ATOM     16  C   LIG    1       25.360 -13.009   2.473  0.00  0.00    +0.105 C 
ATOM     17  N   LIG    1       24.857 -12.064   2.048  0.00  0.00    -0.191 NA
ENDBRANCH   5  16
TORSDOF 2
ENDMDL
MODEL 3
REMARK VINA RESULT:      -2.9      2.490      5.970
REMARK  Name = *****
REMARK                            x       y       z     vdW  Elec       q    Type
REMARK                         _______ _______ _______ _____ _____    ______ ____
ROOT
ATOM      1  C   LIG    1       21.959 -16.363   4.873  0.00  0.00    +0.064 C 
ATOM      2  C   LIG    1       23.299 -15.900   4.368  0.00  0.00    +0.024 C 
ATOM      3  C   LIG    1       24.312 -16.691   3.942  0.00  0.00    +0.003 C 
ATOM      4  C   LIG    1       25.556 -16.061   3.509  0.00  0.00    +0.034 C 
ATOM      5  C   LIG    1       25.732 -14.728   3.515  0.00  0.00    +0.117 C 
ATOM      6  C   LIG    1       24.609 -13.869   3.972  0.00  0.00    +0.266 C 
ATOM      7  O   LIG    1       24.678 -12.646   4.005  0.00  0.00    -0.267 OA
ATOM      8  N   LIG    1       23.470 -14.528   4.368  0.00  0.00    -0.325 N 
ATOM      9  H   LIG    1       22.717 -13.926   4.684  0.00  0.00    +0.169 HD
ENDROOT
BRANCH   3  10
ATOM     10  C   LIG    1       24.175 -18.160   3.916  0.00  0.00    -0.013 A 
ATOM     11  C   LIG    1       25.251 -18.967   3.542  0.00  0.00    +0.028 A 
ATOM     12  C   LIG    1       25.073 -20.339   3.549  0.00  0.00    +0.111 A 
ATOM     13  N   LIG    1       23.920 -20.944   3.904  0.00  0.00    -0.263 NA
ATOM     14  C   LIG    1       22.898 -20.143   4.273  0.00  0.00    +0.111 A 
ATOM     15  C   LIG    1       22.974 -18.760   4.297  0.00  0.00    +0.028 A 
ENDBRANCH   3  10
BRANCH   5  16
ATOM     16  C   LIG    1       26.948 -14.141   3.121  0.00  0.00    +0.105 C 
ATOM     17  N   LIG    1       27.943 -13.661   2.798  0.00  0.00    -0.191 NA
ENDBRANCH   5  16
TORSDOF 2
ENDMDL
MODEL 4
REMARK VINA RESULT:      -2.7      2.228      3.155
REMARK  Name = *****
REMARK                            x       y       z     vdW  Elec       q    Type
REMARK                         _______ _______ _______ _____ _____    ______ ____
ROOT
ATOM      1  C   LIG    1       23.108 -14.490   4.582  0.00  0.00    +0.064 C 
ATOM      2  C   LIG    1       23.571 -15.887   4.264  0.00  0.00    +0.024 C 
ATOM      3  C   LIG    1       24.783 -16.237   3.770  0.00  0.00    +0.003 C 
ATOM      4  C   LIG    1       25.047 -17.647   3.499  0.00  0.00    +0.034 C 
ATOM      5  C   LIG    1       24.135 -18.610   3.724  0.00  0.00    +0.117 C 
ATOM      6  C   LIG    1       22.815 -18.216   4.278  0.00  0.00    +0.266 C 
ATOM      7  O   LIG    1       21.926 -19.026   4.519  0.00  0.00    -0.267 OA
ATOM      8  N   LIG    1       22.633 -16.873   4.506  0.00  0.00    -0.325 N 
ATOM      9  H   LIG    1       21.723 -16.622   4.877  0.00  0.00    +0.169 HD
ENDROOT
BRANCH   3  10
ATOM     10  C   LIG    1       25.820 -15.222   3.503  0.00  0.00    -0.013 A 
ATOM     11  C   LIG    1       25.556 -14.143   2.657  0.00  0.00    +0.028 A 
ATOM     12  C   LIG    1       26.560 -13.212   2.451  0.00  0.00    +0.111 A 
ATOM     13  N   LIG    1       27.778 -13.284   3.027  0.00  0.00    -0.263 NA
ATOM     14  C   LIG    1       28.005 -14.330   3.850  0.00  0.00    +0.111 A 
ATOM     15  C   LIG    1       27.069 -15.314   4.118  0.00  0.00    +0.028 A 
ENDBRANCH   3  10
BRANCH   5  16
ATOM     16  C   LIG    1       24.398 -19.959   3.429  0.00  0.00    +0.105 C 
ATOM     17  N   LIG    1       24.613 -21.064   3.188  0.00  0.00    -0.191 NA
ENDBRANCH   5  16
TORSDOF 2
ENDMDL
MODEL 5
REMARK VINA RESULT:      -2.6      2.084      5.307
REMARK  Name = *****
REMARK                            x       y       z     vdW  Elec       q    Type
REMARK                         _______ _______ _______ _____ _____    ______ ____
ROOT
ATOM      1  C   LIG    1       26.924 -17.465   3.373  0.00  0.00    +0.064 C 
ATOM      2  C   LIG    1       26.084 -16.219   3.458  0.00  0.00    +0.024 C 
ATOM      3  C   LIG    1       24.758 -16.163   3.725  0.00  0.00    +0.003 C 
ATOM      4  C   LIG    1       24.102 -14.858   3.742  0.00  0.00    +0.034 C 
ATOM      5  C   LIG    1       24.765 -13.712   3.507  0.00  0.00    +0.117 C 
ATOM      6  C   LIG    1       26.223 -13.785   3.229  0.00  0.00    +0.266 C 
ATOM      7  O   LIG    1       26.908 -12.792   3.009  0.00  0.00    -0.267 OA
ATOM      8  N   LIG    1       26.774 -15.044   3.225  0.00  0.00    -0.325 N 
ATOM      9  H   LIG    1       27.768 -15.074   3.026  0.00  0.00    +0.169 HD
ENDROOT
BRANCH   3  10
ATOM     10  C   LIG    1       23.979 -17.389   3.988  0.00  0.00    -0.013 A 
ATOM     11  C   LIG    1       22.677 -17.310   4.485  0.00  0.00    +0.028 A 
ATOM     12  C   LIG    1       21.986 -18.489   4.700  0.00  0.00    +0.111 A 
ATOM     13  N   LIG    1       22.497 -19.714   4.452  0.00  0.00    -0.263 NA
ATOM     14  C   LIG    1       23.754 -19.764   3.962  0.00  0.00    +0.111 A 
ATOM     15  C   LIG    1       24.528 -18.642   3.714  0.00  0.00    +0.028 A 
ENDBRANCH   3  10
BRANCH   5  16
ATOM     16  C   LIG    1       24.111 -12.468   3.499  0.00  0.00    +0.105 C 
ATOM     17  N   LIG    1       23.575 -11.449   3.493  0.00  0.00    -0.191 NA
ENDBRANCH   5  16
TORSDOF 2
ENDMDL
MODEL 6
REMARK VINA RESULT:      -2.6      1.806      2.085
REMARK  Name = *****
REMARK                            x       y       z     vdW  Elec       q    Type
REMARK                         _______ _______ _______ _____ _____    ______ ____
ROOT
ATOM      1  C   LIG    1       28.085 -13.717   4.350  0.00  0.00    +0.064 C 
ATOM      2  C   LIG    1       27.301 -14.967   4.052  0.00  0.00    +0.024 C 
ATOM      3  C   LIG    1       26.030 -15.025   3.587  0.00  0.00    +0.003 C 
ATOM      4  C   LIG    1       25.421 -16.335   3.379  0.00  0.00    +0.034 C 
ATOM      5  C   LIG    1       26.073 -17.484   3.628  0.00  0.00    +0.117 C 
ATOM      6  C   LIG    1       27.471 -17.409   4.124  0.00  0.00    +0.266 C 
ATOM      7  O   LIG    1       28.144 -18.404   4.372  0.00  0.00    -0.267 OA
ATOM      8  N   LIG    1       27.980 -16.145   4.300  0.00  0.00    -0.325 N 
ATOM      9  H   LIG    1       28.933 -16.113   4.646  0.00  0.00    +0.169 HD
ENDROOT
BRANCH   3  10
ATOM     10  C   LIG    1       25.266 -13.796   3.300  0.00  0.00    -0.013 A 
ATOM     11  C   LIG    1       24.509 -13.180   4.299  0.00  0.00    +0.028 A 
ATOM     12  C   LIG    1       23.823 -12.022   3.979  0.00  0.00    +0.111 A 
ATOM     13  N   LIG    1       23.848 -11.448   2.758  0.00  0.00    -0.263 NA
ATOM     14  C   LIG    1       24.596 -12.055   1.812  0.00  0.00    +0.111 A 
ATOM     15  C   LIG    1       25.316 -13.218   2.031  0.00  0.00    +0.028 A 
ENDBRANCH   3  10
BRANCH   5  16
ATOM     16  C   LIG    1       25.459 -18.736   3.449  0.00  0.00    +0.105 C 
ATOM     17  N   LIG    1       24.957 -19.762   3.302  0.00  0.00    -0.191 NA
ENDBRANCH   5  16
TORSDOF 2
ENDMDL
MODEL 7
REMARK VINA RESULT:      -2.5      2.075      5.335
REMARK  Name = *****
REMARK                            x       y       z     vdW  Elec       q    Type
REMARK                         _______ _______ _______ _____ _____    ______ ____
ROOT
ATOM      1  C   LIG    1       26.773 -17.519   3.313  0.00  0.00    +0.064 C 
ATOM      2  C   LIG    1       25.964 -16.260   3.482  0.00  0.00    +0.024 C 
ATOM      3  C   LIG    1       24.648 -16.190   3.796  0.00  0.00    +0.003 C 
ATOM      4  C   LIG    1       24.023 -14.874   3.894  0.00  0.00    +0.034 C 
ATOM      5  C   LIG    1       24.703 -13.732   3.687  0.00  0.00    +0.117 C 
ATOM      6  C   LIG    1       26.148 -13.822   3.357  0.00  0.00    +0.266 C 
ATOM      7  O   LIG    1       26.848 -12.835   3.159  0.00  0.00    -0.267 OA
ATOM      8  N   LIG    1       26.671 -15.091   3.278  0.00  0.00    -0.325 N 
ATOM      9  H   LIG    1       27.657 -15.132   3.044  0.00  0.00    +0.169 HD
ENDROOT
BRANCH   3  10
ATOM     10  C   LIG    1       23.853 -17.410   4.031  0.00  0.00    -0.013 A 
ATOM     11  C   LIG    1       24.412 -18.673   3.828  0.00  0.00    +0.028 A 
ATOM     12  C   LIG    1       23.627 -19.784   4.077  0.00  0.00    +0.111 A 
ATOM     13  N   LIG    1       22.351 -19.719   4.512  0.00  0.00    -0.263 NA
ATOM     14  C   LIG    1       21.835 -18.487   4.711  0.00  0.00    +0.111 A 
ATOM     15  C   LIG    1       22.538 -17.314   4.489  0.00  0.00    +0.028 A 
ENDBRANCH   3  10
BRANCH   5  16
ATOM     16  C   LIG    1       24.076 -12.476   3.758  0.00  0.00    +0.105 C 
ATOM     17  N   LIG    1       23.563 -11.447   3.816  0.00  0.00    -0.191 NA
ENDBRANCH   5  16
TORSDOF 2
ENDMDL
MODEL 8
REMARK VINA RESULT:      -1.4      2.186      2.820
REMARK  Name = *****
REMARK                            x       y       z     vdW  Elec       q    Type
REMARK                         _______ _______ _______ _____ _____    ______ ____
ROOT
ATOM      1  C   LIG    1       28.701 -17.689   4.570  0.00  0.00    +0.064 C 
ATOM      2  C   LIG    1       27.251 -17.988   4.297  0.00  0.00    +0.024 C 
ATOM      3  C   LIG    1       26.326 -17.115   3.833  0.00  0.00    +0.003 C 
ATOM      4  C   LIG    1       24.954 -17.580   3.652  0.00  0.00    +0.034 C 
ATOM      5  C   LIG    1       24.576 -18.842   3.925  0.00  0.00    +0.117 C 
ATOM      6  C   LIG    1       25.602 -19.794   4.420  0.00  0.00    +0.266 C 
ATOM      7  O   LIG    1       25.350 -20.964   4.688  0.00  0.00    -0.267 OA
ATOM      8  N   LIG    1       26.871 -19.289   4.570  0.00  0.00    -0.325 N 
ATOM      9  H   LIG    1       27.557 -19.952   4.916  0.00  0.00    +0.169 HD
ENDROOT
BRANCH   3  10
ATOM     10  C   LIG    1       26.684 -15.718   3.520  0.00  0.00    -0.013 A 
ATOM     11  C   LIG    1       25.912 -14.970   2.629  0.00  0.00    +0.028 A 
ATOM     12  C   LIG    1       26.284 -13.660   2.382  0.00  0.00    +0.111 A 
ATOM     13  N   LIG    1       27.348 -13.061   2.957  0.00  0.00    -0.263 NA
ATOM     14  C   LIG    1       28.072 -13.801   3.824  0.00  0.00    +0.111 A 
ATOM     15  C   LIG    1       27.784 -15.119   4.136  0.00  0.00    +0.028 A 
ENDBRANCH   3  10
BRANCH   5  16
ATOM     16  C   LIG    1       23.244 -19.263   3.771  0.00  0.00    +0.105 C 
ATOM     17  N   LIG    1       22.153 -19.608   3.645  0.00  0.00    -0.191 NA
ENDBRANCH   5  16
TORSDOF 2
ENDMDL
MODEL 9
REMARK VINA RESULT:      -0.7      4.246      5.978
REMARK  Name = *****
REMARK                            x       y       z     vdW  Elec       q    Type
REMARK                         _______ _______ _______ _____ _____    ______ ____
ROOT
ATOM      1  C   LIG    1       23.107 -21.572   6.881  0.00  0.00    +0.064 C 
ATOM      2  C   LIG    1       24.321 -20.874   6.327  0.00  0.00    +0.024 C 
ATOM      3  C   LIG    1       24.328 -19.920   5.366  0.00  0.00    +0.003 C 
ATOM      4  C   LIG    1       25.611 -19.372   4.936  0.00  0.00    +0.034 C 
ATOM      5  C   LIG    1       26.783 -19.775   5.459  0.00  0.00    +0.117 C 
ATOM      6  C   LIG    1       26.761 -20.812   6.522  0.00  0.00    +0.266 C 
ATOM      7  O   LIG    1       27.778 -21.235   7.060  0.00  0.00    -0.267 OA
ATOM      8  N   LIG    1       25.520 -21.286   6.876  0.00  0.00    -0.325 N 
ATOM      9  H   LIG    1       25.526 -21.998   7.598  0.00  0.00    +0.169 HD
ENDROOT
BRANCH   3  10
ATOM     10  C   LIG    1       23.073 -19.442   4.755  0.00  0.00    -0.013 A 
ATOM     11  C   LIG    1       22.016 -20.323   4.523  0.00  0.00    +0.028 A 
ATOM     12  C   LIG    1       20.856 -19.819   3.960  0.00  0.00    +0.111 A 
ATOM     13  N   LIG    1       20.685 -18.522   3.629  0.00  0.00    -0.263 NA
ATOM     14  C   LIG    1       21.718 -17.687   3.874  0.00  0.00    +0.111 A 
ATOM     15  C   LIG    1       22.919 -18.093   4.430  0.00  0.00    +0.028 A 
ENDBRANCH   3  10
BRANCH   5  16
ATOM     16  C   LIG    1       28.010 -19.255   5.011  0.00  0.00    +0.105 C 
ATOM     17  N   LIG    1       29.015 -18.830   4.644  0.00  0.00    -0.191 NA
ENDBRANCH   5  16
TORSDOF 2
ENDMDL
