MODEL 1
REMARK VINA RESULT:      10.7      0.000      0.000
REMARK  Name = *****
REMARK                            x       y       z     vdW  Elec       q    Type
REMARK                         _______ _______ _______ _____ _____    ______ ____
ROOT
ATOM      1  C   LIG    1       25.831 -27.726  14.200  0.00  0.00    +0.078 C 
ATOM      2  C   LIG    1       26.775 -26.641  13.637  0.00  0.00    +0.142 C 
ATOM      3  O   LIG    1       26.713 -25.482  14.070  0.00  0.00    -0.297 OA
ATOM      4  C   LIG    1       27.774 -26.941  12.534  0.00  0.00    +0.106 C 
ATOM      5  C   LIG    1       27.211 -27.559  11.252  0.00  0.00    +0.128 C 
ATOM      6  C   LIG    1       26.808 -26.589  10.111  0.00  0.00    +0.060 C 
ATOM      7  C   LIG    1       26.004 -25.375  10.599  0.00  0.00    +0.014 C 
ATOM      8  C   LIG    1       25.999 -27.314   8.959  0.00  0.00    +0.207 C 
ATOM      9  O   LIG    1       26.367 -28.702   8.857  0.00  0.00    -0.455 OA
ATOM     10  C   LIG    1       25.366 -29.613   8.782  0.00  0.00    +0.328 C 
ATOM     11  O   LIG    1       24.166 -29.309   8.667  0.00  0.00    -0.249 OA
ATOM     12  C   LIG    1       25.907 -31.036   8.979  0.00  0.00    +0.185 C 
ATOM     13  N   LIG    1       25.294 -32.239   8.360  0.00  0.00    -0.281 N 
ATOM     14  C   LIG    1       26.239 -33.361   8.346  0.00  0.00    +0.109 C 
ATOM     15  C   LIG    1       26.588 -33.770   9.782  0.00  0.00    +0.019 C 
ATOM     16  C   LIG    1       27.077 -32.572  10.604  0.00  0.00    +0.004 C 
ATOM     17  C   LIG    1       23.953 -32.637   8.543  0.00  0.00    +0.288 C 
ATOM     18  O   LIG    1       23.630 -33.825   8.594  0.00  0.00    -0.267 OA
ATOM     19  C   LIG    1       22.806 -31.648   8.506  0.00  0.00    +0.276 C 
ATOM     20  O   LIG    1       22.500 -31.163   7.413  0.00  0.00    -0.281 OA
ATOM     21  C   LIG    1       21.931 -31.448   9.790  0.00  0.00    +0.240 C 
ATOM     22  C   LIG    1       21.815 -32.718  10.662  0.00  0.00    +0.056 C 
ATOM     23  C   LIG    1       20.949 -33.825  10.038  0.00  0.00    +0.013 C 
ATOM     24  C   LIG    1       21.244 -32.426  12.052  0.00  0.00    +0.043 C 
ATOM     25  C   LIG    1       21.945 -31.241  12.705  0.00  0.00    +0.150 C 
ATOM     26  C   LIG    1       21.852 -29.993  11.802  0.00  0.00    +0.179 C 
ATOM     27  C   LIG    1       20.497 -29.214  11.624  0.00  0.00    +0.149 C 
ATOM     28  C   LIG    1       20.639 -27.664  11.636  0.00  0.00    +0.038 C 
ATOM     29  C   LIG    1       20.900 -26.809  12.908  0.00  0.00    -0.008 C 
ATOM     30  C   LIG    1       20.174 -27.188  14.189  0.00  0.00    +0.008 C 
ATOM     31  C   LIG    1       22.369 -26.363  13.078  0.00  0.00    +0.033 C 
ATOM     32  C   LIG    1       23.359 -27.019  14.026  0.00  0.00    -0.076 C 
ATOM     33  C   LIG    1       23.108 -26.834  15.500  0.00  0.00    +0.038 C 
ATOM     34  O   LIG    1       22.468 -30.331  10.524  0.00  0.00    -0.334 OA
ATOM     35  C   LIG    1       26.168 -31.341  10.456  0.00  0.00    +0.034 C 
ATOM     36  C   LIG    1       24.511 -27.487  13.502  0.00  0.00    -0.017 C 
ENDROOT
BRANCH   8  37
ATOM     37  C   LIG    1       26.151 -26.703   7.558  0.00  0.00    -0.036 C 
ATOM     38  C   LIG    1       26.067 -25.374   7.336  0.00  0.00    -0.021 C 
ATOM     39  C   LIG    1       26.491 -27.701   6.479  0.00  0.00    +0.042 C 
BRANCH  38  40
ATOM     40  C   LIG    1       26.160 -24.624   6.026  0.00  0.00    +0.014 C 
ATOM     41  C   LIG    1       24.813 -24.586   5.263  0.00  0.00    +0.040 C 
ATOM     42  C   LIG    1       23.773 -23.606   5.842  0.00  0.00    +0.136 C 
ATOM     43  C   LIG    1       24.419 -22.210   5.973  0.00  0.00    +0.109 C 
ATOM     44 CL   LIG    1       23.262 -21.009   6.627  0.00  0.00    -0.119 Cl
ATOM     45  C   LIG    1       25.681 -22.240   6.835  0.00  0.00    +0.022 C 
ATOM     46  C   LIG    1       26.712 -23.209   6.253  0.00  0.00    +0.009 C 
BRANCH  42  47
ATOM     47  O   LIG    1       23.266 -24.039   7.113  0.00  0.00    -0.378 OA
ATOM     48  C   LIG    1       21.906 -23.695   7.347  0.00  0.00    +0.194 C 
ENDBRANCH  42  47
ENDBRANCH  38  40
ENDBRANCH   8  37
BRANCH   1  50
ATOM     49  C   LIG    1       25.551 -30.011  13.120  0.00  0.00    +0.005 C 
ATOM     50  C   LIG    1       26.329 -29.174  14.131  0.00  0.00    +0.011 C 
ENDBRANCH   1  50
BRANCH   5  51
ATOM     51  O   LIG    1       28.235 -28.448  10.772  0.00  0.00    -0.391 OA
ATOM     52  H   LIG    1       29.059 -28.257  11.257  0.00  0.00    +0.210 HD
ENDBRANCH   5  51
BRANCH  27  53
ATOM     53  O   LIG    1       19.436 -29.633  12.485  0.00  0.00    -0.377 OA
ATOM     54  C   LIG    1       18.707 -30.743  11.957  0.00  0.00    +0.194 C 
ENDBRANCH  27  53
BRANCH  25  55
ATOM     55  O   LIG    1       21.513 -31.004  14.042  0.00  0.00    -0.377 OA
ATOM     56  C   LIG    1       22.552 -31.161  15.006  0.00  0.00    +0.194 C 
ENDBRANCH  25  55
BRANCH  21  57
ATOM     57  O   LIG    1       20.624 -31.112   9.313  0.00  0.00    -0.358 OA
ATOM     58  H   LIG    1       20.096 -30.931  10.117  0.00  0.00    +0.213 HD
ENDBRANCH  21  57
TORSDOF 8
ENDMDL
MODEL 2
REMARK VINA RESULT:      11.1      2.016      3.758
REMARK  Name = *****
REMARK                            x       y       z     vdW  Elec       q    Type
REMARK                         _______ _______ _______ _____ _____    ______ ____
ROOT
ATOM      1  C   LIG    1       27.393 -30.383  12.179  0.00  0.00    +0.078 C 
ATOM      2  C   LIG    1       28.215 -30.114  10.900  0.00  0.00    +0.142 C 
ATOM      3  O   LIG    1       29.223 -29.395  10.952  0.00  0.00    -0.297 OA
ATOM      4  C   LIG    1       27.811 -30.685   9.552  0.00  0.00    +0.106 C 
ATOM      5  C   LIG    1       26.389 -30.377   9.078  0.00  0.00    +0.128 C 
ATOM      6  C   LIG    1       26.190 -29.122   8.188  0.00  0.00    +0.060 C 
ATOM      7  C   LIG    1       26.934 -27.883   8.706  0.00  0.00    +0.014 C 
ATOM      8  C   LIG    1       24.662 -28.760   7.987  0.00  0.00    +0.207 C 
ATOM      9  O   LIG    1       23.832 -29.933   8.068  0.00  0.00    -0.455 OA
ATOM     10  C   LIG    1       22.726 -29.868   8.849  0.00  0.00    +0.328 C 
ATOM     11  O   LIG    1       22.326 -28.822   9.389  0.00  0.00    -0.249 OA
ATOM     12  C   LIG    1       22.126 -31.265   9.063  0.00  0.00    +0.185 C 
ATOM     13  N   LIG    1       20.678 -31.510   9.281  0.00  0.00    -0.281 N 
ATOM     14  C   LIG    1       20.336 -32.910   9.015  0.00  0.00    +0.109 C 
ATOM     15  C   LIG    1       21.063 -33.825  10.010  0.00  0.00    +0.019 C 
ATOM     16  C   LIG    1       22.571 -33.556  10.021  0.00  0.00    +0.004 C 
ATOM     17  C   LIG    1       19.917 -30.934  10.320  0.00  0.00    +0.288 C 
ATOM     18  O   LIG    1       19.003 -31.549  10.872  0.00  0.00    -0.267 OA
ATOM     19  C   LIG    1       20.048 -29.474  10.704  0.00  0.00    +0.276 C 
ATOM     20  O   LIG    1       19.594 -28.633   9.923  0.00  0.00    -0.281 OA
ATOM     21  C   LIG    1       20.547 -29.106  12.142  0.00  0.00    +0.240 C 
ATOM     22  C   LIG    1       20.152 -30.144  13.218  0.00  0.00    +0.056 C 
ATOM     23  C   LIG    1       18.652 -30.152  13.554  0.00  0.00    +0.013 C 
ATOM     24  C   LIG    1       20.911 -29.945  14.532  0.00  0.00    +0.043 C 
ATOM     25  C   LIG    1       22.406 -29.781  14.293  0.00  0.00    +0.150 C 
ATOM     26  C   LIG    1       22.675 -28.610  13.324  0.00  0.00    +0.179 C 
ATOM     27  C   LIG    1       22.487 -27.116  13.780  0.00  0.00    +0.149 C 
ATOM     28  C   LIG    1       23.602 -26.148  13.286  0.00  0.00    +0.038 C 
ATOM     29  C   LIG    1       25.043 -26.087  13.866  0.00  0.00    -0.008 C 
ATOM     30  C   LIG    1       25.216 -26.216  15.372  0.00  0.00    +0.008 C 
ATOM     31  C   LIG    1       26.100 -26.812  13.006  0.00  0.00    +0.033 C 
ATOM     32  C   LIG    1       26.660 -28.191  13.318  0.00  0.00    -0.076 C 
ATOM     33  C   LIG    1       27.539 -28.304  14.536  0.00  0.00    +0.038 C 
ATOM     34  O   LIG    1       21.971 -28.901  12.080  0.00  0.00    -0.334 OA
ATOM     35  C   LIG    1       22.907 -32.059  10.114  0.00  0.00    +0.034 C 
ATOM     36  C   LIG    1       26.552 -29.140  12.365  0.00  0.00    -0.017 C 
ENDROOT
BRANCH   8  37
ATOM     37  C   LIG    1       24.317 -28.053   6.668  0.00  0.00    -0.036 C 
ATOM     38  C   LIG    1       24.325 -26.708   6.545  0.00  0.00    -0.021 C 
ATOM     39  C   LIG    1       24.064 -28.986   5.511  0.00  0.00    +0.042 C 
BRANCH  38  40
ATOM     40  C   LIG    1       23.981 -25.864   5.338  0.00  0.00    +0.014 C 
ATOM     41  C   LIG    1       23.162 -24.603   5.705  0.00  0.00    +0.040 C 
ATOM     42  C   LIG    1       23.981 -23.472   6.361  0.00  0.00    +0.136 C 
ATOM     43  C   LIG    1       25.197 -23.151   5.465  0.00  0.00    +0.109 C 
ATOM     44 CL   LIG    1       26.191 -21.831   6.155  0.00  0.00    -0.119 Cl
ATOM     45  C   LIG    1       26.067 -24.382   5.213  0.00  0.00    +0.022 C 
ATOM     46  C   LIG    1       25.251 -25.497   4.557  0.00  0.00    +0.009 C 
BRANCH  42  47
ATOM     47  O   LIG    1       24.419 -23.815   7.685  0.00  0.00    -0.378 OA
ATOM     48  C   LIG    1       24.864 -22.707   8.457  0.00  0.00    +0.194 C 
ENDBRANCH  42  47
ENDBRANCH  38  40
ENDBRANCH   8  37
BRANCH   1  50
ATOM     49  C   LIG    1       25.219 -31.520  12.848  0.00  0.00    +0.005 C 
ATOM     50  C   LIG    1       26.600 -31.695  12.224  0.00  0.00    +0.011 C 
ENDBRANCH   1  50
BRANCH   5  51
ATOM     51  O   LIG    1       25.966 -31.542   8.348  0.00  0.00    -0.391 OA
ATOM     52  H   LIG    1       26.737 -32.127   8.231  0.00  0.00    +0.210 HD
ENDBRANCH   5  51
BRANCH  27  53
ATOM     53  O   LIG    1       22.238 -26.931  15.175  0.00  0.00    -0.377 OA
ATOM     54  C   LIG    1       20.917 -26.449  15.436  0.00  0.00    +0.194 C 
ENDBRANCH  27  53
BRANCH  25  55
ATOM     55  O   LIG    1       23.159 -29.699  15.500  0.00  0.00    -0.377 OA
ATOM     56  C   LIG    1       24.564 -29.837  15.298  0.00  0.00    +0.194 C 
ENDBRANCH  25  55
BRANCH  21  57
ATOM     57  O   LIG    1       19.907 -27.866  12.463  0.00  0.00    -0.358 OA
ATOM     58  H   LIG    1       20.426 -27.493  13.203  0.00  0.00    +0.213 HD
ENDBRANCH  21  57
TORSDOF 8
ENDMDL
MODEL 3
REMARK VINA RESULT:      12.9      3.255      7.634
REMARK  Name = *****
REMARK                            x       y       z     vdW  Elec       q    Type
REMARK                         _______ _______ _______ _____ _____    ______ ____
ROOT
ATOM      1  C   LIG    1       24.662 -28.821   7.813  0.00  0.00    +0.078 C 
ATOM      2  C   LIG    1       26.200 -28.701   7.877  0.00  0.00    +0.142 C 
ATOM      3  O   LIG    1       26.901 -29.268   7.026  0.00  0.00    -0.297 OA
ATOM      4  C   LIG    1       26.899 -27.926   8.979  0.00  0.00    +0.106 C 
ATOM      5  C   LIG    1       26.558 -28.325  10.417  0.00  0.00    +0.128 C 
ATOM      6  C   LIG    1       27.466 -29.383  11.098  0.00  0.00    +0.060 C 
ATOM      7  C   LIG    1       27.781 -30.585  10.197  0.00  0.00    +0.014 C 
ATOM      8  C   LIG    1       26.864 -29.906  12.465  0.00  0.00    +0.207 C 
ATOM      9  O   LIG    1       26.044 -28.903  13.092  0.00  0.00    -0.455 OA
ATOM     10  C   LIG    1       24.825 -29.283  13.548  0.00  0.00    +0.328 C 
ATOM     11  O   LIG    1       24.437 -30.464  13.570  0.00  0.00    -0.249 OA
ATOM     12  C   LIG    1       23.971 -28.059  13.909  0.00  0.00    +0.185 C 
ATOM     13  N   LIG    1       22.930 -28.070  14.968  0.00  0.00    -0.281 N 
ATOM     14  C   LIG    1       22.600 -26.707  15.394  0.00  0.00    +0.109 C 
ATOM     15  C   LIG    1       21.988 -25.926  14.223  0.00  0.00    +0.019 C 
ATOM     16  C   LIG    1       22.888 -25.977  12.983  0.00  0.00    +0.004 C 
ATOM     17  C   LIG    1       21.827 -28.949  14.996  0.00  0.00    +0.288 C 
ATOM     18  O   LIG    1       20.727 -28.597  15.424  0.00  0.00    -0.267 OA
ATOM     19  C   LIG    1       21.962 -30.425  14.675  0.00  0.00    +0.276 C 
ATOM     20  O   LIG    1       22.537 -31.140  15.499  0.00  0.00    -0.281 OA
ATOM     21  C   LIG    1       21.193 -31.010  13.442  0.00  0.00    +0.240 C 
ATOM     22  C   LIG    1       19.863 -30.283  13.142  0.00  0.00    +0.056 C 
ATOM     23  C   LIG    1       18.758 -30.555  14.176  0.00  0.00    +0.013 C 
ATOM     24  C   LIG    1       19.295 -30.642  11.766  0.00  0.00    +0.043 C 
ATOM     25  C   LIG    1       20.359 -30.541  10.681  0.00  0.00    +0.150 C 
ATOM     26  C   LIG    1       21.569 -31.437  11.024  0.00  0.00    +0.179 C 
ATOM     27  C   LIG    1       21.477 -33.004  10.923  0.00  0.00    +0.149 C 
ATOM     28  C   LIG    1       22.732 -33.683  10.299  0.00  0.00    +0.038 C 
ATOM     29  C   LIG    1       23.091 -33.660   8.787  0.00  0.00    -0.008 C 
ATOM     30  C   LIG    1       21.964 -33.823   7.778  0.00  0.00    +0.008 C 
ATOM     31  C   LIG    1       24.180 -32.631   8.412  0.00  0.00    +0.033 C 
ATOM     32  C   LIG    1       23.900 -31.283   7.768  0.00  0.00    -0.076 C 
ATOM     33  C   LIG    1       23.398 -31.303   6.348  0.00  0.00    +0.038 C 
ATOM     34  O   LIG    1       22.088 -30.995  12.313  0.00  0.00    -0.334 OA
ATOM     35  C   LIG    1       23.376 -27.399  12.663  0.00  0.00    +0.034 C 
ATOM     36  C   LIG    1       24.357 -30.181   8.400  0.00  0.00    -0.017 C 
ENDROOT
BRANCH   8  37
ATOM     37  C   LIG    1       27.892 -30.365  13.508  0.00  0.00    -0.036 C 
ATOM     38  C   LIG    1       29.223 -30.256  13.309  0.00  0.00    -0.021 C 
ATOM     39  C   LIG    1       27.289 -30.858  14.800  0.00  0.00    +0.042 C 
BRANCH  38  40
ATOM     40  C   LIG    1       30.357 -30.686  14.213  0.00  0.00    +0.014 C 
ATOM     41  C   LIG    1       31.732 -30.653  13.504  0.00  0.00    +0.040 C 
ATOM     42  C   LIG    1       32.321 -29.242  13.307  0.00  0.00    +0.136 C 
ATOM     43  C   LIG    1       32.337 -28.512  14.668  0.00  0.00    +0.109 C 
ATOM     44 CL   LIG    1       33.025 -26.865  14.522  0.00  0.00    -0.119 Cl
ATOM     45  C   LIG    1       30.947 -28.442  15.300  0.00  0.00    +0.022 C 
ATOM     46  C   LIG    1       30.371 -29.845  15.498  0.00  0.00    +0.009 C 
BRANCH  42  47
ATOM     47  O   LIG    1       31.583 -28.474  12.343  0.00  0.00    -0.378 OA
ATOM     48  C   LIG    1       32.154 -28.471  11.040  0.00  0.00    +0.194 C 
ENDBRANCH  42  47
ENDBRANCH  38  40
ENDBRANCH   8  37
BRANCH   1  50
ATOM     49  C   LIG    1       23.687 -26.498   7.471  0.00  0.00    +0.005 C 
ATOM     50  C   LIG    1       23.856 -27.672   8.430  0.00  0.00    +0.011 C 
ENDBRANCH   1  50
BRANCH   5  51
ATOM     51  O   LIG    1       26.608 -27.105  11.177  0.00  0.00    -0.391 OA
ATOM     52  H   LIG    1       27.379 -26.588  10.877  0.00  0.00    +0.210 HD
ENDBRANCH   5  51
BRANCH  27  53
ATOM     53  O   LIG    1       20.280 -33.507  10.326  0.00  0.00    -0.377 OA
ATOM     54  C   LIG    1       19.208 -33.627  11.265  0.00  0.00    +0.194 C 
ENDBRANCH  27  53
BRANCH  25  55
ATOM     55  O   LIG    1       19.844 -30.766   9.371  0.00  0.00    -0.377 OA
ATOM     56  C   LIG    1       18.420 -30.792   9.323  0.00  0.00    +0.194 C 
ENDBRANCH  25  55
BRANCH  21  57
ATOM     57  O   LIG    1       20.894 -32.366  13.787  0.00  0.00    -0.358 OA
ATOM     58  H   LIG    1       20.191 -32.640  13.165  0.00  0.00    +0.213 HD
ENDBRANCH  21  57
TORSDOF 8
ENDMDL
