MODEL 1
REMARK VINA RESULT:      -1.0      0.000      0.000
REMARK  Name = *****
REMARK                            x       y       z     vdW  Elec       q    Type
REMARK                         _______ _______ _______ _____ _____    ______ ____
ROOT
ATOM      1  C   LIG    1       27.970 -15.188   4.393  0.00  0.00    +0.164 A 
ATOM      2  C   LIG    1       27.043 -15.801   3.559  0.00  0.00    +0.163 A 
ATOM      3  C   LIG    1       26.849 -17.184   3.648  0.00  0.00    +0.062 A 
ATOM      4  C   LIG    1       27.648 -18.009   4.489  0.00  0.00    +0.044 A 
ATOM      5  C   LIG    1       28.648 -17.394   5.227  0.00  0.00    +0.080 A 
ATOM      6  N   LIG    1       29.470 -18.065   6.063  0.00  0.00    -0.235 NA
ATOM      7  C   LIG    1       29.220 -19.362   6.218  0.00  0.00    +0.224 A 
ATOM      8  N   LIG    1       28.239 -20.051   5.628  0.00  0.00    -0.220 NA
ATOM      9  C   LIG    1       27.459 -19.388   4.734  0.00  0.00    +0.134 A 
ATOM     10  C   LIG    1       28.799 -16.002   5.187  0.00  0.00    +0.077 A 
ENDROOT
BRANCH   1  12
ATOM     11  C   LIG    1       29.103 -13.138   3.797  0.00  0.00    +0.277 C 
ATOM     12  O   LIG    1       28.011 -13.829   4.378  0.00  0.00    -0.491 OA
ENDBRANCH   1  12
BRANCH   9  13
ATOM     13  N   LIG    1       26.443 -20.209   4.229  0.00  0.00    -0.299 N 
ATOM     14  H   LIG    1       26.837 -20.683   3.419  0.00  0.00    +0.154 HD
BRANCH  13  15
ATOM     15  C   LIG    1       25.032 -20.238   4.230  0.00  0.00    +0.034 A 
ATOM     16  C   LIG    1       24.218 -19.110   4.143  0.00  0.00    +0.046 A 
ATOM     17  C   LIG    1       22.846 -19.182   4.414  0.00  0.00    +0.078 A 
ATOM     18 CL   LIG    1       21.926 -17.726   4.494  0.00  0.00    -0.081 Cl
ATOM     19  C   LIG    1       22.248 -20.413   4.652  0.00  0.00    +0.142 A 
ATOM     20  F   LIG    1       20.933 -20.505   4.899  0.00  0.00    -0.204 F 
ATOM     21  C   LIG    1       23.009 -21.572   4.607  0.00  0.00    +0.041 A 
ATOM     22  C   LIG    1       24.394 -21.478   4.423  0.00  0.00    +0.026 A 
ENDBRANCH  13  15
ENDBRANCH   9  13
BRANCH   2  23
ATOM     23  O   LIG    1       26.253 -15.216   2.599  0.00  0.00    -0.488 OA
BRANCH  23  24
ATOM     24  C   LIG    1       26.786 -14.102   1.900  0.00  0.00    +0.230 C 
BRANCH  24  25
ATOM     25  C   LIG    1       25.923 -12.850   2.093  0.00  0.00    +0.056 C 
BRANCH  25  26
ATOM     26  C   LIG    1       24.397 -12.971   1.824  0.00  0.00    +0.088 C 
BRANCH  26  27
ATOM     27  N   LIG    1       23.485 -12.793   2.962  0.00  0.00    -0.298 NA
ATOM     28  C   LIG    1       22.957 -14.068   3.515  0.00  0.00    +0.112 C 
ATOM     29  C   LIG    1       23.913 -14.840   4.451  0.00  0.00    +0.175 C 
ATOM     30  O   LIG    1       24.417 -14.007   5.501  0.00  0.00    -0.377 OA
ATOM     31  C   LIG    1       25.042 -12.835   4.964  0.00  0.00    +0.175 C 
ATOM     32  C   LIG    1       24.067 -12.036   4.086  0.00  0.00    +0.112 C 
ENDBRANCH  26  27
ENDBRANCH  25  26
ENDBRANCH  24  25
ENDBRANCH  23  24
ENDBRANCH   2  23
TORSDOF 8
ENDMDL
MODEL 2
REMARK VINA RESULT:      -0.3      2.847      5.784
REMARK  Name = *****
REMARK                            x       y       z     vdW  Elec       q    Type
REMARK                         _______ _______ _______ _____ _____    ______ ____
ROOT
ATOM      1  C   LIG    1       24.140 -12.833   4.682  0.00  0.00    +0.164 A 
ATOM      2  C   LIG    1       23.899 -14.142   4.281  0.00  0.00    +0.163 A 
ATOM      3  C   LIG    1       24.977 -14.964   3.934  0.00  0.00    +0.062 A 
ATOM      4  C   LIG    1       26.313 -14.474   3.872  0.00  0.00    +0.044 A 
ATOM      5  C   LIG    1       26.519 -13.134   4.161  0.00  0.00    +0.080 A 
ATOM      6  N   LIG    1       27.738 -12.552   4.140  0.00  0.00    -0.235 NA
ATOM      7  C   LIG    1       28.770 -13.356   3.905  0.00  0.00    +0.224 A 
ATOM      8  N   LIG    1       28.710 -14.673   3.692  0.00  0.00    -0.220 NA
ATOM      9  C   LIG    1       27.477 -15.244   3.644  0.00  0.00    +0.134 A 
ATOM     10  C   LIG    1       25.449 -12.329   4.571  0.00  0.00    +0.077 A 
ENDROOT
BRANCH   1  12
ATOM     11  C   LIG    1       23.147 -11.452   6.398  0.00  0.00    +0.277 C 
ATOM     12  O   LIG    1       23.078 -12.128   5.154  0.00  0.00    -0.491 OA
ENDBRANCH   1  12
BRANCH   9  13
ATOM     13  N   LIG    1       27.558 -16.630   3.467  0.00  0.00    -0.299 N 
ATOM     14  H   LIG    1       26.892 -16.862   2.733  0.00  0.00    +0.154 HD
BRANCH  13  15
ATOM     15  C   LIG    1       27.920 -17.757   4.235  0.00  0.00    +0.034 A 
ATOM     16  C   LIG    1       27.126 -18.891   4.397  0.00  0.00    +0.046 A 
ATOM     17  C   LIG    1       27.422 -19.851   5.373  0.00  0.00    +0.078 A 
ATOM     18 CL   LIG    1       26.297 -21.123   5.670  0.00  0.00    -0.081 Cl
ATOM     19  C   LIG    1       28.592 -19.750   6.115  0.00  0.00    +0.142 A 
ATOM     20  F   LIG    1       28.900 -20.666   7.046  0.00  0.00    -0.204 F 
ATOM     21  C   LIG    1       29.473 -18.706   5.879  0.00  0.00    +0.041 A 
ATOM     22  C   LIG    1       29.124 -17.705   4.963  0.00  0.00    +0.026 A 
ENDBRANCH  13  15
ENDBRANCH   9  13
BRANCH   2  23
ATOM     23  O   LIG    1       22.688 -14.779   4.157  0.00  0.00    -0.488 OA
BRANCH  23  24
ATOM     24  C   LIG    1       22.434 -15.878   5.019  0.00  0.00    +0.230 C 
BRANCH  24  25
ATOM     25  C   LIG    1       22.023 -17.129   4.234  0.00  0.00    +0.056 C 
BRANCH  25  26
ATOM     26  C   LIG    1       21.803 -18.445   5.029  0.00  0.00    +0.088 C 
BRANCH  26  27
ATOM     27  N   LIG    1       22.987 -19.252   5.358  0.00  0.00    -0.298 NA
ATOM     28  C   LIG    1       22.705 -20.704   5.504  0.00  0.00    +0.112 C 
ATOM     29  C   LIG    1       22.578 -21.498   4.185  0.00  0.00    +0.175 C 
ATOM     30  O   LIG    1       23.706 -21.289   3.328  0.00  0.00    -0.377 OA
ATOM     31  C   LIG    1       23.904 -19.892   3.081  0.00  0.00    +0.175 C 
ATOM     32  C   LIG    1       24.094 -19.115   4.393  0.00  0.00    +0.112 C 
ENDBRANCH  26  27
ENDBRANCH  25  26
ENDBRANCH  24  25
ENDBRANCH  23  24
ENDBRANCH   2  23
TORSDOF 8
ENDMDL
MODEL 3
REMARK VINA RESULT:       0.5      3.255      5.841
REMARK  Name = *****
REMARK                            x       y       z     vdW  Elec       q    Type
REMARK                         _______ _______ _______ _____ _____    ______ ____
ROOT
ATOM      1  C   LIG    1       26.764 -20.898   6.253  0.00  0.00    +0.164 A 
ATOM      2  C   LIG    1       27.310 -19.932   5.417  0.00  0.00    +0.163 A 
ATOM      3  C   LIG    1       26.459 -19.101   4.679  0.00  0.00    +0.062 A 
ATOM      4  C   LIG    1       25.047 -19.281   4.669  0.00  0.00    +0.044 A 
ATOM      5  C   LIG    1       24.529 -20.326   5.418  0.00  0.00    +0.080 A 
ATOM      6  N   LIG    1       23.207 -20.598   5.493  0.00  0.00    -0.235 NA
ATOM      7  C   LIG    1       22.396 -19.750   4.870  0.00  0.00    +0.224 A 
ATOM      8  N   LIG    1       22.766 -18.664   4.185  0.00  0.00    -0.220 NA
ATOM      9  C   LIG    1       24.099 -18.433   4.052  0.00  0.00    +0.134 A 
ATOM     10  C   LIG    1       25.374 -21.115   6.207  0.00  0.00    +0.077 A 
ENDROOT
BRANCH   1  12
ATOM     11  C   LIG    1       29.017 -21.317   7.019  0.00  0.00    +0.277 C 
ATOM     12  O   LIG    1       27.624 -21.571   7.062  0.00  0.00    -0.491 OA
ENDBRANCH   1  12
BRANCH   9  13
ATOM     13  N   LIG    1       24.348 -17.242   3.360  0.00  0.00    -0.299 N 
ATOM     14  H   LIG    1       25.161 -17.419   2.773  0.00  0.00    +0.154 HD
BRANCH  13  15
ATOM     15  C   LIG    1       24.114 -15.863   3.545  0.00  0.00    +0.034 A 
ATOM     16  C   LIG    1       24.630 -14.857   2.730  0.00  0.00    +0.046 A 
ATOM     17  C   LIG    1       24.581 -13.512   3.118  0.00  0.00    +0.078 A 
ATOM     18 CL   LIG    1       25.414 -12.334   2.174  0.00  0.00    -0.081 Cl
ATOM     19  C   LIG    1       23.898 -13.145   4.270  0.00  0.00    +0.142 A 
ATOM     20  F   LIG    1       23.828 -11.861   4.651  0.00  0.00    -0.204 F 
ATOM     21  C   LIG    1       23.254 -14.110   5.029  0.00  0.00    +0.041 A 
ATOM     22  C   LIG    1       23.385 -15.460   4.681  0.00  0.00    +0.026 A 
ENDBRANCH  13  15
ENDBRANCH   9  13
BRANCH   2  23
ATOM     23  O   LIG    1       28.639 -19.665   5.187  0.00  0.00    -0.488 OA
BRANCH  23  24
ATOM     24  C   LIG    1       29.108 -18.361   5.495  0.00  0.00    +0.230 C 
BRANCH  24  25
ATOM     25  C   LIG    1       28.422 -17.296   4.632  0.00  0.00    +0.056 C 
BRANCH  25  26
ATOM     26  C   LIG    1       28.408 -15.834   5.158  0.00  0.00    +0.088 C 
BRANCH  26  27
ATOM     27  N   LIG    1       27.512 -14.877   4.493  0.00  0.00    -0.298 NA
ATOM     28  C   LIG    1       27.057 -13.769   5.374  0.00  0.00    +0.112 C 
ATOM     29  C   LIG    1       28.068 -12.619   5.581  0.00  0.00    +0.175 C 
ATOM     30  O   LIG    1       28.553 -12.106   4.336  0.00  0.00    -0.377 OA
ATOM     31  C   LIG    1       29.110 -13.156   3.536  0.00  0.00    +0.175 C 
ATOM     32  C   LIG    1       28.081 -14.266   3.278  0.00  0.00    +0.112 C 
ENDBRANCH  26  27
ENDBRANCH  25  26
ENDBRANCH  24  25
ENDBRANCH  23  24
ENDBRANCH   2  23
TORSDOF 8
ENDMDL
MODEL 4
REMARK VINA RESULT:       1.1      2.900      5.089
REMARK  Name = *****
REMARK                            x       y       z     vdW  Elec       q    Type
REMARK                         _______ _______ _______ _____ _____    ______ ____
ROOT
ATOM      1  C   LIG    1       26.962 -20.016   5.267  0.00  0.00    +0.164 A 
ATOM      2  C   LIG    1       26.617 -18.868   4.565  0.00  0.00    +0.163 A 
ATOM      3  C   LIG    1       25.265 -18.566   4.365  0.00  0.00    +0.062 A 
ATOM      4  C   LIG    1       24.224 -19.453   4.763  0.00  0.00    +0.044 A 
ATOM      5  C   LIG    1       24.593 -20.649   5.357  0.00  0.00    +0.080 A 
ATOM      6  N   LIG    1       23.701 -21.571   5.781  0.00  0.00    -0.235 NA
ATOM      7  C   LIG    1       22.418 -21.239   5.678  0.00  0.00    +0.224 A 
ATOM      8  N   LIG    1       21.938 -20.087   5.200  0.00  0.00    -0.220 NA
ATOM      9  C   LIG    1       22.835 -19.191   4.710  0.00  0.00    +0.134 A 
ATOM     10  C   LIG    1       25.943 -20.921   5.615  0.00  0.00    +0.077 A 
ENDROOT
BRANCH   1  12
ATOM     11  C   LIG    1       29.068 -19.096   6.014  0.00  0.00    +0.277 C 
ATOM     12  O   LIG    1       28.278 -20.183   5.567  0.00  0.00    -0.491 OA
ENDBRANCH   1  12
BRANCH   9  13
ATOM     13  N   LIG    1       22.208 -18.013   4.289  0.00  0.00    -0.299 N 
ATOM     14  H   LIG    1       21.713 -18.245   3.431  0.00  0.00    +0.154 HD
BRANCH  13  15
ATOM     15  C   LIG    1       22.403 -16.623   4.433  0.00  0.00    +0.034 A 
ATOM     16  C   LIG    1       22.898 -15.786   3.434  0.00  0.00    +0.046 A 
ATOM     17  C   LIG    1       23.313 -14.480   3.721  0.00  0.00    +0.078 A 
ATOM     18 CL   LIG    1       24.107 -13.561   2.497  0.00  0.00    -0.081 Cl
ATOM     19  C   LIG    1       23.118 -13.951   4.991  0.00  0.00    +0.142 A 
ATOM     20  F   LIG    1       23.496 -12.697   5.282  0.00  0.00    -0.204 F 
ATOM     21  C   LIG    1       22.499 -14.714   5.970  0.00  0.00    +0.041 A 
ATOM     22  C   LIG    1       22.169 -16.047   5.697  0.00  0.00    +0.026 A 
ENDBRANCH  13  15
ENDBRANCH   9  13
BRANCH   2  23
ATOM     23  O   LIG    1       27.455 -17.940   3.996  0.00  0.00    -0.488 OA
BRANCH  23  24
ATOM     24  C   LIG    1       26.857 -16.837   3.331  0.00  0.00    +0.230 C 
BRANCH  24  25
ATOM     25  C   LIG    1       27.512 -15.511   3.736  0.00  0.00    +0.056 C 
BRANCH  25  26
ATOM     26  C   LIG    1       27.342 -14.297   2.783  0.00  0.00    +0.088 C 
BRANCH  26  27
ATOM     27  N   LIG    1       27.011 -12.997   3.384  0.00  0.00    -0.298 NA
ATOM     28  C   LIG    1       26.596 -13.081   4.809  0.00  0.00    +0.112 C 
ATOM     29  C   LIG    1       27.743 -13.218   5.834  0.00  0.00    +0.175 C 
ATOM     30  O   LIG    1       28.738 -12.204   5.658  0.00  0.00    -0.377 OA
ATOM     31  C   LIG    1       29.233 -12.205   4.314  0.00  0.00    +0.175 C 
ATOM     32  C   LIG    1       28.097 -12.002   3.301  0.00  0.00    +0.112 C 
ENDBRANCH  26  27
ENDBRANCH  25  26
ENDBRANCH  24  25
ENDBRANCH  23  24
ENDBRANCH   2  23
TORSDOF 8
ENDMDL
MODEL 5
REMARK VINA RESULT:       1.2      3.076      5.378
REMARK  Name = *****
REMARK                            x       y       z     vdW  Elec       q    Type
REMARK                         _______ _______ _______ _____ _____    ______ ____
ROOT
ATOM      1  C   LIG    1       23.951 -20.963   5.366  0.00  0.00    +0.164 A 
ATOM      2  C   LIG    1       24.184 -19.775   4.685  0.00  0.00    +0.163 A 
ATOM      3  C   LIG    1       25.464 -19.208   4.711  0.00  0.00    +0.062 A 
ATOM      4  C   LIG    1       26.515 -19.748   5.505  0.00  0.00    +0.044 A 
ATOM      5  C   LIG    1       26.230 -20.867   6.271  0.00  0.00    +0.080 A 
ATOM      6  N   LIG    1       27.142 -21.475   7.062  0.00  0.00    -0.235 NA
ATOM      7  C   LIG    1       28.379 -20.992   7.010  0.00  0.00    +0.224 A 
ATOM      8  N   LIG    1       28.797 -19.973   6.253  0.00  0.00    -0.220 NA
ATOM      9  C   LIG    1       27.863 -19.320   5.513  0.00  0.00    +0.134 A 
ATOM     10  C   LIG    1       24.969 -21.472   6.194  0.00  0.00    +0.077 A 
ENDROOT
BRANCH   1  12
ATOM     11  C   LIG    1       21.639 -20.814   4.680  0.00  0.00    +0.277 C 
ATOM     12  O   LIG    1       22.739 -21.552   5.183  0.00  0.00    -0.491 OA
ENDBRANCH   1  12
BRANCH   9  13
ATOM     13  N   LIG    1       28.439 -18.312   4.731  0.00  0.00    -0.299 N 
ATOM     14  H   LIG    1       29.446 -18.402   4.848  0.00  0.00    +0.154 HD
BRANCH  13  15
ATOM     15  C   LIG    1       28.071 -17.043   4.234  0.00  0.00    +0.034 A 
ATOM     16  C   LIG    1       28.538 -15.831   4.739  0.00  0.00    +0.046 A 
ATOM     17  C   LIG    1       27.939 -14.617   4.381  0.00  0.00    +0.078 A 
ATOM     18 CL   LIG    1       28.418 -13.171   5.189  0.00  0.00    -0.081 Cl
ATOM     19  C   LIG    1       26.944 -14.591   3.412  0.00  0.00    +0.142 A 
ATOM     20  F   LIG    1       26.367 -13.437   3.046  0.00  0.00    -0.204 F 
ATOM     21  C   LIG    1       26.555 -15.767   2.790  0.00  0.00    +0.041 A 
ATOM     22  C   LIG    1       27.098 -16.985   3.219  0.00  0.00    +0.026 A 
ENDBRANCH  13  15
ENDBRANCH   9  13
BRANCH   2  23
ATOM     23  O   LIG    1       23.290 -19.027   3.957  0.00  0.00    -0.488 OA
BRANCH  23  24
ATOM     24  C   LIG    1       23.537 -17.634   3.847  0.00  0.00    +0.230 C 
BRANCH  24  25
ATOM     25  C   LIG    1       22.548 -16.817   4.687  0.00  0.00    +0.056 C 
BRANCH  25  26
ATOM     26  C   LIG    1       22.659 -15.268   4.635  0.00  0.00    +0.088 C 
BRANCH  26  27
ATOM     27  N   LIG    1       23.966 -14.687   4.298  0.00  0.00    -0.298 NA
ATOM     28  C   LIG    1       23.988 -13.969   2.996  0.00  0.00    +0.112 C 
ATOM     29  C   LIG    1       23.399 -12.540   3.009  0.00  0.00    +0.175 C 
ATOM     30  O   LIG    1       23.981 -11.734   4.039  0.00  0.00    -0.377 OA
ATOM     31  C   LIG    1       23.848 -12.367   5.316  0.00  0.00    +0.175 C 
ATOM     32  C   LIG    1       24.493 -13.761   5.318  0.00  0.00    +0.112 C 
ENDBRANCH  26  27
ENDBRANCH  25  26
ENDBRANCH  24  25
ENDBRANCH  23  24
ENDBRANCH   2  23
TORSDOF 8
ENDMDL
MODEL 6
REMARK VINA RESULT:       1.6      2.808      5.743
REMARK  Name = *****
REMARK                            x       y       z     vdW  Elec       q    Type
REMARK                         _______ _______ _______ _____ _____    ______ ____
ROOT
ATOM      1  C   LIG    1       24.047 -13.123   4.876  0.00  0.00    +0.164 A 
ATOM      2  C   LIG    1       23.866 -14.409   4.380  0.00  0.00    +0.163 A 
ATOM      3  C   LIG    1       24.985 -15.181   4.050  0.00  0.00    +0.062 A 
ATOM      4  C   LIG    1       26.308 -14.657   4.101  0.00  0.00    +0.044 A 
ATOM      5  C   LIG    1       26.460 -13.334   4.485  0.00  0.00    +0.080 A 
ATOM      6  N   LIG    1       27.662 -12.723   4.576  0.00  0.00    -0.235 NA
ATOM      7  C   LIG    1       28.727 -13.486   4.355  0.00  0.00    +0.224 A 
ATOM      8  N   LIG    1       28.716 -14.788   4.058  0.00  0.00    -0.220 NA
ATOM      9  C   LIG    1       27.505 -15.383   3.898  0.00  0.00    +0.134 A 
ATOM     10  C   LIG    1       25.346 -12.582   4.878  0.00  0.00    +0.077 A 
ENDROOT
BRANCH   1  12
ATOM     11  C   LIG    1       23.036 -11.475   6.326  0.00  0.00    +0.277 C 
ATOM     12  O   LIG    1       22.940 -12.474   5.325  0.00  0.00    -0.491 OA
ENDBRANCH   1  12
BRANCH   9  13
ATOM     13  N   LIG    1       27.634 -16.753   3.640  0.00  0.00    -0.299 N 
ATOM     14  H   LIG    1       27.133 -16.927   2.771  0.00  0.00    +0.154 HD
BRANCH  13  15
ATOM     15  C   LIG    1       27.843 -17.936   4.381  0.00  0.00    +0.034 A 
ATOM     16  C   LIG    1       26.828 -18.699   4.955  0.00  0.00    +0.046 A 
ATOM     17  C   LIG    1       27.115 -19.701   5.890  0.00  0.00    +0.078 A 
ATOM     18 CL   LIG    1       25.816 -20.473   6.722  0.00  0.00    -0.081 Cl
ATOM     19  C   LIG    1       28.434 -20.039   6.166  0.00  0.00    +0.142 A 
ATOM     20  F   LIG    1       28.728 -21.006   7.048  0.00  0.00    -0.204 F 
ATOM     21  C   LIG    1       29.466 -19.391   5.505  0.00  0.00    +0.041 A 
ATOM     22  C   LIG    1       29.170 -18.330   4.640  0.00  0.00    +0.026 A 
ENDBRANCH  13  15
ENDBRANCH   9  13
BRANCH   2  23
ATOM     23  O   LIG    1       22.682 -15.065   4.143  0.00  0.00    -0.488 OA
BRANCH  23  24
ATOM     24  C   LIG    1       22.741 -16.468   3.934  0.00  0.00    +0.230 C 
BRANCH  24  25
ATOM     25  C   LIG    1       21.999 -17.234   5.035  0.00  0.00    +0.056 C 
BRANCH  25  26
ATOM     26  C   LIG    1       22.464 -18.682   5.352  0.00  0.00    +0.088 C 
BRANCH  26  27
ATOM     27  N   LIG    1       22.231 -19.715   4.332  0.00  0.00    -0.298 NA
ATOM     28  C   LIG    1       23.015 -19.515   3.084  0.00  0.00    +0.112 C 
ATOM     29  C   LIG    1       24.493 -19.961   3.142  0.00  0.00    +0.175 C 
ATOM     30  O   LIG    1       24.624 -21.308   3.610  0.00  0.00    -0.377 OA
ATOM     31  C   LIG    1       23.977 -21.472   4.877  0.00  0.00    +0.175 C 
ATOM     32  C   LIG    1       22.492 -21.089   4.798  0.00  0.00    +0.112 C 
ENDBRANCH  26  27
ENDBRANCH  25  26
ENDBRANCH  24  25
ENDBRANCH  23  24
ENDBRANCH   2  23
TORSDOF 8
ENDMDL
MODEL 7
REMARK VINA RESULT:       1.9      3.015      5.697
REMARK  Name = *****
REMARK                            x       y       z     vdW  Elec       q    Type
REMARK                         _______ _______ _______ _____ _____    ______ ____
ROOT
ATOM      1  C   LIG    1       24.317 -13.010   4.559  0.00  0.00    +0.164 A 
ATOM      2  C   LIG    1       24.225 -14.357   4.230  0.00  0.00    +0.163 A 
ATOM      3  C   LIG    1       25.393 -15.079   3.961  0.00  0.00    +0.062 A 
ATOM      4  C   LIG    1       26.672 -14.456   3.903  0.00  0.00    +0.044 A 
ATOM      5  C   LIG    1       26.729 -13.088   4.118  0.00  0.00    +0.080 A 
ATOM      6  N   LIG    1       27.881 -12.382   4.093  0.00  0.00    -0.235 NA
ATOM      7  C   LIG    1       28.998 -13.085   3.932  0.00  0.00    +0.224 A 
ATOM      8  N   LIG    1       29.082 -14.411   3.797  0.00  0.00    -0.220 NA
ATOM      9  C   LIG    1       27.917 -15.110   3.751  0.00  0.00    +0.134 A 
ATOM     10  C   LIG    1       25.569 -12.378   4.452  0.00  0.00    +0.077 A 
ENDROOT
BRANCH   1  12
ATOM     11  C   LIG    1       23.138 -11.628   6.153  0.00  0.00    +0.277 C 
ATOM     12  O   LIG    1       23.173 -12.395   4.962  0.00  0.00    -0.491 OA
ENDBRANCH   1  12
BRANCH   9  13
ATOM     13  N   LIG    1       28.146 -16.488   3.659  0.00  0.00    -0.299 N 
ATOM     14  H   LIG    1       28.291 -16.686   2.671  0.00  0.00    +0.154 HD
BRANCH  13  15
ATOM     15  C   LIG    1       27.822 -17.648   4.393  0.00  0.00    +0.034 A 
ATOM     16  C   LIG    1       28.597 -18.172   5.427  0.00  0.00    +0.046 A 
ATOM     17  C   LIG    1       28.362 -19.457   5.931  0.00  0.00    +0.078 A 
ATOM     18 CL   LIG    1       29.474 -20.134   7.062  0.00  0.00    -0.081 Cl
ATOM     19  C   LIG    1       27.263 -20.185   5.494  0.00  0.00    +0.142 A 
ATOM     20  F   LIG    1       27.013 -21.412   5.975  0.00  0.00    -0.204 F 
ATOM     21  C   LIG    1       26.393 -19.633   4.566  0.00  0.00    +0.041 A 
ATOM     22  C   LIG    1       26.688 -18.385   4.003  0.00  0.00    +0.026 A 
ENDBRANCH  13  15
ENDBRANCH   9  13
BRANCH   2  23
ATOM     23  O   LIG    1       23.091 -15.125   4.114  0.00  0.00    -0.488 OA
BRANCH  23  24
ATOM     24  C   LIG    1       23.254 -16.482   3.732  0.00  0.00    +0.230 C 
BRANCH  24  25
ATOM     25  C   LIG    1       22.511 -17.429   4.681  0.00  0.00    +0.056 C 
BRANCH  25  26
ATOM     26  C   LIG    1       21.919 -18.736   4.085  0.00  0.00    +0.088 C 
BRANCH  26  27
ATOM     27  N   LIG    1       21.682 -19.860   5.002  0.00  0.00    -0.298 NA
ATOM     28  C   LIG    1       22.002 -21.189   4.419  0.00  0.00    +0.112 C 
ATOM     29  C   LIG    1       23.499 -21.571   4.401  0.00  0.00    +0.175 C 
ATOM     30  O   LIG    1       24.100 -21.430   5.693  0.00  0.00    -0.377 OA
ATOM     31  C   LIG    1       23.902 -20.106   6.203  0.00  0.00    +0.175 C 
ATOM     32  C   LIG    1       22.409 -19.755   6.281  0.00  0.00    +0.112 C 
ENDBRANCH  26  27
ENDBRANCH  25  26
ENDBRANCH  24  25
ENDBRANCH  23  24
ENDBRANCH   2  23
TORSDOF 8
ENDMDL
