MODEL 1
REMARK VINA RESULT:      -7.9      0.000      0.000
REMARK  Name = *****
REMARK                            x       y       z     vdW  Elec       q    Type
REMARK                         _______ _______ _______ _____ _____    ______ ____
ROOT
ATOM      1  S   LIG    1       26.754 -21.166   7.346  0.00  0.00    +0.075 S 
ATOM      2  O   LIG    1       26.618 -20.541   8.648  0.00  0.00    -0.150 OA
ATOM      3  O   LIG    1       26.923 -22.599   7.241  0.00  0.00    -0.150 OA
ENDROOT
BRANCH   1   4
ATOM      4  C   LIG    1       25.331 -20.687   6.405  0.00  0.00    +0.109 A 
ATOM      5  C   LIG    1       25.493 -20.237   5.094  0.00  0.00    +0.030 A 
ATOM      6  C   LIG    1       24.372 -19.824   4.368  0.00  0.00    +0.024 A 
ATOM      7  C   LIG    1       23.091 -19.891   4.928  0.00  0.00    +0.025 A 
ATOM      8  C   LIG    1       22.958 -20.284   6.264  0.00  0.00    +0.024 A 
ATOM      9  C   LIG    1       24.068 -20.701   7.001  0.00  0.00    +0.030 A 
BRANCH   7  10
ATOM     10  N   LIG    1       21.997 -19.349   4.244  0.00  0.00    -0.358 N 
ATOM     11  H   LIG    1       22.255 -18.705   3.503  0.00  0.00    +0.142 HD
ATOM     12  H   LIG    1       21.324 -20.043   3.934  0.00  0.00    +0.142 HD
ENDBRANCH   7  10
ENDBRANCH   1   4
BRANCH   1  13
ATOM     13  N   LIG    1       28.024 -20.384   6.589  0.00  0.00    -0.184 N 
ATOM     14  H   LIG    1       27.688 -19.520   6.176  0.00  0.00    +0.177 HD
BRANCH  13  18
ATOM     15  C   LIG    1       31.539 -22.236   9.133  0.00  0.00    +0.066 C 
ATOM     16  C   LIG    1       30.787 -21.029   8.660  0.00  0.00    +0.044 A 
ATOM     17  N   LIG    1       29.723 -21.239   7.863  0.00  0.00    -0.218 NA
ATOM     18  C   LIG    1       29.107 -20.141   7.426  0.00  0.00    +0.235 A 
ATOM     19  N   LIG    1       29.401 -18.873   7.719  0.00  0.00    -0.218 NA
ATOM     20  C   LIG    1       30.444 -18.699   8.555  0.00  0.00    +0.044 A 
ATOM     21  C   LIG    1       30.751 -17.299   8.997  0.00  0.00    +0.066 C 
ATOM     22  C   LIG    1       31.182 -19.760   9.049  0.00  0.00    +0.046 A 
ENDBRANCH  13  18
ENDBRANCH   1  13
TORSDOF 4
ENDMDL
MODEL 2
REMARK VINA RESULT:      -7.8      2.786      3.414
REMARK  Name = *****
REMARK                            x       y       z     vdW  Elec       q    Type
REMARK                         _______ _______ _______ _____ _____    ______ ____
ROOT
ATOM      1  S   LIG    1       26.257 -21.356   8.018  0.00  0.00    +0.075 S 
ATOM      2  O   LIG    1       25.980 -20.260   7.109  0.00  0.00    -0.150 OA
ATOM      3  O   LIG    1       25.906 -21.246   9.417  0.00  0.00    -0.150 OA
ENDROOT
BRANCH   1   4
ATOM      4  C   LIG    1       25.463 -22.787   7.339  0.00  0.00    +0.109 A 
ATOM      5  C   LIG    1       26.240 -23.867   6.916  0.00  0.00    +0.030 A 
ATOM      6  C   LIG    1       25.613 -24.979   6.346  0.00  0.00    +0.024 A 
ATOM      7  C   LIG    1       24.219 -25.034   6.228  0.00  0.00    +0.025 A 
ATOM      8  C   LIG    1       23.466 -23.916   6.599  0.00  0.00    +0.024 A 
ATOM      9  C   LIG    1       24.078 -22.799   7.172  0.00  0.00    +0.030 A 
BRANCH   7  10
ATOM     10  N   LIG    1       23.615 -26.088   5.534  0.00  0.00    -0.358 N 
ATOM     11  H   LIG    1       22.647 -25.913   5.284  0.00  0.00    +0.142 HD
ATOM     12  H   LIG    1       24.160 -26.426   4.748  0.00  0.00    +0.142 HD
ENDBRANCH   7  10
ENDBRANCH   1   4
BRANCH   1  13
ATOM     13  N   LIG    1       27.889 -21.683   7.862  0.00  0.00    -0.184 N 
ATOM     14  H   LIG    1       28.024 -22.384   7.141  0.00  0.00    +0.177 HD
BRANCH  13  18
ATOM     15  C   LIG    1       31.169 -18.695   9.466  0.00  0.00    +0.066 C 
ATOM     16  C   LIG    1       30.226 -19.111   8.378  0.00  0.00    +0.044 A 
ATOM     17  N   LIG    1       29.455 -20.189   8.612  0.00  0.00    -0.218 NA
ATOM     18  C   LIG    1       28.662 -20.556   7.605  0.00  0.00    +0.235 A 
ATOM     19  N   LIG    1       28.521 -19.957   6.421  0.00  0.00    -0.218 NA
ATOM     20  C   LIG    1       29.276 -18.856   6.236  0.00  0.00    +0.044 A 
ATOM     21  C   LIG    1       29.080 -18.087   4.963  0.00  0.00    +0.066 C 
ATOM     22  C   LIG    1       30.160 -18.395   7.196  0.00  0.00    +0.046 A 
ENDBRANCH  13  18
ENDBRANCH   1  13
TORSDOF 4
ENDMDL
MODEL 3
REMARK VINA RESULT:      -7.8      0.108      1.957
REMARK  Name = *****
REMARK                            x       y       z     vdW  Elec       q    Type
REMARK                         _______ _______ _______ _____ _____    ______ ____
ROOT
ATOM      1  S   LIG    1       26.700 -21.137   7.425  0.00  0.00    +0.075 S 
ATOM      2  O   LIG    1       26.504 -20.583   8.751  0.00  0.00    -0.150 OA
ATOM      3  O   LIG    1       26.941 -22.553   7.257  0.00  0.00    -0.150 OA
ENDROOT
BRANCH   1   4
ATOM      4  C   LIG    1       25.276 -20.681   6.474  0.00  0.00    +0.109 A 
ATOM      5  C   LIG    1       25.437 -20.276   5.147  0.00  0.00    +0.030 A 
ATOM      6  C   LIG    1       24.316 -19.881   4.412  0.00  0.00    +0.024 A 
ATOM      7  C   LIG    1       23.036 -19.922   4.978  0.00  0.00    +0.025 A 
ATOM      8  C   LIG    1       22.905 -20.270   6.326  0.00  0.00    +0.024 A 
ATOM      9  C   LIG    1       24.016 -20.669   7.073  0.00  0.00    +0.030 A 
BRANCH   7  10
ATOM     10  N   LIG    1       21.943 -19.397   4.280  0.00  0.00    -0.358 N 
ATOM     11  H   LIG    1       22.137 -18.516   3.816  0.00  0.00    +0.142 HD
ATOM     12  H   LIG    1       21.492 -20.066   3.663  0.00  0.00    +0.142 HD
ENDBRANCH   7  10
ENDBRANCH   1   4
BRANCH   1  13
ATOM     13  N   LIG    1       27.946 -20.259   6.738  0.00  0.00    -0.184 N 
ATOM     14  H   LIG    1       27.599 -19.350   6.450  0.00  0.00    +0.177 HD
BRANCH  13  18
ATOM     15  C   LIG    1       30.835 -17.302   9.012  0.00  0.00    +0.066 C 
ATOM     16  C   LIG    1       30.452 -18.705   8.647  0.00  0.00    +0.044 A 
ATOM     17  N   LIG    1       29.393 -18.861   7.832  0.00  0.00    -0.218 NA
ATOM     18  C   LIG    1       29.055 -20.123   7.566  0.00  0.00    +0.235 A 
ATOM     19  N   LIG    1       29.667 -21.233   7.981  0.00  0.00    -0.218 NA
ATOM     20  C   LIG    1       30.750 -21.041   8.760  0.00  0.00    +0.044 A 
ATOM     21  C   LIG    1       31.534 -22.252   9.169  0.00  0.00    +0.066 C 
ATOM     22  C   LIG    1       31.180 -19.778   9.131  0.00  0.00    +0.046 A 
ENDBRANCH  13  18
ENDBRANCH   1  13
TORSDOF 4
ENDMDL
MODEL 4
REMARK VINA RESULT:      -7.8      2.765      3.512
REMARK  Name = *****
REMARK                            x       y       z     vdW  Elec       q    Type
REMARK                         _______ _______ _______ _____ _____    ______ ____
ROOT
ATOM      1  S   LIG    1       26.283 -21.326   7.995  0.00  0.00    +0.075 S 
ATOM      2  O   LIG    1       26.026 -20.238   7.070  0.00  0.00    -0.150 OA
ATOM      3  O   LIG    1       25.917 -21.197   9.388  0.00  0.00    -0.150 OA
ENDROOT
BRANCH   1   4
ATOM      4  C   LIG    1       25.483 -22.757   7.322  0.00  0.00    +0.109 A 
ATOM      5  C   LIG    1       26.256 -23.834   6.883  0.00  0.00    +0.030 A 
ATOM      6  C   LIG    1       25.625 -24.945   6.319  0.00  0.00    +0.024 A 
ATOM      7  C   LIG    1       24.229 -25.004   6.223  0.00  0.00    +0.025 A 
ATOM      8  C   LIG    1       23.478 -23.890   6.610  0.00  0.00    +0.024 A 
ATOM      9  C   LIG    1       24.095 -22.773   7.177  0.00  0.00    +0.030 A 
BRANCH   7  10
ATOM     10  N   LIG    1       23.618 -26.058   5.535  0.00  0.00    -0.358 N 
ATOM     11  H   LIG    1       24.189 -26.451   4.794  0.00  0.00    +0.142 HD
ATOM     12  H   LIG    1       23.230 -26.773   6.142  0.00  0.00    +0.142 HD
ENDBRANCH   7  10
ENDBRANCH   1   4
BRANCH   1  13
ATOM     13  N   LIG    1       27.914 -21.670   7.861  0.00  0.00    -0.184 N 
ATOM     14  H   LIG    1       28.054 -22.349   7.120  0.00  0.00    +0.177 HD
BRANCH  13  18
ATOM     15  C   LIG    1       29.060 -18.122   4.969  0.00  0.00    +0.066 C 
ATOM     16  C   LIG    1       29.268 -18.850   6.263  0.00  0.00    +0.044 A 
ATOM     17  N   LIG    1       28.526 -19.952   6.476  0.00  0.00    -0.218 NA
ATOM     18  C   LIG    1       28.706 -20.546   7.656  0.00  0.00    +0.235 A 
ATOM     19  N   LIG    1       29.559 -20.196   8.620  0.00  0.00    -0.218 NA
ATOM     20  C   LIG    1       30.319 -19.115   8.357  0.00  0.00    +0.044 A 
ATOM     21  C   LIG    1       31.365 -18.741   9.364  0.00  0.00    +0.066 C 
ATOM     22  C   LIG    1       30.200 -18.395   7.181  0.00  0.00    +0.046 A 
ENDBRANCH  13  18
ENDBRANCH   1  13
TORSDOF 4
ENDMDL
MODEL 5
REMARK VINA RESULT:      -7.8      7.395      8.893
REMARK  Name = *****
REMARK                            x       y       z     vdW  Elec       q    Type
REMARK                         _______ _______ _______ _____ _____    ______ ____
ROOT
ATOM      1  S   LIG    1       25.603 -26.596   6.148  0.00  0.00    +0.075 S 
ATOM      2  O   LIG    1       26.234 -26.478   4.847  0.00  0.00    -0.150 OA
ATOM      3  O   LIG    1       26.357 -27.085   7.281  0.00  0.00    -0.150 OA
ENDROOT
BRANCH   1   4
ATOM      4  C   LIG    1       24.954 -24.994   6.540  0.00  0.00    +0.109 A 
ATOM      5  C   LIG    1       25.813 -24.003   7.019  0.00  0.00    +0.030 A 
ATOM      6  C   LIG    1       25.292 -22.753   7.362  0.00  0.00    +0.024 A 
ATOM      7  C   LIG    1       23.930 -22.475   7.198  0.00  0.00    +0.025 A 
ATOM      8  C   LIG    1       23.077 -23.500   6.777  0.00  0.00    +0.024 A 
ATOM      9  C   LIG    1       23.584 -24.754   6.428  0.00  0.00    +0.030 A 
BRANCH   7  10
ATOM     10  N   LIG    1       23.397 -21.271   7.672  0.00  0.00    -0.358 N 
ATOM     11  H   LIG    1       23.900 -20.447   7.356  0.00  0.00    +0.142 HD
ATOM     12  H   LIG    1       22.395 -21.185   7.536  0.00  0.00    +0.142 HD
ENDBRANCH   7  10
ENDBRANCH   1   4
BRANCH   1  13
ATOM     13  N   LIG    1       24.242 -27.540   5.915  0.00  0.00    -0.184 N 
ATOM     14  H   LIG    1       23.938 -27.460   4.951  0.00  0.00    +0.177 HD
BRANCH  13  18
ATOM     15  C   LIG    1       25.882 -31.773   4.630  0.00  0.00    +0.066 C 
ATOM     16  C   LIG    1       25.196 -30.910   5.646  0.00  0.00    +0.044 A 
ATOM     17  N   LIG    1       24.994 -29.620   5.321  0.00  0.00    -0.218 NA
ATOM     18  C   LIG    1       24.423 -28.874   6.267  0.00  0.00    +0.235 A 
ATOM     19  N   LIG    1       23.997 -29.268   7.468  0.00  0.00    -0.218 NA
ATOM     20  C   LIG    1       24.175 -30.576   7.744  0.00  0.00    +0.044 A 
ATOM     21  C   LIG    1       23.622 -31.092   9.039  0.00  0.00    +0.066 C 
ATOM     22  C   LIG    1       24.785 -31.443   6.855  0.00  0.00    +0.046 A 
ENDBRANCH  13  18
ENDBRANCH   1  13
TORSDOF 4
ENDMDL
MODEL 6
REMARK VINA RESULT:      -7.7      7.261      8.835
REMARK  Name = *****
REMARK                            x       y       z     vdW  Elec       q    Type
REMARK                         _______ _______ _______ _____ _____    ______ ____
ROOT
ATOM      1  S   LIG    1       25.504 -26.427   5.934  0.00  0.00    +0.075 S 
ATOM      2  O   LIG    1       25.931 -26.231   4.561  0.00  0.00    -0.150 OA
ATOM      3  O   LIG    1       26.428 -26.952   6.915  0.00  0.00    -0.150 OA
ENDROOT
BRANCH   1   4
ATOM      4  C   LIG    1       24.896 -24.862   6.501  0.00  0.00    +0.109 A 
ATOM      5  C   LIG    1       23.531 -24.582   6.413  0.00  0.00    +0.030 A 
ATOM      6  C   LIG    1       23.061 -23.333   6.826  0.00  0.00    +0.024 A 
ATOM      7  C   LIG    1       23.935 -22.377   7.357  0.00  0.00    +0.025 A 
ATOM      8  C   LIG    1       25.306 -22.653   7.377  0.00  0.00    +0.024 A 
ATOM      9  C   LIG    1       25.791 -23.898   6.969  0.00  0.00    +0.030 A 
BRANCH   7  10
ATOM     10  N   LIG    1       23.476 -21.085   7.639  0.00  0.00    -0.358 N 
ATOM     11  H   LIG    1       24.181 -20.365   7.524  0.00  0.00    +0.142 HD
ATOM     12  H   LIG    1       22.606 -20.850   7.171  0.00  0.00    +0.142 HD
ENDBRANCH   7  10
ENDBRANCH   1   4
BRANCH   1  13
ATOM     13  N   LIG    1       24.140 -27.390   5.859  0.00  0.00    -0.184 N 
ATOM     14  H   LIG    1       23.727 -27.317   4.935  0.00  0.00    +0.177 HD
BRANCH  13  18
ATOM     15  C   LIG    1       23.735 -30.784   9.112  0.00  0.00    +0.066 C 
ATOM     16  C   LIG    1       24.197 -30.348   7.754  0.00  0.00    +0.044 A 
ATOM     17  N   LIG    1       23.995 -29.060   7.420  0.00  0.00    -0.218 NA
ATOM     18  C   LIG    1       24.378 -28.720   6.189  0.00  0.00    +0.235 A 
ATOM     19  N   LIG    1       24.968 -29.495   5.278  0.00  0.00    -0.218 NA
ATOM     20  C   LIG    1       25.197 -30.768   5.661  0.00  0.00    +0.044 A 
ATOM     21  C   LIG    1       25.950 -31.652   4.713  0.00  0.00    +0.066 C 
ATOM     22  C   LIG    1       24.815 -31.246   6.902  0.00  0.00    +0.046 A 
ENDBRANCH  13  18
ENDBRANCH   1  13
TORSDOF 4
ENDMDL
MODEL 7
REMARK VINA RESULT:      -7.7      2.736      3.090
REMARK  Name = *****
REMARK                            x       y       z     vdW  Elec       q    Type
REMARK                         _______ _______ _______ _____ _____    ______ ____
ROOT
ATOM      1  S   LIG    1       26.166 -21.353   7.706  0.00  0.00    +0.075 S 
ATOM      2  O   LIG    1       25.232 -20.322   7.293  0.00  0.00    -0.150 OA
ATOM      3  O   LIG    1       26.551 -21.471   9.095  0.00  0.00    -0.150 OA
ENDROOT
BRANCH   1   4
ATOM      4  C   LIG    1       25.482 -22.897   7.168  0.00  0.00    +0.109 A 
ATOM      5  C   LIG    1       26.337 -23.942   6.815  0.00  0.00    +0.030 A 
ATOM      6  C   LIG    1       25.795 -25.145   6.356  0.00  0.00    +0.024 A 
ATOM      7  C   LIG    1       24.409 -25.323   6.280  0.00  0.00    +0.025 A 
ATOM      8  C   LIG    1       23.572 -24.244   6.577  0.00  0.00    +0.024 A 
ATOM      9  C   LIG    1       24.099 -23.036   7.039  0.00  0.00    +0.030 A 
BRANCH   7  10
ATOM     10  N   LIG    1       23.881 -26.478   5.691  0.00  0.00    -0.358 N 
ATOM     11  H   LIG    1       23.000 -26.779   6.096  0.00  0.00    +0.142 HD
ATOM     12  H   LIG    1       23.847 -26.442   4.677  0.00  0.00    +0.142 HD
ENDBRANCH   7  10
ENDBRANCH   1   4
BRANCH   1  13
ATOM     13  N   LIG    1       27.523 -21.154   6.751  0.00  0.00    -0.184 N 
ATOM     14  H   LIG    1       27.307 -20.525   5.985  0.00  0.00    +0.177 HD
BRANCH  13  18
ATOM     15  C   LIG    1       31.444 -22.344   9.090  0.00  0.00    +0.066 C 
ATOM     16  C   LIG    1       30.515 -21.280   8.588  0.00  0.00    +0.044 A 
ATOM     17  N   LIG    1       29.418 -21.685   7.922  0.00  0.00    -0.218 NA
ATOM     18  C   LIG    1       28.639 -20.711   7.452  0.00  0.00    +0.235 A 
ATOM     19  N   LIG    1       28.803 -19.396   7.602  0.00  0.00    -0.218 NA
ATOM     20  C   LIG    1       29.887 -19.024   8.312  0.00  0.00    +0.044 A 
ATOM     21  C   LIG    1       30.062 -17.562   8.596  0.00  0.00    +0.066 C 
ATOM     22  C   LIG    1       30.787 -19.943   8.823  0.00  0.00    +0.046 A 
ENDBRANCH  13  18
ENDBRANCH   1  13
TORSDOF 4
ENDMDL
MODEL 8
REMARK VINA RESULT:      -7.6      1.531      2.576
REMARK  Name = *****
REMARK                            x       y       z     vdW  Elec       q    Type
REMARK                         _______ _______ _______ _____ _____    ______ ____
ROOT
ATOM      1  S   LIG    1       26.214 -21.556   8.313  0.00  0.00    +0.075 S 
ATOM      2  O   LIG    1       26.450 -20.209   8.796  0.00  0.00    -0.150 OA
ATOM      3  O   LIG    1       26.043 -22.645   9.249  0.00  0.00    -0.150 OA
ENDROOT
BRANCH   1   4
ATOM      4  C   LIG    1       24.788 -21.473   7.265  0.00  0.00    +0.109 A 
ATOM      5  C   LIG    1       23.800 -22.454   7.369  0.00  0.00    +0.030 A 
ATOM      6  C   LIG    1       22.695 -22.406   6.515  0.00  0.00    +0.024 A 
ATOM      7  C   LIG    1       22.553 -21.371   5.585  0.00  0.00    +0.025 A 
ATOM      8  C   LIG    1       23.584 -20.435   5.452  0.00  0.00    +0.024 A 
ATOM      9  C   LIG    1       24.693 -20.469   6.300  0.00  0.00    +0.030 A 
BRANCH   7  10
ATOM     10  N   LIG    1       21.516 -21.408   4.646  0.00  0.00    -0.358 N 
ATOM     11  H   LIG    1       21.110 -22.330   4.519  0.00  0.00    +0.142 HD
ATOM     12  H   LIG    1       20.809 -20.693   4.787  0.00  0.00    +0.142 HD
ENDBRANCH   7  10
ENDBRANCH   1   4
BRANCH   1  13
ATOM     13  N   LIG    1       27.471 -21.896   7.264  0.00  0.00    -0.184 N 
ATOM     14  H   LIG    1       27.098 -22.063   6.335  0.00  0.00    +0.177 HD
BRANCH  13  18
ATOM     15  C   LIG    1       29.140 -18.060   5.083  0.00  0.00    +0.066 C 
ATOM     16  C   LIG    1       29.263 -19.077   6.177  0.00  0.00    +0.044 A 
ATOM     17  N   LIG    1       28.336 -20.051   6.218  0.00  0.00    -0.218 NA
ATOM     18  C   LIG    1       28.452 -20.911   7.231  0.00  0.00    +0.235 A 
ATOM     19  N   LIG    1       29.397 -20.936   8.172  0.00  0.00    -0.218 NA
ATOM     20  C   LIG    1       30.335 -19.973   8.076  0.00  0.00    +0.044 A 
ATOM     21  C   LIG    1       31.476 -20.017   9.048  0.00  0.00    +0.066 C 
ATOM     22  C   LIG    1       30.303 -19.005   7.087  0.00  0.00    +0.046 A 
ENDBRANCH  13  18
ENDBRANCH   1  13
TORSDOF 4
ENDMDL
MODEL 9
REMARK VINA RESULT:      -7.6      1.798      6.806
REMARK  Name = *****
REMARK                            x       y       z     vdW  Elec       q    Type
REMARK                         _______ _______ _______ _____ _____    ______ ____
ROOT
ATOM      1  S   LIG    1       26.886 -21.305   7.289  0.00  0.00    +0.075 S 
ATOM      2  O   LIG    1       27.083 -22.742   7.269  0.00  0.00    -0.150 OA
ATOM      3  O   LIG    1       26.051 -20.699   8.302  0.00  0.00    -0.150 OA
ENDROOT
BRANCH   1   4
ATOM      4  C   LIG    1       28.500 -20.577   7.366  0.00  0.00    +0.109 A 
ATOM      5  C   LIG    1       29.475 -21.151   8.184  0.00  0.00    +0.030 A 
ATOM      6  C   LIG    1       30.734 -20.552   8.271  0.00  0.00    +0.024 A 
ATOM      7  C   LIG    1       31.038 -19.409   7.523  0.00  0.00    +0.025 A 
ATOM      8  C   LIG    1       30.029 -18.814   6.760  0.00  0.00    +0.024 A 
ATOM      9  C   LIG    1       28.766 -19.402   6.661  0.00  0.00    +0.030 A 
BRANCH   7  10
ATOM     10  N   LIG    1       32.252 -18.742   7.722  0.00  0.00    -0.358 N 
ATOM     11  H   LIG    1       32.332 -17.872   7.206  0.00  0.00    +0.142 HD
ATOM     12  H   LIG    1       32.505 -18.635   8.699  0.00  0.00    +0.142 HD
ENDBRANCH   7  10
ENDBRANCH   1   4
BRANCH   1  13
ATOM     13  N   LIG    1       26.328 -20.896   5.767  0.00  0.00    -0.184 N 
ATOM     14  H   LIG    1       26.749 -21.509   5.077  0.00  0.00    +0.177 HD
BRANCH  13  18
ATOM     15  C   LIG    1       22.333 -23.274   6.573  0.00  0.00    +0.066 C 
ATOM     16  C   LIG    1       23.023 -22.058   6.031  0.00  0.00    +0.044 A 
ATOM     17  N   LIG    1       24.366 -22.027   6.108  0.00  0.00    -0.218 NA
ATOM     18  C   LIG    1       24.941 -20.912   5.658  0.00  0.00    +0.235 A 
ATOM     19  N   LIG    1       24.343 -19.853   5.110  0.00  0.00    -0.218 NA
ATOM     20  C   LIG    1       23.002 -19.934   5.008  0.00  0.00    +0.044 A 
ATOM     21  C   LIG    1       22.291 -18.816   4.306  0.00  0.00    +0.066 C 
ATOM     22  C   LIG    1       22.290 -21.028   5.469  0.00  0.00    +0.046 A 
ENDBRANCH  13  18
ENDBRANCH   1  13
TORSDOF 4
ENDMDL
