MODEL 1
REMARK VINA RESULT:      -8.8      0.000      0.000
REMARK  Name = *****
REMARK                            x       y       z     vdW  Elec       q    Type
REMARK                         _______ _______ _______ _____ _____    ______ ____
ROOT
ATOM      1  C   LIG    1       26.842 -19.974   5.463  0.00  0.00    +0.015 C 
ATOM      2  C   LIG    1       25.640 -20.495   5.728  0.00  0.00    -0.000 C 
ATOM      3  C   LIG    1       25.117 -21.403   6.826  0.00  0.00    +0.029 C 
ATOM      4  C   LIG    1       24.112 -22.308   6.054  0.00  0.00    -0.016 C 
ATOM      5  C   LIG    1       23.299 -21.093   5.512  0.00  0.00    +0.036 C 
ATOM      6  C   LIG    1       22.948 -20.296   6.794  0.00  0.00    +0.015 C 
ATOM      7  C   LIG    1       22.134 -21.376   4.595  0.00  0.00    +0.020 C 
ATOM      8  C   LIG    1       24.767 -23.188   4.965  0.00  0.00    +0.012 C 
ATOM      9  C   LIG    1       23.316 -23.263   6.964  0.00  0.00    +0.012 C 
ATOM     10  C   LIG    1       24.189 -20.522   7.699  0.00  0.00    +0.010 C 
ATOM     11  C   LIG    1       24.423 -20.279   4.876  0.00  0.00    +0.166 C 
ATOM     12  O   LIG    1       24.360 -19.555   3.899  0.00  0.00    -0.292 OA
ENDROOT
BRANCH   1  17
ATOM     13  C   LIG    1       31.471 -20.904   8.789  0.00  0.00    +0.044 C 
ATOM     14  C   LIG    1       30.262 -20.642   7.942  0.00  0.00    -0.050 A 
ATOM     15  C   LIG    1       30.225 -19.543   7.075  0.00  0.00    +0.004 A 
ATOM     16  C   LIG    1       29.109 -19.317   6.266  0.00  0.00    +0.008 A 
ATOM     17  C   LIG    1       28.023 -20.196   6.297  0.00  0.00    -0.025 A 
ATOM     18  C   LIG    1       28.059 -21.297   7.157  0.00  0.00    +0.008 A 
ATOM     19  C   LIG    1       29.173 -21.523   7.968  0.00  0.00    +0.004 A 
ENDBRANCH   1  17
TORSDOF 1
ENDMDL
MODEL 2
REMARK VINA RESULT:      -8.1      1.606      2.632
REMARK  Name = *****
REMARK                            x       y       z     vdW  Elec       q    Type
REMARK                         _______ _______ _______ _____ _____    ______ ____
ROOT
ATOM      1  C   LIG    1       27.174 -22.221   7.150  0.00  0.00    +0.015 C 
ATOM      2  C   LIG    1       25.973 -21.950   6.629  0.00  0.00    -0.000 C 
ATOM      3  C   LIG    1       25.346 -20.694   6.052  0.00  0.00    +0.029 C 
ATOM      4  C   LIG    1       23.876 -20.799   6.554  0.00  0.00    -0.016 C 
ATOM      5  C   LIG    1       23.668 -22.208   5.919  0.00  0.00    +0.036 C 
ATOM      6  C   LIG    1       24.071 -21.996   4.437  0.00  0.00    +0.015 C 
ATOM      7  C   LIG    1       22.337 -22.887   6.129  0.00  0.00    +0.020 C 
ATOM      8  C   LIG    1       23.732 -20.754   8.092  0.00  0.00    +0.012 C 
ATOM      9  C   LIG    1       22.953 -19.697   5.998  0.00  0.00    +0.012 C 
ATOM     10  C   LIG    1       25.211 -20.948   4.530  0.00  0.00    +0.010 C 
ATOM     11  C   LIG    1       24.860 -22.951   6.517  0.00  0.00    +0.166 C 
ATOM     12  O   LIG    1       24.934 -24.130   6.809  0.00  0.00    -0.292 OA
ENDROOT
BRANCH   1  17
ATOM     13  C   LIG    1       31.446 -18.366   7.644  0.00  0.00    +0.044 C 
ATOM     14  C   LIG    1       30.321 -19.350   7.530  0.00  0.00    -0.050 A 
ATOM     15  C   LIG    1       29.252 -19.111   6.657  0.00  0.00    +0.004 A 
ATOM     16  C   LIG    1       28.219 -20.044   6.531  0.00  0.00    +0.008 A 
ATOM     17  C   LIG    1       28.249 -21.235   7.261  0.00  0.00    -0.025 A 
ATOM     18  C   LIG    1       29.316 -21.479   8.129  0.00  0.00    +0.008 A 
ATOM     19  C   LIG    1       30.349 -20.547   8.257  0.00  0.00    +0.004 A 
ENDBRANCH   1  17
TORSDOF 1
ENDMDL
MODEL 3
REMARK VINA RESULT:      -8.0      1.623      2.777
REMARK  Name = *****
REMARK                            x       y       z     vdW  Elec       q    Type
REMARK                         _______ _______ _______ _____ _____    ______ ____
ROOT
ATOM      1  C   LIG    1       27.246 -22.249   7.255  0.00  0.00    +0.015 C 
ATOM      2  C   LIG    1       26.047 -21.980   6.729  0.00  0.00    -0.000 C 
ATOM      3  C   LIG    1       25.417 -20.722   6.161  0.00  0.00    +0.029 C 
ATOM      4  C   LIG    1       23.944 -20.840   6.653  0.00  0.00    -0.016 C 
ATOM      5  C   LIG    1       23.747 -22.244   6.003  0.00  0.00    +0.036 C 
ATOM      6  C   LIG    1       24.158 -22.016   4.526  0.00  0.00    +0.015 C 
ATOM      7  C   LIG    1       22.419 -22.932   6.200  0.00  0.00    +0.020 C 
ATOM      8  C   LIG    1       23.791 -20.810   8.190  0.00  0.00    +0.012 C 
ATOM      9  C   LIG    1       23.019 -19.738   6.101  0.00  0.00    +0.012 C 
ATOM     10  C   LIG    1       25.292 -20.963   4.635  0.00  0.00    +0.010 C 
ATOM     11  C   LIG    1       24.940 -22.986   6.601  0.00  0.00    +0.166 C 
ATOM     12  O   LIG    1       25.019 -24.168   6.883  0.00  0.00    -0.292 OA
ENDROOT
BRANCH   1  17
ATOM     13  C   LIG    1       31.440 -18.304   7.703  0.00  0.00    +0.044 C 
ATOM     14  C   LIG    1       30.368 -19.344   7.572  0.00  0.00    -0.050 A 
ATOM     15  C   LIG    1       30.432 -20.530   8.314  0.00  0.00    +0.004 A 
ATOM     16  C   LIG    1       29.418 -21.484   8.212  0.00  0.00    +0.008 A 
ATOM     17  C   LIG    1       28.315 -21.259   7.382  0.00  0.00    -0.025 A 
ATOM     18  C   LIG    1       28.245 -20.075   6.645  0.00  0.00    +0.008 A 
ATOM     19  C   LIG    1       29.260 -19.120   6.745  0.00  0.00    +0.004 A 
ENDBRANCH   1  17
TORSDOF 1
ENDMDL
MODEL 4
REMARK VINA RESULT:      -7.9      2.965      5.375
REMARK  Name = *****
REMARK                            x       y       z     vdW  Elec       q    Type
REMARK                         _______ _______ _______ _____ _____    ______ ____
ROOT
ATOM      1  C   LIG    1       24.827 -24.534   4.862  0.00  0.00    +0.015 C 
ATOM      2  C   LIG    1       24.711 -23.308   5.379  0.00  0.00    -0.000 C 
ATOM      3  C   LIG    1       24.729 -22.769   6.798  0.00  0.00    +0.029 C 
ATOM      4  C   LIG    1       23.655 -21.644   6.737  0.00  0.00    -0.016 C 
ATOM      5  C   LIG    1       24.360 -20.913   5.554  0.00  0.00    +0.036 C 
ATOM      6  C   LIG    1       25.808 -20.712   6.070  0.00  0.00    +0.015 C 
ATOM      7  C   LIG    1       23.702 -19.676   4.994  0.00  0.00    +0.020 C 
ATOM      8  C   LIG    1       22.228 -22.151   6.428  0.00  0.00    +0.012 C 
ATOM      9  C   LIG    1       23.550 -20.819   8.035  0.00  0.00    +0.012 C 
ATOM     10  C   LIG    1       26.053 -21.977   6.934  0.00  0.00    +0.010 C 
ATOM     11  C   LIG    1       24.487 -22.068   4.563  0.00  0.00    +0.166 C 
ATOM     12  O   LIG    1       24.462 -22.014   3.347  0.00  0.00    -0.292 OA
ENDROOT
BRANCH   1  17
ATOM     13  C   LIG    1       25.596 -29.308   8.019  0.00  0.00    +0.044 C 
ATOM     14  C   LIG    1       25.387 -28.056   7.221  0.00  0.00    -0.050 A 
ATOM     15  C   LIG    1       26.256 -26.968   7.365  0.00  0.00    +0.004 A 
ATOM     16  C   LIG    1       26.077 -25.813   6.599  0.00  0.00    +0.008 A 
ATOM     17  C   LIG    1       25.038 -25.737   5.667  0.00  0.00    -0.025 A 
ATOM     18  C   LIG    1       24.172 -26.823   5.518  0.00  0.00    +0.008 A 
ATOM     19  C   LIG    1       24.350 -27.978   6.284  0.00  0.00    +0.004 A 
ENDBRANCH   1  17
TORSDOF 1
ENDMDL
MODEL 5
REMARK VINA RESULT:      -7.5      3.429      5.892
REMARK  Name = *****
REMARK                            x       y       z     vdW  Elec       q    Type
REMARK                         _______ _______ _______ _____ _____    ______ ____
ROOT
ATOM      1  C   LIG    1       24.785 -25.263   5.138  0.00  0.00    +0.015 C 
ATOM      2  C   LIG    1       24.790 -24.029   5.652  0.00  0.00    -0.000 C 
ATOM      3  C   LIG    1       24.946 -23.486   7.061  0.00  0.00    +0.029 C 
ATOM      4  C   LIG    1       23.951 -22.290   7.065  0.00  0.00    -0.016 C 
ATOM      5  C   LIG    1       24.619 -21.615   5.828  0.00  0.00    +0.036 C 
ATOM      6  C   LIG    1       26.110 -21.512   6.239  0.00  0.00    +0.015 C 
ATOM      7  C   LIG    1       24.010 -20.338   5.305  0.00  0.00    +0.020 C 
ATOM      8  C   LIG    1       22.474 -22.698   6.861  0.00  0.00    +0.012 C 
ATOM      9  C   LIG    1       23.996 -21.454   8.359  0.00  0.00    +0.012 C 
ATOM     10  C   LIG    1       26.328 -22.788   7.095  0.00  0.00    +0.010 C 
ATOM     11  C   LIG    1       24.595 -22.780   4.841  0.00  0.00    +0.166 C 
ATOM     12  O   LIG    1       24.488 -22.730   3.630  0.00  0.00    -0.292 OA
ENDROOT
BRANCH   1  17
ATOM     13  C   LIG    1       25.565 -30.014   8.328  0.00  0.00    +0.044 C 
ATOM     14  C   LIG    1       25.376 -28.792   7.479  0.00  0.00    -0.050 A 
ATOM     15  C   LIG    1       24.436 -28.786   6.441  0.00  0.00    +0.004 A 
ATOM     16  C   LIG    1       24.241 -27.637   5.670  0.00  0.00    +0.008 A 
ATOM     17  C   LIG    1       24.968 -26.473   5.938  0.00  0.00    -0.025 A 
ATOM     18  C   LIG    1       25.902 -26.475   6.977  0.00  0.00    +0.008 A 
ATOM     19  C   LIG    1       26.100 -27.624   7.747  0.00  0.00    +0.004 A 
ENDBRANCH   1  17
TORSDOF 1
ENDMDL
MODEL 6
REMARK VINA RESULT:      -7.5      2.633      5.267
REMARK  Name = *****
REMARK                            x       y       z     vdW  Elec       q    Type
REMARK                         _______ _______ _______ _____ _____    ______ ____
ROOT
ATOM      1  C   LIG    1       24.356 -20.257   4.024  0.00  0.00    +0.015 C 
ATOM      2  C   LIG    1       24.499 -20.963   5.150  0.00  0.00    -0.000 C 
ATOM      3  C   LIG    1       24.530 -20.586   6.620  0.00  0.00    +0.029 C 
ATOM      4  C   LIG    1       25.610 -21.555   7.185  0.00  0.00    -0.016 C 
ATOM      5  C   LIG    1       24.871 -22.824   6.661  0.00  0.00    +0.036 C 
ATOM      6  C   LIG    1       23.442 -22.673   7.243  0.00  0.00    +0.015 C 
ATOM      7  C   LIG    1       25.519 -24.166   6.896  0.00  0.00    +0.020 C 
ATOM      8  C   LIG    1       27.022 -21.337   6.596  0.00  0.00    +0.012 C 
ATOM      9  C   LIG    1       25.762 -21.483   8.718  0.00  0.00    +0.012 C 
ATOM     10  C   LIG    1       23.217 -21.138   7.227  0.00  0.00    +0.010 C 
ATOM     11  C   LIG    1       24.704 -22.449   5.190  0.00  0.00    +0.166 C 
ATOM     12  O   LIG    1       24.690 -23.194   4.228  0.00  0.00    -0.292 OA
ENDROOT
BRANCH   1  17
ATOM     13  C   LIG    1       23.666 -14.524   3.900  0.00  0.00    +0.044 C 
ATOM     14  C   LIG    1       23.847 -16.012   3.960  0.00  0.00    -0.050 A 
ATOM     15  C   LIG    1       22.793 -16.841   4.364  0.00  0.00    +0.004 A 
ATOM     16  C   LIG    1       22.954 -18.228   4.391  0.00  0.00    +0.008 A 
ATOM     17  C   LIG    1       24.164 -18.807   3.996  0.00  0.00    -0.025 A 
ATOM     18  C   LIG    1       25.215 -17.983   3.587  0.00  0.00    +0.008 A 
ATOM     19  C   LIG    1       25.056 -16.595   3.561  0.00  0.00    +0.004 A 
ENDBRANCH   1  17
TORSDOF 1
ENDMDL
MODEL 7
REMARK VINA RESULT:      -7.2      1.722      2.545
REMARK  Name = *****
REMARK                            x       y       z     vdW  Elec       q    Type
REMARK                         _______ _______ _______ _____ _____    ______ ____
ROOT
ATOM      1  C   LIG    1       26.001 -20.447   7.645  0.00  0.00    +0.015 C 
ATOM      2  C   LIG    1       25.406 -21.530   7.136  0.00  0.00    -0.000 C 
ATOM      3  C   LIG    1       25.886 -22.663   6.247  0.00  0.00    +0.029 C 
ATOM      4  C   LIG    1       24.647 -22.916   5.339  0.00  0.00    -0.016 C 
ATOM      5  C   LIG    1       23.695 -23.148   6.552  0.00  0.00    +0.036 C 
ATOM      6  C   LIG    1       24.419 -24.249   7.369  0.00  0.00    +0.015 C 
ATOM      7  C   LIG    1       22.238 -23.417   6.265  0.00  0.00    +0.020 C 
ATOM      8  C   LIG    1       24.270 -21.717   4.439  0.00  0.00    +0.012 C 
ATOM      9  C   LIG    1       24.806 -24.130   4.402  0.00  0.00    +0.012 C 
ATOM     10  C   LIG    1       25.919 -23.923   7.147  0.00  0.00    +0.010 C 
ATOM     11  C   LIG    1       23.960 -21.873   7.348  0.00  0.00    +0.166 C 
ATOM     12  O   LIG    1       23.183 -21.262   8.060  0.00  0.00    -0.292 OA
ENDROOT
BRANCH   1  17
ATOM     13  C   LIG    1       31.569 -19.138   6.847  0.00  0.00    +0.044 C 
ATOM     14  C   LIG    1       30.116 -19.452   7.047  0.00  0.00    -0.050 A 
ATOM     15  C   LIG    1       29.269 -19.632   5.947  0.00  0.00    +0.004 A 
ATOM     16  C   LIG    1       27.923 -19.953   6.135  0.00  0.00    +0.008 A 
ATOM     17  C   LIG    1       27.409 -20.118   7.425  0.00  0.00    -0.025 A 
ATOM     18  C   LIG    1       28.253 -19.946   8.524  0.00  0.00    +0.008 A 
ATOM     19  C   LIG    1       29.599 -19.622   8.337  0.00  0.00    +0.004 A 
ENDBRANCH   1  17
TORSDOF 1
ENDMDL
MODEL 8
REMARK VINA RESULT:      -6.9      7.472      9.706
REMARK  Name = *****
REMARK                            x       y       z     vdW  Elec       q    Type
REMARK                         _______ _______ _______ _____ _____    ______ ____
ROOT
ATOM      1  C   LIG    1       24.386 -29.376   6.188  0.00  0.00    +0.015 C 
ATOM      2  C   LIG    1       24.370 -30.246   7.202  0.00  0.00    -0.000 C 
ATOM      3  C   LIG    1       24.702 -30.132   8.679  0.00  0.00    +0.029 C 
ATOM      4  C   LIG    1       25.385 -31.501   8.969  0.00  0.00    -0.016 C 
ATOM      5  C   LIG    1       24.167 -32.320   8.444  0.00  0.00    +0.036 C 
ATOM      6  C   LIG    1       22.975 -31.750   9.255  0.00  0.00    +0.015 C 
ATOM      7  C   LIG    1       24.277 -33.825   8.441  0.00  0.00    +0.020 C 
ATOM      8  C   LIG    1       26.701 -31.724   8.191  0.00  0.00    +0.012 C 
ATOM      9  C   LIG    1       25.718 -31.721  10.458  0.00  0.00    +0.012 C 
ATOM     10  C   LIG    1       23.351 -30.254   9.427  0.00  0.00    +0.010 C 
ATOM     11  C   LIG    1       23.997 -31.694   7.062  0.00  0.00    +0.166 C 
ATOM     12  O   LIG    1       23.596 -32.228   6.045  0.00  0.00    -0.292 OA
ENDROOT
BRANCH   1  17
ATOM     13  C   LIG    1       25.811 -23.804   6.712  0.00  0.00    +0.044 C 
ATOM     14  C   LIG    1       25.463 -25.254   6.560  0.00  0.00    -0.050 A 
ATOM     15  C   LIG    1       26.178 -26.234   7.260  0.00  0.00    +0.004 A 
ATOM     16  C   LIG    1       25.833 -27.583   7.140  0.00  0.00    +0.008 A 
ATOM     17  C   LIG    1       24.758 -27.969   6.334  0.00  0.00    -0.025 A 
ATOM     18  C   LIG    1       24.040 -26.993   5.639  0.00  0.00    +0.008 A 
ATOM     19  C   LIG    1       24.384 -25.644   5.757  0.00  0.00    +0.004 A 
ENDBRANCH   1  17
TORSDOF 1
ENDMDL
MODEL 9
REMARK VINA RESULT:      -6.9      3.101      5.631
REMARK  Name = *****
REMARK                            x       y       z     vdW  Elec       q    Type
REMARK                         _______ _______ _______ _____ _____    ______ ____
ROOT
ATOM      1  C   LIG    1       26.028 -24.247   6.394  0.00  0.00    +0.015 C 
ATOM      2  C   LIG    1       25.223 -23.184   6.298  0.00  0.00    -0.000 C 
ATOM      3  C   LIG    1       23.719 -23.024   6.173  0.00  0.00    +0.029 C 
ATOM      4  C   LIG    1       23.596 -21.817   5.198  0.00  0.00    -0.016 C 
ATOM      5  C   LIG    1       24.466 -20.888   6.098  0.00  0.00    +0.036 C 
ATOM      6  C   LIG    1       23.766 -20.969   7.479  0.00  0.00    +0.015 C 
ATOM      7  C   LIG    1       24.749 -19.490   5.605  0.00  0.00    +0.020 C 
ATOM      8  C   LIG    1       24.176 -22.084   3.790  0.00  0.00    +0.012 C 
ATOM      9  C   LIG    1       22.146 -21.338   4.987  0.00  0.00    +0.012 C 
ATOM     10  C   LIG    1       23.242 -22.429   7.522  0.00  0.00    +0.010 C 
ATOM     11  C   LIG    1       25.706 -21.763   6.268  0.00  0.00    +0.166 C 
ATOM     12  O   LIG    1       26.861 -21.403   6.403  0.00  0.00    -0.292 OA
ENDROOT
BRANCH   1  17
ATOM     13  C   LIG    1       24.181 -29.717   6.521  0.00  0.00    +0.044 C 
ATOM     14  C   LIG    1       24.675 -28.302   6.466  0.00  0.00    -0.050 A 
ATOM     15  C   LIG    1       24.148 -27.401   5.532  0.00  0.00    +0.004 A 
ATOM     16  C   LIG    1       24.589 -26.076   5.501  0.00  0.00    +0.008 A 
ATOM     17  C   LIG    1       25.547 -25.628   6.414  0.00  0.00    -0.025 A 
ATOM     18  C   LIG    1       26.070 -26.523   7.351  0.00  0.00    +0.008 A 
ATOM     19  C   LIG    1       25.632 -27.849   7.382  0.00  0.00    +0.004 A 
ENDBRANCH   1  17
TORSDOF 1
ENDMDL
