MODEL 1
REMARK VINA RESULT:      -6.0      0.000      0.000
REMARK  Name = *****
REMARK                            x       y       z     vdW  Elec       q    Type
REMARK                         _______ _______ _______ _____ _____    ______ ____
ROOT
ATOM      1  C   LIG    1       27.541 -29.730  13.572  0.00  0.00    +0.042 C 
ATOM      2  C   LIG    1       26.699 -29.463  12.315  0.00  0.00    +0.069 C 
ATOM      3  C   LIG    1       25.144 -29.430  12.553  0.00  0.00    -0.000 C 
ATOM      4  C   LIG    1       24.367 -29.756  11.241  0.00  0.00    +0.014 C 
ATOM      5  C   LIG    1       24.874 -27.926  12.867  0.00  0.00    +0.001 C 
ATOM      6  C   LIG    1       24.164 -27.552  14.183  0.00  0.00    -0.004 C 
ATOM      7  C   LIG    1       23.189 -28.656  14.736  0.00  0.00    -0.001 C 
ATOM      8  C   LIG    1       24.230 -29.820  14.927  0.00  0.00    +0.005 C 
ATOM      9  C   LIG    1       21.736 -28.965  13.905  0.00  0.00    -0.022 C 
ATOM     10  C   LIG    1       21.403 -30.073  15.117  0.00  0.00    +0.012 C 
ATOM     11  C   LIG    1       21.390 -27.366  13.734  0.00  0.00    +0.003 C 
ATOM     12  C   LIG    1       20.682 -26.791  14.958  0.00  0.00    +0.083 C 
ATOM     13  C   LIG    1       19.266 -26.991  14.546  0.00  0.00    +0.162 C 
ATOM     14  O   LIG    1       18.505 -26.101  14.254  0.00  0.00    -0.292 OA
ATOM     15  C   LIG    1       18.951 -28.440  14.336  0.00  0.00    +0.029 C 
ATOM     16  C   LIG    1       18.214 -28.887  15.366  0.00  0.00    +0.190 C 
ATOM     17  C   LIG    1       22.349 -26.345  13.153  0.00  0.00    +0.005 C 
ATOM     18  C   LIG    1       20.072 -29.224  13.573  0.00  0.00    +0.049 C 
ATOM     19  C   LIG    1       23.535 -26.183  14.040  0.00  0.00    +0.004 C 
ATOM     20  C   LIG    1       26.210 -27.169  12.718  0.00  0.00    +0.007 C 
ATOM     21  C   LIG    1       24.622 -30.444  13.601  0.00  0.00    +0.010 C 
ATOM     22  C   LIG    1       27.011 -28.053  11.788  0.00  0.00    +0.035 C 
ENDROOT
BRANCH   2  23
ATOM     23  O   LIG    1       27.080 -30.442  11.357  0.00  0.00    -0.388 OA
ATOM     24  H   LIG    1       26.597 -31.263  11.545  0.00  0.00    +0.210 HD
ENDBRANCH   2  23
BRANCH  16  25
ATOM     25  O   LIG    1       16.875 -28.486  15.500  0.00  0.00    -0.514 OA
ATOM     26  H   LIG    1       16.305 -29.259  15.322  0.00  0.00    +0.291 HD
ENDBRANCH  16  25
TORSDOF 2
ENDMDL
MODEL 2
REMARK VINA RESULT:      -5.6      3.039      5.839
REMARK  Name = *****
REMARK                            x       y       z     vdW  Elec       q    Type
REMARK                         _______ _______ _______ _____ _____    ______ ____
ROOT
ATOM      1  C   LIG    1       21.666 -31.789  11.846  0.00  0.00    +0.042 C 
ATOM      2  C   LIG    1       21.634 -31.485  13.352  0.00  0.00    +0.069 C 
ATOM      3  C   LIG    1       22.694 -30.430  13.839  0.00  0.00    -0.000 C 
ATOM      4  C   LIG    1       23.014 -30.612  15.354  0.00  0.00    +0.014 C 
ATOM      5  C   LIG    1       21.925 -29.080  13.705  0.00  0.00    +0.001 C 
ATOM      6  C   LIG    1       22.537 -27.949  12.856  0.00  0.00    -0.004 C 
ATOM      7  C   LIG    1       24.109 -27.967  12.781  0.00  0.00    -0.001 C 
ATOM      8  C   LIG    1       24.301 -29.382  12.122  0.00  0.00    +0.005 C 
ATOM      9  C   LIG    1       25.006 -27.566  14.172  0.00  0.00    -0.022 C 
ATOM     10  C   LIG    1       26.370 -27.767  13.219  0.00  0.00    +0.012 C 
ATOM     11  C   LIG    1       24.068 -26.257  14.507  0.00  0.00    +0.003 C 
ATOM     12  C   LIG    1       24.511 -25.012  13.742  0.00  0.00    +0.083 C 
ATOM     13  C   LIG    1       25.439 -24.420  14.743  0.00  0.00    +0.162 C 
ATOM     14  O   LIG    1       25.225 -23.406  15.361  0.00  0.00    -0.292 OA
ATOM     15  C   LIG    1       26.583 -25.338  15.047  0.00  0.00    +0.029 C 
ATOM     16  C   LIG    1       27.694 -24.875  14.451  0.00  0.00    +0.190 C 
ATOM     17  C   LIG    1       22.555 -26.298  14.612  0.00  0.00    +0.005 C 
ATOM     18  C   LIG    1       26.161 -26.837  15.211  0.00  0.00    +0.049 C 
ATOM     19  C   LIG    1       21.952 -26.623  13.290  0.00  0.00    +0.004 C 
ATOM     20  C   LIG    1       20.486 -29.402  13.251  0.00  0.00    +0.007 C 
ATOM     21  C   LIG    1       24.064 -30.501  13.120  0.00  0.00    +0.010 C 
ATOM     22  C   LIG    1       20.288 -30.831  13.706  0.00  0.00    +0.035 C 
ENDROOT
BRANCH   2  23
ATOM     23  O   LIG    1       21.765 -32.734  14.019  0.00  0.00    -0.388 OA
ATOM     24  H   LIG    1       22.530 -33.204  13.647  0.00  0.00    +0.210 HD
ENDBRANCH   2  23
BRANCH  16  25
ATOM     25  O   LIG    1       28.326 -23.720  14.940  0.00  0.00    -0.514 OA
ATOM     26  H   LIG    1       29.062 -23.998  15.520  0.00  0.00    +0.291 HD
ENDBRANCH  16  25
TORSDOF 2
ENDMDL
MODEL 3
REMARK VINA RESULT:      -5.3      2.444      6.235
REMARK  Name = *****
REMARK                            x       y       z     vdW  Elec       q    Type
REMARK                         _______ _______ _______ _____ _____    ______ ____
ROOT
ATOM      1  C   LIG    1       18.397 -31.381  12.325  0.00  0.00    +0.042 C 
ATOM      2  C   LIG    1       18.948 -31.332  13.759  0.00  0.00    +0.069 C 
ATOM      3  C   LIG    1       20.362 -30.656  13.902  0.00  0.00    -0.000 C 
ATOM      4  C   LIG    1       21.097 -31.157  15.183  0.00  0.00    +0.014 C 
ATOM      5  C   LIG    1       20.006 -29.158  14.151  0.00  0.00    +0.001 C 
ATOM      6  C   LIG    1       20.598 -28.083  13.219  0.00  0.00    -0.004 C 
ATOM      7  C   LIG    1       21.985 -28.464  12.580  0.00  0.00    -0.001 C 
ATOM      8  C   LIG    1       21.542 -29.755  11.800  0.00  0.00    +0.005 C 
ATOM      9  C   LIG    1       23.364 -28.525  13.578  0.00  0.00    -0.022 C 
ATOM     10  C   LIG    1       24.223 -28.887  12.186  0.00  0.00    +0.012 C 
ATOM     11  C   LIG    1       22.998 -27.103  14.320  0.00  0.00    +0.003 C 
ATOM     12  C   LIG    1       23.497 -25.892  13.536  0.00  0.00    +0.083 C 
ATOM     13  C   LIG    1       24.830 -25.713  14.173  0.00  0.00    +0.162 C 
ATOM     14  O   LIG    1       25.126 -24.794  14.896  0.00  0.00    -0.292 OA
ATOM     15  C   LIG    1       25.702 -26.916  13.979  0.00  0.00    +0.029 C 
ATOM     16  C   LIG    1       26.638 -26.640  13.055  0.00  0.00    +0.190 C 
ATOM     17  C   LIG    1       21.658 -26.797  14.961  0.00  0.00    +0.005 C 
ATOM     18  C   LIG    1       24.952 -28.276  14.178  0.00  0.00    +0.049 C 
ATOM     19  C   LIG    1       20.588 -26.746  13.927  0.00  0.00    +0.004 C 
ATOM     20  C   LIG    1       18.469 -29.047  14.225  0.00  0.00    +0.007 C 
ATOM     21  C   LIG    1       21.340 -30.934  12.734  0.00  0.00    +0.010 C 
ATOM     22  C   LIG    1       18.037 -30.442  14.620  0.00  0.00    +0.035 C 
ENDROOT
BRANCH   2  23
ATOM     23  O   LIG    1       18.934 -32.668  14.244  0.00  0.00    -0.388 OA
ATOM     24  H   LIG    1       18.110 -32.807  14.741  0.00  0.00    +0.210 HD
ENDBRANCH   2  23
BRANCH  16  25
ATOM     25  O   LIG    1       27.694 -25.768  13.363  0.00  0.00    -0.514 OA
ATOM     26  H   LIG    1       28.535 -26.240  13.207  0.00  0.00    +0.291 HD
ENDBRANCH  16  25
TORSDOF 2
ENDMDL
MODEL 4
REMARK VINA RESULT:      -5.2      4.064      6.965
REMARK  Name = *****
REMARK                            x       y       z     vdW  Elec       q    Type
REMARK                         _______ _______ _______ _____ _____    ______ ____
ROOT
ATOM      1  C   LIG    1       23.683 -32.152   5.751  0.00  0.00    +0.042 C 
ATOM      2  C   LIG    1       24.421 -32.978   6.816  0.00  0.00    +0.069 C 
ATOM      3  C   LIG    1       25.128 -32.132   7.939  0.00  0.00    -0.000 C 
ATOM      4  C   LIG    1       26.300 -32.930   8.589  0.00  0.00    +0.014 C 
ATOM      5  C   LIG    1       24.019 -32.005   9.027  0.00  0.00    +0.001 C 
ATOM      6  C   LIG    1       23.599 -30.602   9.508  0.00  0.00    -0.004 C 
ATOM      7  C   LIG    1       24.730 -29.512   9.410  0.00  0.00    -0.001 C 
ATOM      8  C   LIG    1       24.978 -29.564   7.857  0.00  0.00    +0.005 C 
ATOM      9  C   LIG    1       26.060 -29.605  10.469  0.00  0.00    -0.022 C 
ATOM     10  C   LIG    1       26.595 -28.189   9.751  0.00  0.00    +0.012 C 
ATOM     11  C   LIG    1       25.108 -29.897  11.779  0.00  0.00    +0.003 C 
ATOM     12  C   LIG    1       24.572 -28.612  12.406  0.00  0.00    +0.083 C 
ATOM     13  C   LIG    1       25.636 -28.364  13.417  0.00  0.00    +0.162 C 
ATOM     14  O   LIG    1       25.486 -28.469  14.609  0.00  0.00    -0.292 OA
ATOM     15  C   LIG    1       26.974 -28.168  12.775  0.00  0.00    +0.029 C 
ATOM     16  C   LIG    1       27.299 -26.865  12.815  0.00  0.00    +0.190 C 
ATOM     17  C   LIG    1       24.058 -30.990  11.843  0.00  0.00    +0.005 C 
ATOM     18  C   LIG    1       27.267 -29.173  11.610  0.00  0.00    +0.049 C 
ATOM     19  C   LIG    1       22.961 -30.712  10.875  0.00  0.00    +0.004 C 
ATOM     20  C   LIG    1       22.798 -32.819   8.550  0.00  0.00    +0.007 C 
ATOM     21  C   LIG    1       25.758 -30.802   7.455  0.00  0.00    +0.010 C 
ATOM     22  C   LIG    1       23.401 -33.825   7.595  0.00  0.00    +0.035 C 
ENDROOT
BRANCH   2  23
ATOM     23  O   LIG    1       25.329 -33.820   6.118  0.00  0.00    -0.388 OA
ATOM     24  H   LIG    1       25.946 -33.261   5.617  0.00  0.00    +0.210 HD
ENDBRANCH   2  23
BRANCH  16  25
ATOM     25  O   LIG    1       27.656 -26.266  14.034  0.00  0.00    -0.514 OA
ATOM     26  H   LIG    1       28.462 -25.735  13.888  0.00  0.00    +0.291 HD
ENDBRANCH  16  25
TORSDOF 2
ENDMDL
MODEL 5
REMARK VINA RESULT:      -5.1      2.482      7.295
REMARK  Name = *****
REMARK                            x       y       z     vdW  Elec       q    Type
REMARK                         _______ _______ _______ _____ _____    ______ ____
ROOT
ATOM      1  C   LIG    1       19.060 -32.593  12.992  0.00  0.00    +0.042 C 
ATOM      2  C   LIG    1       19.168 -31.157  12.457  0.00  0.00    +0.069 C 
ATOM      3  C   LIG    1       20.628 -30.571  12.419  0.00  0.00    -0.000 C 
ATOM      4  C   LIG    1       20.610 -29.013  12.458  0.00  0.00    +0.014 C 
ATOM      5  C   LIG    1       21.126 -30.975  10.998  0.00  0.00    +0.001 C 
ATOM      6  C   LIG    1       22.428 -31.789  10.864  0.00  0.00    -0.004 C 
ATOM      7  C   LIG    1       23.468 -31.554  12.021  0.00  0.00    -0.001 C 
ATOM      8  C   LIG    1       22.586 -32.030  13.234  0.00  0.00    +0.005 C 
ATOM      9  C   LIG    1       24.275 -30.057  12.114  0.00  0.00    -0.022 C 
ATOM     10  C   LIG    1       25.095 -30.703  13.425  0.00  0.00    +0.012 C 
ATOM     11  C   LIG    1       24.600 -30.033  10.502  0.00  0.00    +0.003 C 
ATOM     12  C   LIG    1       25.869 -30.807  10.153  0.00  0.00    +0.083 C 
ATOM     13  C   LIG    1       26.864 -29.703  10.222  0.00  0.00    +0.162 C 
ATOM     14  O   LIG    1       27.435 -29.234   9.268  0.00  0.00    -0.292 OA
ATOM     15  C   LIG    1       26.925 -29.099  11.591  0.00  0.00    +0.029 C 
ATOM     16  C   LIG    1       28.048 -29.507  12.206  0.00  0.00    +0.190 C 
ATOM     17  C   LIG    1       23.555 -30.222   9.419  0.00  0.00    +0.005 C 
ATOM     18  C   LIG    1       25.520 -28.884  12.248  0.00  0.00    +0.049 C 
ATOM     19  C   LIG    1       22.995 -31.600   9.473  0.00  0.00    +0.004 C 
ATOM     20  C   LIG    1       19.957 -31.670  10.270  0.00  0.00    +0.007 C 
ATOM     21  C   LIG    1       21.534 -30.999  13.601  0.00  0.00    +0.010 C 
ATOM     22  C   LIG    1       18.735 -31.133  10.982  0.00  0.00    +0.035 C 
ENDROOT
BRANCH   2  23
ATOM     23  O   LIG    1       18.286 -30.365  13.242  0.00  0.00    -0.388 OA
ATOM     24  H   LIG    1       18.758 -29.563  13.523  0.00  0.00    +0.210 HD
ENDBRANCH   2  23
BRANCH  16  25
ATOM     25  O   LIG    1       29.296 -29.012  11.794  0.00  0.00    -0.514 OA
ATOM     26  H   LIG    1       29.824 -28.814  12.592  0.00  0.00    +0.291 HD
ENDBRANCH  16  25
TORSDOF 2
ENDMDL
MODEL 6
REMARK VINA RESULT:      -5.1      3.420      7.040
REMARK  Name = *****
REMARK                            x       y       z     vdW  Elec       q    Type
REMARK                         _______ _______ _______ _____ _____    ______ ____
ROOT
ATOM      1  C   LIG    1       26.540 -28.143  15.053  0.00  0.00    +0.042 C 
ATOM      2  C   LIG    1       25.064 -28.310  14.660  0.00  0.00    +0.069 C 
ATOM      3  C   LIG    1       24.813 -28.592  13.133  0.00  0.00    -0.000 C 
ATOM      4  C   LIG    1       23.375 -28.161  12.711  0.00  0.00    +0.014 C 
ATOM      5  C   LIG    1       24.850 -30.149  13.058  0.00  0.00    +0.001 C 
ATOM      6  C   LIG    1       25.834 -30.829  12.086  0.00  0.00    -0.004 C 
ATOM      7  C   LIG    1       26.191 -29.974  10.814  0.00  0.00    -0.001 C 
ATOM      8  C   LIG    1       26.825 -28.728  11.534  0.00  0.00    +0.005 C 
ATOM      9  C   LIG    1       24.999 -29.731   9.622  0.00  0.00    -0.022 C 
ATOM     10  C   LIG    1       26.175 -28.895   8.770  0.00  0.00    +0.012 C 
ATOM     11  C   LIG    1       24.544 -31.312   9.629  0.00  0.00    +0.003 C 
ATOM     12  C   LIG    1       25.418 -32.172   8.720  0.00  0.00    +0.083 C 
ATOM     13  C   LIG    1       24.622 -32.100   7.465  0.00  0.00    +0.162 C 
ATOM     14  O   LIG    1       24.009 -33.024   6.988  0.00  0.00    -0.292 OA
ATOM     15  C   LIG    1       24.499 -30.693   6.969  0.00  0.00    +0.029 C 
ATOM     16  C   LIG    1       25.301 -30.526   5.904  0.00  0.00    +0.190 C 
ATOM     17  C   LIG    1       24.166 -32.083  10.879  0.00  0.00    +0.005 C 
ATOM     18  C   LIG    1       24.211 -29.649   8.100  0.00  0.00    +0.049 C 
ATOM     19  C   LIG    1       25.345 -32.227  11.776  0.00  0.00    +0.004 C 
ATOM     20  C   LIG    1       25.026 -30.684  14.495  0.00  0.00    +0.007 C 
ATOM     21  C   LIG    1       25.764 -27.845  12.165  0.00  0.00    +0.010 C 
ATOM     22  C   LIG    1       24.495 -29.558  15.354  0.00  0.00    +0.035 C 
ENDROOT
BRANCH   2  23
ATOM     23  O   LIG    1       24.390 -27.143  15.114  0.00  0.00    -0.388 OA
ATOM     24  H   LIG    1       23.993 -26.697  14.348  0.00  0.00    +0.210 HD
ENDBRANCH   2  23
BRANCH  16  25
ATOM     25  O   LIG    1       24.973 -31.121   4.676  0.00  0.00    -0.514 OA
ATOM     26  H   LIG    1       24.797 -32.069   4.833  0.00  0.00    +0.291 HD
ENDBRANCH  16  25
TORSDOF 2
ENDMDL
MODEL 7
REMARK VINA RESULT:      -5.1      2.157      3.246
REMARK  Name = *****
REMARK                            x       y       z     vdW  Elec       q    Type
REMARK                         _______ _______ _______ _____ _____    ______ ____
ROOT
ATOM      1  C   LIG    1       25.669 -33.077   9.643  0.00  0.00    +0.042 C 
ATOM      2  C   LIG    1       25.555 -31.647   9.092  0.00  0.00    +0.069 C 
ATOM      3  C   LIG    1       24.513 -30.732   9.835  0.00  0.00    -0.000 C 
ATOM      4  C   LIG    1       24.018 -29.578   8.911  0.00  0.00    +0.014 C 
ATOM      5  C   LIG    1       25.373 -30.068  10.954  0.00  0.00    +0.001 C 
ATOM      6  C   LIG    1       24.927 -30.206  12.423  0.00  0.00    -0.004 C 
ATOM      7  C   LIG    1       23.375 -30.373  12.621  0.00  0.00    -0.001 C 
ATOM      8  C   LIG    1       23.171 -31.702  11.805  0.00  0.00    +0.005 C 
ATOM      9  C   LIG    1       22.356 -29.043  12.316  0.00  0.00    -0.022 C 
ATOM     10  C   LIG    1       21.096 -30.033  12.804  0.00  0.00    +0.012 C 
ATOM     11  C   LIG    1       23.330 -27.998  13.132  0.00  0.00    +0.003 C 
ATOM     12  C   LIG    1       23.049 -27.993  14.632  0.00  0.00    +0.083 C 
ATOM     13  C   LIG    1       22.054 -26.889  14.699  0.00  0.00    +0.162 C 
ATOM     14  O   LIG    1       22.260 -25.810  15.196  0.00  0.00    -0.292 OA
ATOM     15  C   LIG    1       20.830 -27.199  13.893  0.00  0.00    +0.029 C 
ATOM     16  C   LIG    1       19.821 -27.515  14.722  0.00  0.00    +0.190 C 
ATOM     17  C   LIG    1       24.816 -27.841  12.875  0.00  0.00    +0.005 C 
ATOM     18  C   LIG    1       21.140 -27.846  12.501  0.00  0.00    +0.049 C 
ATOM     19  C   LIG    1       25.540 -29.090  13.239  0.00  0.00    +0.004 C 
ATOM     20  C   LIG    1       26.830 -30.537  10.767  0.00  0.00    +0.007 C 
ATOM     21  C   LIG    1       23.228 -31.456  10.309  0.00  0.00    +0.010 C 
ATOM     22  C   LIG    1       26.890 -30.916   9.303  0.00  0.00    +0.035 C 
ENDROOT
BRANCH   2  23
ATOM     23  O   LIG    1       25.275 -31.770   7.703  0.00  0.00    -0.388 OA
ATOM     24  H   LIG    1       24.454 -31.288   7.509  0.00  0.00    +0.210 HD
ENDBRANCH   2  23
BRANCH  16  25
ATOM     25  O   LIG    1       19.211 -26.519  15.499  0.00  0.00    -0.514 OA
ATOM     26  H   LIG    1       19.287 -25.670  15.022  0.00  0.00    +0.291 HD
ENDBRANCH  16  25
TORSDOF 2
ENDMDL
MODEL 8
REMARK VINA RESULT:      -5.0      5.189      8.048
REMARK  Name = *****
REMARK                            x       y       z     vdW  Elec       q    Type
REMARK                         _______ _______ _______ _____ _____    ______ ____
ROOT
ATOM      1  C   LIG    1       24.530 -33.825   3.825  0.00  0.00    +0.042 C 
ATOM      2  C   LIG    1       25.454 -32.624   4.080  0.00  0.00    +0.069 C 
ATOM      3  C   LIG    1       25.244 -31.908   5.465  0.00  0.00    -0.000 C 
ATOM      4  C   LIG    1       25.734 -30.429   5.413  0.00  0.00    +0.014 C 
ATOM      5  C   LIG    1       26.231 -32.671   6.401  0.00  0.00    +0.001 C 
ATOM      6  C   LIG    1       25.690 -33.323   7.688  0.00  0.00    -0.004 C 
ATOM      7  C   LIG    1       24.422 -32.617   8.295  0.00  0.00    -0.001 C 
ATOM      8  C   LIG    1       23.444 -32.795   7.076  0.00  0.00    +0.005 C 
ATOM      9  C   LIG    1       24.594 -31.080   9.008  0.00  0.00    -0.022 C 
ATOM     10  C   LIG    1       22.962 -31.183   9.370  0.00  0.00    +0.012 C 
ATOM     11  C   LIG    1       25.947 -31.519   9.836  0.00  0.00    +0.003 C 
ATOM     12  C   LIG    1       25.620 -32.205  11.160  0.00  0.00    +0.083 C 
ATOM     13  C   LIG    1       25.628 -31.023  12.064  0.00  0.00    +0.162 C 
ATOM     14  O   LIG    1       26.465 -30.809  12.905  0.00  0.00    -0.292 OA
ATOM     15  C   LIG    1       24.587 -30.021  11.671  0.00  0.00    +0.029 C 
ATOM     16  C   LIG    1       23.564 -30.079  12.541  0.00  0.00    +0.190 C 
ATOM     17  C   LIG    1       27.165 -32.159   9.199  0.00  0.00    +0.005 C 
ATOM     18  C   LIG    1       24.492 -29.782  10.126  0.00  0.00    +0.049 C 
ATOM     19  C   LIG    1       26.825 -33.510   8.671  0.00  0.00    +0.004 C 
ATOM     20  C   LIG    1       27.001 -33.693   5.539  0.00  0.00    +0.007 C 
ATOM     21  C   LIG    1       23.774 -31.835   5.947  0.00  0.00    +0.010 C 
ATOM     22  C   LIG    1       26.910 -33.112   4.145  0.00  0.00    +0.035 C 
ENDROOT
BRANCH   2  23
ATOM     23  O   LIG    1       25.280 -31.739   2.980  0.00  0.00    -0.388 OA
ATOM     24  H   LIG    1       24.359 -31.428   2.976  0.00  0.00    +0.210 HD
ENDBRANCH   2  23
BRANCH  16  25
ATOM     25  O   LIG    1       23.723 -29.590  13.847  0.00  0.00    -0.514 OA
ATOM     26  H   LIG    1       24.297 -28.801  13.810  0.00  0.00    +0.291 HD
ENDBRANCH  16  25
TORSDOF 2
ENDMDL
MODEL 9
REMARK VINA RESULT:      -5.0      1.895      3.285
REMARK  Name = *****
REMARK                            x       y       z     vdW  Elec       q    Type
REMARK                         _______ _______ _______ _____ _____    ______ ____
ROOT
ATOM      1  C   LIG    1       26.347 -25.925  12.893  0.00  0.00    +0.042 C 
ATOM      2  C   LIG    1       26.325 -27.165  13.800  0.00  0.00    +0.069 C 
ATOM      3  C   LIG    1       24.889 -27.691  14.168  0.00  0.00    -0.000 C 
ATOM      4  C   LIG    1       24.912 -28.506  15.497  0.00  0.00    +0.014 C 
ATOM      5  C   LIG    1       24.591 -28.710  13.026  0.00  0.00    +0.001 C 
ATOM      6  C   LIG    1       23.315 -28.535  12.180  0.00  0.00    -0.004 C 
ATOM      7  C   LIG    1       22.126 -27.828  12.929  0.00  0.00    -0.001 C 
ATOM      8  C   LIG    1       22.826 -26.456  13.248  0.00  0.00    +0.005 C 
ATOM      9  C   LIG    1       21.323 -28.664  14.178  0.00  0.00    -0.022 C 
ATOM     10  C   LIG    1       20.324 -27.323  14.288  0.00  0.00    +0.012 C 
ATOM     11  C   LIG    1       21.226 -30.054  13.303  0.00  0.00    +0.003 C 
ATOM     12  C   LIG    1       20.014 -30.074  12.377  0.00  0.00    +0.083 C 
ATOM     13  C   LIG    1       19.026 -30.740  13.269  0.00  0.00    +0.162 C 
ATOM     14  O   LIG    1       18.597 -31.855  13.107  0.00  0.00    -0.292 OA
ATOM     15  C   LIG    1       18.779 -29.941  14.512  0.00  0.00    +0.029 C 
ATOM     16  C   LIG    1       17.578 -29.343  14.423  0.00  0.00    +0.190 C 
ATOM     17  C   LIG    1       22.411 -30.724  12.633  0.00  0.00    +0.005 C 
ATOM     18  C   LIG    1       20.080 -29.343  15.146  0.00  0.00    +0.049 C 
ATOM     19  C   LIG    1       22.949 -29.859  11.546  0.00  0.00    +0.004 C 
ATOM     20  C   LIG    1       25.846 -28.794  12.132  0.00  0.00    +0.007 C 
ATOM     21  C   LIG    1       23.824 -26.587  14.384  0.00  0.00    +0.010 C 
ATOM     22  C   LIG    1       26.960 -28.348  13.053  0.00  0.00    +0.035 C 
ENDROOT
BRANCH   2  23
ATOM     23  O   LIG    1       27.094 -26.838  14.950  0.00  0.00    -0.388 OA
ATOM     24  H   LIG    1       26.586 -26.216  15.496  0.00  0.00    +0.210 HD
ENDBRANCH   2  23
BRANCH  16  25
ATOM     25  O   LIG    1       16.404 -30.105  14.528  0.00  0.00    -0.514 OA
ATOM     26  H   LIG    1       15.642 -29.514  14.376  0.00  0.00    +0.291 HD
ENDBRANCH  16  25
TORSDOF 2
ENDMDL
