MODEL 1
REMARK VINA RESULT:      -9.2      0.000      0.000
REMARK  Name = *****
REMARK                            x       y       z     vdW  Elec       q    Type
REMARK                         _______ _______ _______ _____ _____    ______ ____
ROOT
ATOM      1  C   LIG    1       25.327 -24.475   6.878  0.00  0.00    +0.084 C 
ENDROOT
BRANCH   1   2
ATOM      2  N   LIG    1       25.656 -25.268   5.685  0.00  0.00    -0.299 NA
ATOM      3  C   LIG    1       26.748 -26.244   5.882  0.00  0.00    +0.103 C 
ATOM      4  C   LIG    1       26.406 -27.487   6.733  0.00  0.00    +0.122 C 
ATOM      5  N   LIG    1       25.190 -28.177   6.247  0.00  0.00    -0.312 N 
ATOM      6  C   LIG    1       24.057 -27.247   6.029  0.00  0.00    +0.122 C 
ATOM      7  C   LIG    1       24.472 -26.016   5.189  0.00  0.00    +0.103 C 
BRANCH   5   8
ATOM      8  C   LIG    1       24.875 -29.332   6.929  0.00  0.00    +0.138 A 
ATOM      9  C   LIG    1       25.125 -30.644   6.350  0.00  0.00    +0.031 A 
ATOM     10  C   LIG    1       24.714 -31.645   7.232  0.00  0.00    +0.041 A 
ATOM     11  C   LIG    1       24.820 -33.013   6.929  0.00  0.00    +0.017 A 
ATOM     12  C   LIG    1       25.351 -33.378   5.690  0.00  0.00    +0.001 A 
ATOM     13  C   LIG    1       25.770 -32.410   4.785  0.00  0.00    +0.001 A 
ATOM     14  S   LIG    1       24.097 -30.892   8.642  0.00  0.00    +0.014 S 
ATOM     15  C   LIG    1       25.661 -31.051   5.101  0.00  0.00    +0.012 A 
ATOM     16  N   LIG    1       24.310 -29.339   8.137  0.00  0.00    -0.194 NA
ENDBRANCH   5   8
ENDBRANCH   1   2
BRANCH   1  17
ATOM     17  C   LIG    1       26.296 -23.328   7.202  0.00  0.00    +0.017 C 
BRANCH  17  18
ATOM     18  C   LIG    1       25.925 -22.496   8.432  0.00  0.00    +0.021 C 
BRANCH  18  19
ATOM     19  C   LIG    1       25.741 -21.032   8.025  0.00  0.00    +0.116 C 
BRANCH  19  22
ATOM     20  O   LIG    1       26.645 -20.244   5.373  0.00  0.00    -0.275 OA
ATOM     21  C   LIG    1       25.483 -20.569   5.603  0.00  0.00    +0.226 C 
ATOM     22  N   LIG    1       24.953 -20.907   6.819  0.00  0.00    -0.242 N 
ATOM     23  C   LIG    1       23.611 -21.181   6.755  0.00  0.00    +0.226 C 
ATOM     24  O   LIG    1       22.905 -21.608   7.652  0.00  0.00    -0.275 OA
ATOM     25  C   LIG    1       23.118 -20.755   5.387  0.00  0.00    +0.087 C 
ATOM     26  C   LIG    1       22.470 -19.375   5.524  0.00  0.00    +0.013 C 
ATOM     27  C   LIG    1       22.454 -18.608   4.212  0.00  0.00    +0.001 C 
ATOM     28  C   LIG    1       23.866 -18.461   3.661  0.00  0.00    +0.001 C 
ATOM     29  C   LIG    1       24.488 -19.824   3.383  0.00  0.00    +0.013 C 
ATOM     30  C   LIG    1       24.413 -20.781   4.568  0.00  0.00    +0.087 C 
ENDBRANCH  19  22
ENDBRANCH  18  19
ENDBRANCH  17  18
ENDBRANCH   1  17
TORSDOF 6
ENDMDL
MODEL 2
REMARK VINA RESULT:      -9.1      1.439      2.041
REMARK  Name = *****
REMARK                            x       y       z     vdW  Elec       q    Type
REMARK                         _______ _______ _______ _____ _____    ______ ____
ROOT
ATOM      1  C   LIG    1       26.301 -24.999   6.154  0.00  0.00    +0.084 C 
ENDROOT
BRANCH   1   2
ATOM      2  N   LIG    1       25.405 -25.579   5.144  0.00  0.00    -0.299 NA
ATOM      3  C   LIG    1       25.929 -26.794   4.486  0.00  0.00    +0.103 C 
ATOM      4  C   LIG    1       25.950 -28.078   5.344  0.00  0.00    +0.122 C 
ATOM      5  N   LIG    1       24.632 -28.360   5.957  0.00  0.00    -0.312 N 
ATOM      6  C   LIG    1       24.053 -27.175   6.633  0.00  0.00    +0.122 C 
ATOM      7  C   LIG    1       24.081 -25.921   5.727  0.00  0.00    +0.103 C 
BRANCH   5   8
ATOM      8  C   LIG    1       24.575 -29.532   6.680  0.00  0.00    +0.138 A 
ATOM      9  C   LIG    1       25.282 -29.674   7.944  0.00  0.00    +0.031 A 
ATOM     10  C   LIG    1       25.071 -30.950   8.472  0.00  0.00    +0.041 A 
ATOM     11  C   LIG    1       25.647 -31.375   9.681  0.00  0.00    +0.017 A 
ATOM     12  C   LIG    1       26.470 -30.485  10.373  0.00  0.00    +0.001 A 
ATOM     13  C   LIG    1       26.706 -29.207   9.877  0.00  0.00    +0.001 A 
ATOM     14  S   LIG    1       24.044 -31.806   7.400  0.00  0.00    +0.014 S 
ATOM     15  C   LIG    1       26.123 -28.795   8.674  0.00  0.00    +0.012 A 
ATOM     16  N   LIG    1       23.899 -30.608   6.279  0.00  0.00    -0.194 NA
ENDBRANCH   5   8
ENDBRANCH   1   2
BRANCH   1  17
ATOM     17  C   LIG    1       25.641 -24.038   7.155  0.00  0.00    +0.017 C 
BRANCH  17  18
ATOM     18  C   LIG    1       26.467 -22.797   7.501  0.00  0.00    +0.021 C 
BRANCH  18  19
ATOM     19  C   LIG    1       25.535 -21.601   7.707  0.00  0.00    +0.116 C 
BRANCH  19  22
ATOM     20  O   LIG    1       26.618 -20.178   5.411  0.00  0.00    -0.275 OA
ATOM     21  C   LIG    1       25.466 -20.601   5.439  0.00  0.00    +0.226 C 
ATOM     22  N   LIG    1       24.853 -21.237   6.485  0.00  0.00    -0.242 N 
ATOM     23  C   LIG    1       23.545 -21.552   6.222  0.00  0.00    +0.226 C 
ATOM     24  O   LIG    1       22.791 -22.207   6.920  0.00  0.00    -0.275 OA
ATOM     25  C   LIG    1       23.148 -20.844   4.942  0.00  0.00    +0.087 C 
ATOM     26  C   LIG    1       22.397 -19.565   5.319  0.00  0.00    +0.013 C 
ATOM     27  C   LIG    1       22.446 -18.516   4.220  0.00  0.00    +0.001 C 
ATOM     28  C   LIG    1       23.888 -18.179   3.866  0.00  0.00    +0.001 C 
ATOM     29  C   LIG    1       24.627 -19.409   3.354  0.00  0.00    +0.013 C 
ATOM     30  C   LIG    1       24.511 -20.618   4.277  0.00  0.00    +0.087 C 
ENDBRANCH  19  22
ENDBRANCH  18  19
ENDBRANCH  17  18
ENDBRANCH   1  17
TORSDOF 6
ENDMDL
MODEL 3
REMARK VINA RESULT:      -8.9      2.014      3.317
REMARK  Name = *****
REMARK                            x       y       z     vdW  Elec       q    Type
REMARK                         _______ _______ _______ _____ _____    ______ ____
ROOT
ATOM      1  C   LIG    1       24.267 -24.434   6.388  0.00  0.00    +0.084 C 
ENDROOT
BRANCH   1   2
ATOM      2  N   LIG    1       25.306 -25.137   5.622  0.00  0.00    -0.299 NA
ATOM      3  C   LIG    1       26.347 -25.781   6.451  0.00  0.00    +0.103 C 
ATOM      4  C   LIG    1       25.918 -27.050   7.219  0.00  0.00    +0.122 C 
ATOM      5  N   LIG    1       25.284 -28.051   6.331  0.00  0.00    -0.312 N 
ATOM      6  C   LIG    1       24.229 -27.463   5.472  0.00  0.00    +0.122 C 
ATOM      7  C   LIG    1       24.718 -26.186   4.749  0.00  0.00    +0.103 C 
BRANCH   5   8
ATOM      8  C   LIG    1       24.941 -29.233   6.952  0.00  0.00    +0.138 A 
ATOM      9  C   LIG    1       25.185 -30.519   6.315  0.00  0.00    +0.031 A 
ATOM     10  C   LIG    1       24.744 -31.555   7.142  0.00  0.00    +0.041 A 
ATOM     11  C   LIG    1       24.838 -32.908   6.776  0.00  0.00    +0.017 A 
ATOM     12  C   LIG    1       25.387 -33.222   5.531  0.00  0.00    +0.001 A 
ATOM     13  C   LIG    1       25.835 -32.218   4.681  0.00  0.00    +0.001 A 
ATOM     14  S   LIG    1       24.111 -30.860   8.575  0.00  0.00    +0.014 S 
ATOM     15  C   LIG    1       25.739 -30.874   5.059  0.00  0.00    +0.012 A 
ATOM     16  N   LIG    1       24.355 -29.289   8.147  0.00  0.00    -0.194 NA
ENDBRANCH   5   8
ENDBRANCH   1   2
BRANCH   1  17
ATOM     17  C   LIG    1       24.228 -22.908   6.211  0.00  0.00    +0.017 C 
BRANCH  17  18
ATOM     18  C   LIG    1       24.241 -22.105   7.514  0.00  0.00    +0.021 C 
BRANCH  18  19
ATOM     19  C   LIG    1       24.788 -20.701   7.245  0.00  0.00    +0.116 C 
BRANCH  19  22
ATOM     20  O   LIG    1       26.981 -21.483   8.992  0.00  0.00    -0.275 OA
ATOM     21  C   LIG    1       27.156 -21.153   7.822  0.00  0.00    +0.226 C 
ATOM     22  N   LIG    1       26.201 -20.726   6.940  0.00  0.00    -0.242 N 
ATOM     23  C   LIG    1       26.720 -20.391   5.716  0.00  0.00    +0.226 C 
ATOM     24  O   LIG    1       26.100 -20.083   4.714  0.00  0.00    -0.275 OA
ATOM     25  C   LIG    1       28.230 -20.362   5.847  0.00  0.00    +0.087 C 
ATOM     26  C   LIG    1       28.662 -18.905   6.036  0.00  0.00    +0.013 C 
ATOM     27  C   LIG    1       30.011 -18.784   6.727  0.00  0.00    +0.001 C 
ATOM     28  C   LIG    1       29.986 -19.492   8.074  0.00  0.00    +0.001 C 
ATOM     29  C   LIG    1       29.693 -20.978   7.907  0.00  0.00    +0.013 C 
ATOM     30  C   LIG    1       28.452 -21.263   7.067  0.00  0.00    +0.087 C 
ENDBRANCH  19  22
ENDBRANCH  18  19
ENDBRANCH  17  18
ENDBRANCH   1  17
TORSDOF 6
ENDMDL
MODEL 4
REMARK VINA RESULT:      -8.5      2.368      3.864
REMARK  Name = *****
REMARK                            x       y       z     vdW  Elec       q    Type
REMARK                         _______ _______ _______ _____ _____    ______ ____
ROOT
ATOM      1  C   LIG    1       23.669 -23.975   6.436  0.00  0.00    +0.084 C 
ENDROOT
BRANCH   1   2
ATOM      2  N   LIG    1       24.955 -24.361   5.839  0.00  0.00    -0.299 NA
ATOM      3  C   LIG    1       25.946 -24.883   6.804  0.00  0.00    +0.103 C 
ATOM      4  C   LIG    1       25.672 -26.296   7.366  0.00  0.00    +0.122 C 
ATOM      5  N   LIG    1       25.439 -27.286   6.291  0.00  0.00    -0.312 N 
ATOM      6  C   LIG    1       24.453 -26.819   5.288  0.00  0.00    +0.122 C 
ATOM      7  C   LIG    1       24.774 -25.392   4.783  0.00  0.00    +0.103 C 
BRANCH   5   8
ATOM      8  C   LIG    1       25.255 -28.579   6.732  0.00  0.00    +0.138 A 
ATOM      9  C   LIG    1       25.762 -29.015   8.025  0.00  0.00    +0.031 A 
ATOM     10  C   LIG    1       25.453 -30.362   8.233  0.00  0.00    +0.041 A 
ATOM     11  C   LIG    1       25.833 -31.056   9.393  0.00  0.00    +0.017 A 
ATOM     12  C   LIG    1       26.557 -30.369  10.370  0.00  0.00    +0.001 A 
ATOM     13  C   LIG    1       26.885 -29.029  10.198  0.00  0.00    +0.001 A 
ATOM     14  S   LIG    1       24.586 -30.925   6.866  0.00  0.00    +0.014 S 
ATOM     15  C   LIG    1       26.496 -28.348   9.038  0.00  0.00    +0.012 A 
ATOM     16  N   LIG    1       24.631 -29.515   6.018  0.00  0.00    -0.194 NA
ENDBRANCH   5   8
ENDBRANCH   1   2
BRANCH   1  17
ATOM     17  C   LIG    1       23.377 -22.467   6.469  0.00  0.00    +0.017 C 
BRANCH  17  18
ATOM     18  C   LIG    1       23.975 -21.718   7.662  0.00  0.00    +0.021 C 
BRANCH  18  19
ATOM     19  C   LIG    1       24.571 -20.391   7.188  0.00  0.00    +0.116 C 
BRANCH  19  22
ATOM     20  O   LIG    1       26.761 -20.940   9.026  0.00  0.00    -0.275 OA
ATOM     21  C   LIG    1       26.931 -20.819   7.816  0.00  0.00    +0.226 C 
ATOM     22  N   LIG    1       25.979 -20.515   6.881  0.00  0.00    -0.242 N 
ATOM     23  C   LIG    1       26.493 -20.410   5.615  0.00  0.00    +0.226 C 
ATOM     24  O   LIG    1       25.870 -20.254   4.579  0.00  0.00    -0.275 OA
ATOM     25  C   LIG    1       28.004 -20.410   5.728  0.00  0.00    +0.087 C 
ATOM     26  C   LIG    1       28.486 -18.958   5.664  0.00  0.00    +0.013 C 
ATOM     27  C   LIG    1       29.847 -18.768   6.315  0.00  0.00    +0.001 C 
ATOM     28  C   LIG    1       29.816 -19.236   7.764  0.00  0.00    +0.001 C 
ATOM     29  C   LIG    1       29.474 -20.718   7.852  0.00  0.00    +0.013 C 
ATOM     30  C   LIG    1       28.213 -21.099   7.082  0.00  0.00    +0.087 C 
ENDBRANCH  19  22
ENDBRANCH  18  19
ENDBRANCH  17  18
ENDBRANCH   1  17
TORSDOF 6
ENDMDL
MODEL 5
REMARK VINA RESULT:      -8.4      2.535      3.894
REMARK  Name = *****
REMARK                            x       y       z     vdW  Elec       q    Type
REMARK                         _______ _______ _______ _____ _____    ______ ____
ROOT
ATOM      1  C   LIG    1       24.484 -25.921   5.074  0.00  0.00    +0.084 C 
ENDROOT
BRANCH   1   2
ATOM      2  N   LIG    1       25.549 -26.930   4.994  0.00  0.00    -0.299 NA
ATOM      3  C   LIG    1       26.467 -26.945   6.152  0.00  0.00    +0.103 C 
ATOM      4  C   LIG    1       25.895 -27.513   7.469  0.00  0.00    +0.122 C 
ATOM      5  N   LIG    1       25.292 -28.852   7.281  0.00  0.00    -0.312 N 
ATOM      6  C   LIG    1       24.360 -28.901   6.131  0.00  0.00    +0.122 C 
ATOM      7  C   LIG    1       24.988 -28.299   4.852  0.00  0.00    +0.103 C 
BRANCH   5   8
ATOM      8  C   LIG    1       24.824 -29.437   8.439  0.00  0.00    +0.138 A 
ATOM      9  C   LIG    1       25.641 -29.492   9.641  0.00  0.00    +0.031 A 
ATOM     10  C   LIG    1       24.945 -30.137  10.667  0.00  0.00    +0.041 A 
ATOM     11  C   LIG    1       25.497 -30.349  11.941  0.00  0.00    +0.017 A 
ATOM     12  C   LIG    1       26.798 -29.902  12.183  0.00  0.00    +0.001 A 
ATOM     13  C   LIG    1       27.522 -29.257  11.187  0.00  0.00    +0.001 A 
ATOM     14  S   LIG    1       23.403 -30.579  10.065  0.00  0.00    +0.014 S 
ATOM     15  C   LIG    1       26.959 -29.049   9.923  0.00  0.00    +0.012 A 
ATOM     16  N   LIG    1       23.621 -30.003   8.539  0.00  0.00    -0.194 NA
ENDBRANCH   5   8
ENDBRANCH   1   2
BRANCH   1  17
ATOM     17  C   LIG    1       24.941 -24.500   5.441  0.00  0.00    +0.017 C 
BRANCH  17  18
ATOM     18  C   LIG    1       24.577 -24.049   6.857  0.00  0.00    +0.021 C 
BRANCH  18  19
ATOM     19  C   LIG    1       24.090 -22.599   6.825  0.00  0.00    +0.116 C 
BRANCH  19  22
ATOM     20  O   LIG    1       25.520 -21.058   4.811  0.00  0.00    -0.275 OA
ATOM     21  C   LIG    1       25.757 -20.954   6.011  0.00  0.00    +0.226 C 
ATOM     22  N   LIG    1       25.176 -21.666   7.026  0.00  0.00    -0.242 N 
ATOM     23  C   LIG    1       25.687 -21.347   8.258  0.00  0.00    +0.226 C 
ATOM     24  O   LIG    1       25.293 -21.740   9.341  0.00  0.00    -0.275 OA
ATOM     25  C   LIG    1       26.920 -20.492   8.039  0.00  0.00    +0.087 C 
ATOM     26  C   LIG    1       28.150 -21.395   8.153  0.00  0.00    +0.013 C 
ATOM     27  C   LIG    1       29.357 -20.828   7.421  0.00  0.00    +0.001 C 
ATOM     28  C   LIG    1       29.028 -20.589   5.954  0.00  0.00    +0.001 C 
ATOM     29  C   LIG    1       27.892 -19.585   5.805  0.00  0.00    +0.013 C 
ATOM     30  C   LIG    1       26.661 -19.928   6.637  0.00  0.00    +0.087 C 
ENDBRANCH  19  22
ENDBRANCH  18  19
ENDBRANCH  17  18
ENDBRANCH   1  17
TORSDOF 6
ENDMDL
MODEL 6
REMARK VINA RESULT:      -8.4      2.405      3.438
REMARK  Name = *****
REMARK                            x       y       z     vdW  Elec       q    Type
REMARK                         _______ _______ _______ _____ _____    ______ ____
ROOT
ATOM      1  C   LIG    1       24.289 -26.267   4.960  0.00  0.00    +0.084 C 
ENDROOT
BRANCH   1   2
ATOM      2  N   LIG    1       25.431 -27.193   4.965  0.00  0.00    -0.299 NA
ATOM      3  C   LIG    1       26.322 -27.059   6.137  0.00  0.00    +0.103 C 
ATOM      4  C   LIG    1       25.766 -27.584   7.479  0.00  0.00    +0.122 C 
ATOM      5  N   LIG    1       25.274 -28.976   7.371  0.00  0.00    -0.312 N 
ATOM      6  C   LIG    1       24.374 -29.173   6.211  0.00  0.00    +0.122 C 
ATOM      7  C   LIG    1       24.981 -28.608   4.905  0.00  0.00    +0.103 C 
BRANCH   5   8
ATOM      8  C   LIG    1       24.828 -29.519   8.557  0.00  0.00    +0.138 A 
ATOM      9  C   LIG    1       25.666 -29.529   9.746  0.00  0.00    +0.031 A 
ATOM     10  C   LIG    1       24.989 -30.138  10.806  0.00  0.00    +0.041 A 
ATOM     11  C   LIG    1       25.564 -30.302  12.077  0.00  0.00    +0.017 A 
ATOM     12  C   LIG    1       26.867 -29.844  12.281  0.00  0.00    +0.001 A 
ATOM     13  C   LIG    1       27.573 -29.235  11.249  0.00  0.00    +0.001 A 
ATOM     14  S   LIG    1       23.438 -30.605  10.248  0.00  0.00    +0.014 S 
ATOM     15  C   LIG    1       26.987 -29.074   9.988  0.00  0.00    +0.012 A 
ATOM     16  N   LIG    1       23.629 -30.084   8.698  0.00  0.00    -0.194 NA
ENDBRANCH   5   8
ENDBRANCH   1   2
BRANCH   1  17
ATOM     17  C   LIG    1       24.599 -24.826   5.394  0.00  0.00    +0.017 C 
BRANCH  17  18
ATOM     18  C   LIG    1       24.101 -24.451   6.792  0.00  0.00    +0.021 C 
BRANCH  18  19
ATOM     19  C   LIG    1       22.862 -23.560   6.672  0.00  0.00    +0.116 C 
BRANCH  19  22
ATOM     20  O   LIG    1       21.455 -21.704   4.927  0.00  0.00    -0.275 OA
ATOM     21  C   LIG    1       22.459 -21.383   5.558  0.00  0.00    +0.226 C 
ATOM     22  N   LIG    1       23.213 -22.193   6.363  0.00  0.00    -0.242 N 
ATOM     23  C   LIG    1       24.299 -21.547   6.897  0.00  0.00    +0.226 C 
ATOM     24  O   LIG    1       25.080 -21.983   7.724  0.00  0.00    -0.275 OA
ATOM     25  C   LIG    1       24.434 -20.212   6.193  0.00  0.00    +0.087 C 
ATOM     26  C   LIG    1       25.499 -20.355   5.103  0.00  0.00    +0.013 C 
ATOM     27  C   LIG    1       25.337 -19.327   3.994  0.00  0.00    +0.001 C 
ATOM     28  C   LIG    1       23.950 -19.425   3.374  0.00  0.00    +0.001 C 
ATOM     29  C   LIG    1       22.868 -19.149   4.409  0.00  0.00    +0.013 C 
ATOM     30  C   LIG    1       23.008 -19.988   5.676  0.00  0.00    +0.087 C 
ENDBRANCH  19  22
ENDBRANCH  18  19
ENDBRANCH  17  18
ENDBRANCH   1  17
TORSDOF 6
ENDMDL
MODEL 7
REMARK VINA RESULT:      -8.3      4.217      9.241
REMARK  Name = *****
REMARK                            x       y       z     vdW  Elec       q    Type
REMARK                         _______ _______ _______ _____ _____    ______ ____
ROOT
ATOM      1  C   LIG    1       24.682 -28.536   5.546  0.00  0.00    +0.084 C 
ENDROOT
BRANCH   1   2
ATOM      2  N   LIG    1       25.884 -27.761   5.210  0.00  0.00    -0.299 NA
ATOM      3  C   LIG    1       25.653 -26.656   4.256  0.00  0.00    +0.103 C 
ATOM      4  C   LIG    1       24.896 -25.427   4.806  0.00  0.00    +0.122 C 
ATOM      5  N   LIG    1       25.510 -24.906   6.048  0.00  0.00    -0.312 N 
ATOM      6  C   LIG    1       25.767 -25.970   7.047  0.00  0.00    +0.122 C 
ATOM      7  C   LIG    1       26.509 -27.178   6.426  0.00  0.00    +0.103 C 
BRANCH   5   8
ATOM      8  C   LIG    1       24.915 -23.768   6.547  0.00  0.00    +0.138 A 
ATOM      9  C   LIG    1       25.709 -22.669   7.076  0.00  0.00    +0.031 A 
ATOM     10  C   LIG    1       24.874 -21.643   7.523  0.00  0.00    +0.041 A 
ATOM     11  C   LIG    1       25.367 -20.460   8.099  0.00  0.00    +0.017 A 
ATOM     12  C   LIG    1       26.749 -20.315   8.235  0.00  0.00    +0.001 A 
ATOM     13  C   LIG    1       27.613 -21.315   7.802  0.00  0.00    +0.001 A 
ATOM     14  S   LIG    1       23.251 -22.117   7.242  0.00  0.00    +0.014 S 
ATOM     15  C   LIG    1       27.108 -22.487   7.227  0.00  0.00    +0.012 A 
ATOM     16  N   LIG    1       23.594 -23.596   6.604  0.00  0.00    -0.194 NA
ENDBRANCH   5   8
ENDBRANCH   1   2
BRANCH   1  17
ATOM     17  C   LIG    1       24.888 -29.683   6.547  0.00  0.00    +0.017 C 
BRANCH  17  18
ATOM     18  C   LIG    1       24.306 -29.439   7.940  0.00  0.00    +0.021 C 
BRANCH  18  19
ATOM     19  C   LIG    1       24.688 -30.596   8.866  0.00  0.00    +0.116 C 
BRANCH  19  22
ATOM     20  O   LIG    1       23.232 -29.985  11.312  0.00  0.00    -0.275 OA
ATOM     21  C   LIG    1       24.455 -29.903  11.236  0.00  0.00    +0.226 C 
ATOM     22  N   LIG    1       25.222 -30.121  10.123  0.00  0.00    -0.242 N 
ATOM     23  C   LIG    1       26.558 -29.907  10.349  0.00  0.00    +0.226 C 
ATOM     24  O   LIG    1       27.477 -30.124   9.580  0.00  0.00    -0.275 OA
ATOM     25  C   LIG    1       26.696 -29.241  11.703  0.00  0.00    +0.087 C 
ATOM     26  C   LIG    1       26.854 -27.736  11.479  0.00  0.00    +0.013 C 
ATOM     27  C   LIG    1       26.440 -26.920  12.693  0.00  0.00    +0.001 C 
ATOM     28  C   LIG    1       25.002 -27.234  13.082  0.00  0.00    +0.001 C 
ATOM     29  C   LIG    1       24.842 -28.705  13.447  0.00  0.00    +0.013 C 
ATOM     30  C   LIG    1       25.389 -29.657  12.388  0.00  0.00    +0.087 C 
ENDBRANCH  19  22
ENDBRANCH  18  19
ENDBRANCH  17  18
ENDBRANCH   1  17
TORSDOF 6
ENDMDL
MODEL 8
REMARK VINA RESULT:      -8.3      2.549      4.211
REMARK  Name = *****
REMARK                            x       y       z     vdW  Elec       q    Type
REMARK                         _______ _______ _______ _____ _____    ______ ____
ROOT
ATOM      1  C   LIG    1       25.762 -28.166   5.368  0.00  0.00    +0.084 C 
ENDROOT
BRANCH   1   2
ATOM      2  N   LIG    1       24.984 -29.405   5.232  0.00  0.00    -0.299 NA
ATOM      3  C   LIG    1       25.743 -30.639   5.525  0.00  0.00    +0.103 C 
ATOM      4  C   LIG    1       26.076 -30.897   7.011  0.00  0.00    +0.122 C 
ATOM      5  N   LIG    1       24.874 -30.824   7.871  0.00  0.00    -0.312 N 
ATOM      6  C   LIG    1       24.069 -29.605   7.622  0.00  0.00    +0.122 C 
ATOM      7  C   LIG    1       23.789 -29.395   6.115  0.00  0.00    +0.103 C 
BRANCH   5   8
ATOM      8  C   LIG    1       25.101 -31.112   9.200  0.00  0.00    +0.138 A 
ATOM      9  C   LIG    1       25.783 -30.167  10.072  0.00  0.00    +0.031 A 
ATOM     10  C   LIG    1       25.894 -30.696  11.361  0.00  0.00    +0.041 A 
ATOM     11  C   LIG    1       26.523 -30.008  12.411  0.00  0.00    +0.017 A 
ATOM     12  C   LIG    1       27.066 -28.749  12.147  0.00  0.00    +0.001 A 
ATOM     13  C   LIG    1       26.977 -28.190  10.877  0.00  0.00    +0.001 A 
ATOM     14  S   LIG    1       25.157 -32.244  11.365  0.00  0.00    +0.014 S 
ATOM     15  C   LIG    1       26.343 -28.885   9.841  0.00  0.00    +0.012 A 
ATOM     16  N   LIG    1       24.741 -32.261   9.772  0.00  0.00    -0.194 NA
ENDBRANCH   5   8
ENDBRANCH   1   2
BRANCH   1  17
ATOM     17  C   LIG    1       24.940 -26.868   5.426  0.00  0.00    +0.017 C 
BRANCH  17  18
ATOM     18  C   LIG    1       25.765 -25.584   5.538  0.00  0.00    +0.021 C 
BRANCH  18  19
ATOM     19  C   LIG    1       25.601 -24.989   6.938  0.00  0.00    +0.116 C 
BRANCH  19  22
ATOM     20  O   LIG    1       22.866 -24.044   6.623  0.00  0.00    -0.275 OA
ATOM     21  C   LIG    1       23.814 -23.279   6.778  0.00  0.00    +0.226 C 
ATOM     22  N   LIG    1       25.134 -23.622   6.887  0.00  0.00    -0.242 N 
ATOM     23  C   LIG    1       25.957 -22.532   7.012  0.00  0.00    +0.226 C 
ATOM     24  O   LIG    1       27.156 -22.538   7.229  0.00  0.00    -0.275 OA
ATOM     25  C   LIG    1       25.132 -21.295   6.720  0.00  0.00    +0.087 C 
ATOM     26  C   LIG    1       25.391 -20.883   5.269  0.00  0.00    +0.013 C 
ATOM     27  C   LIG    1       24.256 -20.055   4.689  0.00  0.00    +0.001 C 
ATOM     28  C   LIG    1       22.940 -20.814   4.780  0.00  0.00    +0.001 C 
ATOM     29  C   LIG    1       22.584 -21.120   6.230  0.00  0.00    +0.013 C 
ATOM     30  C   LIG    1       23.711 -21.795   7.004  0.00  0.00    +0.087 C 
ENDBRANCH  19  22
ENDBRANCH  18  19
ENDBRANCH  17  18
ENDBRANCH   1  17
TORSDOF 6
ENDMDL
MODEL 9
REMARK VINA RESULT:      -8.2      2.165      3.592
REMARK  Name = *****
REMARK                            x       y       z     vdW  Elec       q    Type
REMARK                         _______ _______ _______ _____ _____    ______ ____
ROOT
ATOM      1  C   LIG    1       24.250 -27.204   6.009  0.00  0.00    +0.084 C 
ENDROOT
BRANCH   1   2
ATOM      2  N   LIG    1       25.486 -27.970   6.220  0.00  0.00    -0.299 NA
ATOM      3  C   LIG    1       25.765 -28.307   7.632  0.00  0.00    +0.103 C 
ATOM      4  C   LIG    1       24.869 -29.395   8.262  0.00  0.00    +0.122 C 
ATOM      5  N   LIG    1       24.832 -30.628   7.443  0.00  0.00    -0.312 N 
ATOM      6  C   LIG    1       24.556 -30.354   6.013  0.00  0.00    +0.122 C 
ATOM      7  C   LIG    1       25.473 -29.242   5.451  0.00  0.00    +0.103 C 
BRANCH   5   8
ATOM      8  C   LIG    1       24.099 -31.659   7.992  0.00  0.00    +0.138 A 
ATOM      9  C   LIG    1       24.333 -32.109   9.356  0.00  0.00    +0.031 A 
ATOM     10  C   LIG    1       23.471 -33.163   9.669  0.00  0.00    +0.041 A 
ATOM     11  C   LIG    1       23.485 -33.808  10.917  0.00  0.00    +0.017 A 
ATOM     12  C   LIG    1       24.404 -33.378  11.876  0.00  0.00    +0.001 A 
ATOM     13  C   LIG    1       25.279 -32.333  11.600  0.00  0.00    +0.001 A 
ATOM     14  S   LIG    1       22.487 -33.469   8.300  0.00  0.00    +0.014 S 
ATOM     15  C   LIG    1       25.253 -31.697  10.354  0.00  0.00    +0.012 A 
ATOM     16  N   LIG    1       23.155 -32.323   7.325  0.00  0.00    -0.194 NA
ENDBRANCH   5   8
ENDBRANCH   1   2
BRANCH   1  17
ATOM     17  C   LIG    1       24.429 -25.807   5.396  0.00  0.00    +0.017 C 
BRANCH  17  18
ATOM     18  C   LIG    1       25.692 -25.064   5.836  0.00  0.00    +0.021 C 
BRANCH  18  19
ATOM     19  C   LIG    1       25.420 -24.322   7.147  0.00  0.00    +0.116 C 
BRANCH  19  22
ATOM     20  O   LIG    1       22.794 -23.114   6.803  0.00  0.00    -0.275 OA
ATOM     21  C   LIG    1       23.828 -22.451   6.811  0.00  0.00    +0.226 C 
ATOM     22  N   LIG    1       25.106 -22.929   6.918  0.00  0.00    -0.242 N 
ATOM     23  C   LIG    1       26.051 -21.938   6.853  0.00  0.00    +0.226 C 
ATOM     24  O   LIG    1       27.252 -22.054   7.024  0.00  0.00    -0.275 OA
ATOM     25  C   LIG    1       25.354 -20.664   6.419  0.00  0.00    +0.087 C 
ATOM     26  C   LIG    1       25.578 -20.489   4.915  0.00  0.00    +0.013 C 
ATOM     27  C   LIG    1       24.513 -19.621   4.265  0.00  0.00    +0.001 C 
ATOM     28  C   LIG    1       23.127 -20.201   4.515  0.00  0.00    +0.001 C 
ATOM     29  C   LIG    1       22.819 -20.259   6.006  0.00  0.00    +0.013 C 
ATOM     30  C   LIG    1       23.904 -20.949   6.825  0.00  0.00    +0.087 C 
ENDBRANCH  19  22
ENDBRANCH  18  19
ENDBRANCH  17  18
ENDBRANCH   1  17
TORSDOF 6
ENDMDL
