MODEL 1
REMARK VINA RESULT:      -8.0      0.000      0.000
REMARK  Name = *****
REMARK                            x       y       z     vdW  Elec       q    Type
REMARK                         _______ _______ _______ _____ _____    ______ ____
ROOT
ATOM      1  C   LIG    1       25.460 -20.794   7.475  0.00  0.00    +0.121 A 
ATOM      2  C   LIG    1       25.677 -20.526   6.128  0.00  0.00    +0.046 A 
ATOM      3  C   LIG    1       26.943 -20.133   5.603  0.00  0.00    +0.009 A 
ATOM      4  C   LIG    1       28.047 -19.963   6.470  0.00  0.00    -0.022 A 
ATOM      5  C   LIG    1       27.810 -20.231   7.811  0.00  0.00    +0.009 A 
ATOM      6  C   LIG    1       26.576 -20.671   8.325  0.00  0.00    +0.046 A 
ENDROOT
BRANCH   1   7
ATOM      7  O   LIG    1       24.257 -21.245   7.922  0.00  0.00    -0.489 OA
BRANCH   7   8
ATOM      8  C   LIG    1       23.310 -21.845   6.993  0.00  0.00    +0.261 C 
BRANCH   8   9
ATOM      9  C   LIG    1       23.373 -23.400   6.951  0.00  0.00    +0.166 C 
BRANCH   9  10
ATOM     10  O   LIG    1       22.038 -23.753   6.595  0.00  0.00    -0.387 OA
ATOM     11  H   LIG    1       21.718 -24.327   7.316  0.00  0.00    +0.210 HD
ENDBRANCH   9  10
BRANCH   9  12
ATOM     12  C   LIG    1       24.389 -24.093   5.989  0.00  0.00    +0.115 C 
BRANCH  12  13
ATOM     13  N   LIG    1       24.015 -25.388   5.348  0.00  0.00    -0.311 NA
ATOM     14  H   LIG    1       23.595 -25.260   4.431  0.00  0.00    +0.122 HD
BRANCH  13  16
ATOM     15  C   LIG    1       26.246 -26.219   6.157  0.00  0.00    +0.024 C 
ATOM     16  C   LIG    1       24.931 -26.545   5.404  0.00  0.00    +0.048 C 
ATOM     17  C   LIG    1       24.418 -27.842   6.025  0.00  0.00    +0.024 C 
ENDBRANCH  13  16
ENDBRANCH  12  13
ENDBRANCH   9  12
ENDBRANCH   8   9
ENDBRANCH   7   8
ENDBRANCH   1   7
BRANCH   4  18
ATOM     18  C   LIG    1       29.432 -19.433   6.036  0.00  0.00    +0.195 C 
BRANCH  18  19
ATOM     19  O   LIG    1       30.044 -18.472   6.903  0.00  0.00    -0.373 OA
BRANCH  19  20
ATOM     20  C   LIG    1       31.301 -18.878   7.473  0.00  0.00    +0.188 C 
BRANCH  20  21
ATOM     21  C   LIG    1       31.226 -19.219   8.986  0.00  0.00    +0.188 C 
BRANCH  21  22
ATOM     22  O   LIG    1       32.217 -18.593   9.815  0.00  0.00    -0.375 OA
BRANCH  22  23
ATOM     23  C   LIG    1       31.849 -17.370  10.468  0.00  0.00    +0.112 C 
ATOM     24  C   LIG    1       30.345 -17.224  10.605  0.00  0.00    +0.037 C 
ATOM     25  C   LIG    1       32.319 -16.212   9.591  0.00  0.00    +0.037 C 
ENDBRANCH  22  23
ENDBRANCH  21  22
ENDBRANCH  20  21
ENDBRANCH  19  20
ENDBRANCH  18  19
ENDBRANCH   4  18
TORSDOF 13
ENDMDL
MODEL 2
REMARK VINA RESULT:      -8.0      2.731      9.185
REMARK  Name = *****
REMARK                            x       y       z     vdW  Elec       q    Type
REMARK                         _______ _______ _______ _____ _____    ______ ____
ROOT
ATOM      1  C   LIG    1       27.862 -20.260   7.118  0.00  0.00    +0.121 A 
ATOM      2  C   LIG    1       27.183 -20.465   8.314  0.00  0.00    +0.046 A 
ATOM      3  C   LIG    1       25.786 -20.743   8.383  0.00  0.00    +0.009 A 
ATOM      4  C   LIG    1       25.014 -20.784   7.200  0.00  0.00    -0.022 A 
ATOM      5  C   LIG    1       25.708 -20.573   6.017  0.00  0.00    +0.009 A 
ATOM      6  C   LIG    1       27.095 -20.352   5.940  0.00  0.00    +0.046 A 
ENDROOT
BRANCH   1   7
ATOM      7  O   LIG    1       29.210 -20.078   7.091  0.00  0.00    -0.489 OA
BRANCH   7   8
ATOM      8  C   LIG    1       30.055 -20.729   8.082  0.00  0.00    +0.261 C 
BRANCH   8   9
ATOM      9  C   LIG    1       31.081 -19.771   8.756  0.00  0.00    +0.166 C 
BRANCH   9  10
ATOM     10  O   LIG    1       32.109 -20.666   9.175  0.00  0.00    -0.387 OA
ATOM     11  H   LIG    1       31.939 -21.501   8.701  0.00  0.00    +0.210 HD
ENDBRANCH   9  10
BRANCH   9  12
ATOM     12  C   LIG    1       31.692 -18.603   7.918  0.00  0.00    +0.115 C 
BRANCH  12  13
ATOM     13  N   LIG    1       32.173 -17.379   8.623  0.00  0.00    -0.311 NA
ATOM     14  H   LIG    1       31.955 -16.526   8.113  0.00  0.00    +0.122 HD
BRANCH  13  16
ATOM     15  C   LIG    1       33.024 -16.255  10.705  0.00  0.00    +0.024 C 
ATOM     16  C   LIG    1       31.998 -17.236  10.082  0.00  0.00    +0.048 C 
ATOM     17  C   LIG    1       30.636 -16.783  10.603  0.00  0.00    +0.024 C 
ENDBRANCH  13  16
ENDBRANCH  12  13
ENDBRANCH   9  12
ENDBRANCH   8   9
ENDBRANCH   7   8
ENDBRANCH   1   7
BRANCH   4  18
ATOM     18  C   LIG    1       23.480 -20.963   7.157  0.00  0.00    +0.195 C 
BRANCH  18  19
ATOM     19  O   LIG    1       22.977 -21.914   6.211  0.00  0.00    -0.373 OA
BRANCH  19  20
ATOM     20  C   LIG    1       22.787 -23.243   6.726  0.00  0.00    +0.188 C 
BRANCH  20  21
ATOM     21  C   LIG    1       24.012 -24.177   6.528  0.00  0.00    +0.188 C 
BRANCH  21  22
ATOM     22  O   LIG    1       23.722 -25.583   6.481  0.00  0.00    -0.375 OA
BRANCH  22  23
ATOM     23  C   LIG    1       24.599 -26.410   5.703  0.00  0.00    +0.112 C 
ATOM     24  C   LIG    1       24.250 -27.882   5.819  0.00  0.00    +0.037 C 
ATOM     25  C   LIG    1       26.010 -26.254   6.266  0.00  0.00    +0.037 C 
ENDBRANCH  22  23
ENDBRANCH  21  22
ENDBRANCH  20  21
ENDBRANCH  19  20
ENDBRANCH  18  19
ENDBRANCH   4  18
TORSDOF 13
ENDMDL
MODEL 3
REMARK VINA RESULT:      -7.6      3.939      6.474
REMARK  Name = *****
REMARK                            x       y       z     vdW  Elec       q    Type
REMARK                         _______ _______ _______ _____ _____    ______ ____
ROOT
ATOM      1  C   LIG    1       24.254 -25.311   6.267  0.00  0.00    +0.121 A 
ATOM      2  C   LIG    1       23.381 -24.283   6.608  0.00  0.00    +0.046 A 
ATOM      3  C   LIG    1       23.812 -23.046   7.170  0.00  0.00    +0.009 A 
ATOM      4  C   LIG    1       25.183 -22.832   7.444  0.00  0.00    -0.022 A 
ATOM      5  C   LIG    1       26.037 -23.871   7.102  0.00  0.00    +0.009 A 
ATOM      6  C   LIG    1       25.623 -25.072   6.497  0.00  0.00    +0.046 A 
ENDROOT
BRANCH   1   7
ATOM      7  O   LIG    1       23.810 -26.443   5.657  0.00  0.00    -0.489 OA
BRANCH   7   8
ATOM      8  C   LIG    1       24.670 -27.616   5.576  0.00  0.00    +0.261 C 
BRANCH   8   9
ATOM      9  C   LIG    1       24.093 -28.866   6.304  0.00  0.00    +0.166 C 
BRANCH   9  10
ATOM     10  O   LIG    1       23.233 -29.427   5.316  0.00  0.00    -0.387 OA
ATOM     11  H   LIG    1       23.699 -30.214   4.978  0.00  0.00    +0.210 HD
ENDBRANCH   9  10
BRANCH   9  12
ATOM     12  C   LIG    1       25.078 -29.952   6.842  0.00  0.00    +0.115 C 
BRANCH  12  13
ATOM     13  N   LIG    1       26.052 -30.579   5.901  0.00  0.00    -0.311 NA
ATOM     14  H   LIG    1       26.956 -30.113   5.911  0.00  0.00    +0.122 HD
BRANCH  13  16
ATOM     15  C   LIG    1       26.130 -32.548   4.339  0.00  0.00    +0.024 C 
ATOM     16  C   LIG    1       26.164 -32.048   5.806  0.00  0.00    +0.048 C 
ATOM     17  C   LIG    1       27.383 -32.720   6.435  0.00  0.00    +0.024 C 
ENDBRANCH  13  16
ENDBRANCH  12  13
ENDBRANCH   9  12
ENDBRANCH   8   9
ENDBRANCH   7   8
ENDBRANCH   1   7
BRANCH   4  18
ATOM     18  C   LIG    1       25.753 -21.584   8.154  0.00  0.00    +0.195 C 
BRANCH  18  19
ATOM     19  O   LIG    1       25.803 -20.381   7.380  0.00  0.00    -0.373 OA
BRANCH  19  20
ATOM     20  C   LIG    1       26.673 -20.427   6.236  0.00  0.00    +0.188 C 
BRANCH  20  21
ATOM     21  C   LIG    1       25.957 -20.150   4.887  0.00  0.00    +0.188 C 
BRANCH  21  22
ATOM     22  O   LIG    1       24.775 -20.926   4.637  0.00  0.00    -0.375 OA
BRANCH  22  23
ATOM     23  C   LIG    1       23.588 -20.214   4.261  0.00  0.00    +0.112 C 
ATOM     24  C   LIG    1       23.901 -18.854   3.667  0.00  0.00    +0.037 C 
ATOM     25  C   LIG    1       22.776 -19.956   5.528  0.00  0.00    +0.037 C 
ENDBRANCH  22  23
ENDBRANCH  21  22
ENDBRANCH  20  21
ENDBRANCH  19  20
ENDBRANCH  18  19
ENDBRANCH   4  18
TORSDOF 13
ENDMDL
MODEL 4
REMARK VINA RESULT:      -7.4      2.899      4.749
REMARK  Name = *****
REMARK                            x       y       z     vdW  Elec       q    Type
REMARK                         _______ _______ _______ _____ _____    ______ ____
ROOT
ATOM      1  C   LIG    1       24.212 -25.105   6.330  0.00  0.00    +0.121 A 
ATOM      2  C   LIG    1       23.309 -24.087   6.617  0.00  0.00    +0.046 A 
ATOM      3  C   LIG    1       23.693 -22.839   7.189  0.00  0.00    +0.009 A 
ATOM      4  C   LIG    1       25.045 -22.603   7.529  0.00  0.00    -0.022 A 
ATOM      5  C   LIG    1       25.930 -23.632   7.239  0.00  0.00    +0.009 A 
ATOM      6  C   LIG    1       25.564 -24.844   6.625  0.00  0.00    +0.046 A 
ENDROOT
BRANCH   1   7
ATOM      7  O   LIG    1       23.815 -26.248   5.708  0.00  0.00    -0.489 OA
BRANCH   7   8
ATOM      8  C   LIG    1       24.718 -27.388   5.628  0.00  0.00    +0.261 C 
BRANCH   8   9
ATOM      9  C   LIG    1       24.156 -28.679   6.295  0.00  0.00    +0.166 C 
BRANCH   9  10
ATOM     10  O   LIG    1       23.240 -29.159   5.313  0.00  0.00    -0.387 OA
ATOM     11  H   LIG    1       23.732 -29.827   4.801  0.00  0.00    +0.210 HD
ENDBRANCH   9  10
BRANCH   9  12
ATOM     12  C   LIG    1       25.148 -29.813   6.707  0.00  0.00    +0.115 C 
BRANCH  12  13
ATOM     13  N   LIG    1       25.880 -30.560   5.643  0.00  0.00    -0.311 NA
ATOM     14  H   LIG    1       26.706 -30.063   5.319  0.00  0.00    +0.122 HD
BRANCH  13  16
ATOM     15  C   LIG    1       26.313 -32.691   4.382  0.00  0.00    +0.024 C 
ATOM     16  C   LIG    1       26.095 -32.015   5.760  0.00  0.00    +0.048 C 
ATOM     17  C   LIG    1       27.244 -32.506   6.639  0.00  0.00    +0.024 C 
ENDBRANCH  13  16
ENDBRANCH  12  13
ENDBRANCH   9  12
ENDBRANCH   8   9
ENDBRANCH   7   8
ENDBRANCH   1   7
BRANCH   4  18
ATOM     18  C   LIG    1       25.562 -21.340   8.255  0.00  0.00    +0.195 C 
BRANCH  18  19
ATOM     19  O   LIG    1       26.952 -21.330   8.598  0.00  0.00    -0.373 OA
BRANCH  19  20
ATOM     20  C   LIG    1       27.789 -20.547   7.729  0.00  0.00    +0.188 C 
BRANCH  20  21
ATOM     21  C   LIG    1       29.262 -21.034   7.664  0.00  0.00    +0.188 C 
BRANCH  21  22
ATOM     22  O   LIG    1       30.087 -20.671   8.782  0.00  0.00    -0.375 OA
BRANCH  22  23
ATOM     23  C   LIG    1       31.024 -19.602   8.587  0.00  0.00    +0.112 C 
ATOM     24  C   LIG    1       30.558 -18.309   9.231  0.00  0.00    +0.037 C 
ATOM     25  C   LIG    1       31.118 -19.329   7.088  0.00  0.00    +0.037 C 
ENDBRANCH  22  23
ENDBRANCH  21  22
ENDBRANCH  20  21
ENDBRANCH  19  20
ENDBRANCH  18  19
ENDBRANCH   4  18
TORSDOF 13
ENDMDL
MODEL 5
REMARK VINA RESULT:      -7.3      2.337      3.721
REMARK  Name = *****
REMARK                            x       y       z     vdW  Elec       q    Type
REMARK                         _______ _______ _______ _____ _____    ______ ____
ROOT
ATOM      1  C   LIG    1       26.830 -20.989   6.568  0.00  0.00    +0.121 A 
ATOM      2  C   LIG    1       27.689 -20.077   5.965  0.00  0.00    +0.046 A 
ATOM      3  C   LIG    1       29.025 -19.850   6.408  0.00  0.00    +0.009 A 
ATOM      4  C   LIG    1       29.523 -20.540   7.536  0.00  0.00    -0.022 A 
ATOM      5  C   LIG    1       28.650 -21.443   8.127  0.00  0.00    +0.009 A 
ATOM      6  C   LIG    1       27.350 -21.710   7.661  0.00  0.00    +0.046 A 
ENDROOT
BRANCH   1   7
ATOM      7  O   LIG    1       25.591 -21.235   6.063  0.00  0.00    -0.489 OA
BRANCH   7   8
ATOM      8  C   LIG    1       24.843 -22.407   6.498  0.00  0.00    +0.261 C 
BRANCH   8   9
ATOM      9  C   LIG    1       23.317 -22.147   6.669  0.00  0.00    +0.166 C 
BRANCH   9  10
ATOM     10  O   LIG    1       23.249 -21.552   7.963  0.00  0.00    -0.387 OA
ATOM     11  H   LIG    1       22.354 -21.173   8.030  0.00  0.00    +0.210 HD
ENDBRANCH   9  10
BRANCH   9  12
ATOM     12  C   LIG    1       22.578 -21.252   5.624  0.00  0.00    +0.115 C 
BRANCH  12  13
ATOM     13  N   LIG    1       23.213 -21.012   4.295  0.00  0.00    -0.311 NA
ATOM     14  H   LIG    1       22.929 -21.698   3.600  0.00  0.00    +0.122 HD
BRANCH  13  16
ATOM     15  C   LIG    1       22.415 -18.638   4.511  0.00  0.00    +0.024 C 
ATOM     16  C   LIG    1       23.311 -19.646   3.746  0.00  0.00    +0.048 C 
ATOM     17  C   LIG    1       24.690 -18.992   3.679  0.00  0.00    +0.024 C 
ENDBRANCH  13  16
ENDBRANCH  12  13
ENDBRANCH   9  12
ENDBRANCH   8   9
ENDBRANCH   7   8
ENDBRANCH   1   7
BRANCH   4  18
ATOM     18  C   LIG    1       30.909 -20.296   8.176  0.00  0.00    +0.195 C 
BRANCH  18  19
ATOM     19  O   LIG    1       31.772 -19.381   7.492  0.00  0.00    -0.373 OA
BRANCH  19  20
ATOM     20  C   LIG    1       31.890 -18.084   8.101  0.00  0.00    +0.188 C 
BRANCH  20  21
ATOM     21  C   LIG    1       31.791 -18.103   9.650  0.00  0.00    +0.188 C 
BRANCH  21  22
ATOM     22  O   LIG    1       32.813 -17.375  10.349  0.00  0.00    -0.375 OA
BRANCH  22  23
ATOM     23  C   LIG    1       32.389 -16.316  11.218  0.00  0.00    +0.112 C 
ATOM     24  C   LIG    1       33.010 -16.424  12.598  0.00  0.00    +0.037 C 
ATOM     25  C   LIG    1       30.880 -16.445  11.411  0.00  0.00    +0.037 C 
ENDBRANCH  22  23
ENDBRANCH  21  22
ENDBRANCH  20  21
ENDBRANCH  19  20
ENDBRANCH  18  19
ENDBRANCH   4  18
TORSDOF 13
ENDMDL
MODEL 6
REMARK VINA RESULT:      -7.3      3.990      6.462
REMARK  Name = *****
REMARK                            x       y       z     vdW  Elec       q    Type
REMARK                         _______ _______ _______ _____ _____    ______ ____
ROOT
ATOM      1  C   LIG    1       24.398 -25.400   6.173  0.00  0.00    +0.121 A 
ATOM      2  C   LIG    1       23.469 -24.422   6.511  0.00  0.00    +0.046 A 
ATOM      3  C   LIG    1       23.827 -23.175   7.103  0.00  0.00    +0.009 A 
ATOM      4  C   LIG    1       25.179 -22.901   7.412  0.00  0.00    -0.022 A 
ATOM      5  C   LIG    1       26.090 -23.891   7.071  0.00  0.00    +0.009 A 
ATOM      6  C   LIG    1       25.748 -25.099   6.437  0.00  0.00    +0.046 A 
ENDROOT
BRANCH   1   7
ATOM      7  O   LIG    1       24.023 -26.541   5.534  0.00  0.00    -0.489 OA
BRANCH   7   8
ATOM      8  C   LIG    1       24.831 -27.747   5.655  0.00  0.00    +0.261 C 
BRANCH   8   9
ATOM      9  C   LIG    1       24.092 -28.928   6.351  0.00  0.00    +0.166 C 
BRANCH   9  10
ATOM     10  O   LIG    1       23.231 -29.403   5.318  0.00  0.00    -0.387 OA
ATOM     11  H   LIG    1       23.750 -29.342   4.495  0.00  0.00    +0.210 HD
ENDBRANCH   9  10
BRANCH   9  12
ATOM     12  C   LIG    1       24.931 -30.107   6.939  0.00  0.00    +0.115 C 
BRANCH  12  13
ATOM     13  N   LIG    1       24.797 -30.441   8.387  0.00  0.00    -0.311 NA
ATOM     14  H   LIG    1       24.783 -31.444   8.554  0.00  0.00    +0.122 HD
BRANCH  13  16
ATOM     15  C   LIG    1       24.881 -29.706  10.790  0.00  0.00    +0.024 C 
ATOM     16  C   LIG    1       25.572 -29.701   9.402  0.00  0.00    +0.048 C 
ATOM     17  C   LIG    1       27.013 -30.132   9.665  0.00  0.00    +0.024 C 
ENDBRANCH  13  16
ENDBRANCH  12  13
ENDBRANCH   9  12
ENDBRANCH   8   9
ENDBRANCH   7   8
ENDBRANCH   1   7
BRANCH   4  18
ATOM     18  C   LIG    1       25.673 -21.639   8.155  0.00  0.00    +0.195 C 
BRANCH  18  19
ATOM     19  O   LIG    1       25.711 -20.427   7.393  0.00  0.00    -0.373 OA
BRANCH  19  20
ATOM     20  C   LIG    1       26.625 -20.434   6.282  0.00  0.00    +0.188 C 
BRANCH  20  21
ATOM     21  C   LIG    1       25.946 -20.197   4.906  0.00  0.00    +0.188 C 
BRANCH  21  22
ATOM     22  O   LIG    1       24.779 -20.991   4.642  0.00  0.00    -0.375 OA
BRANCH  22  23
ATOM     23  C   LIG    1       23.594 -20.299   4.225  0.00  0.00    +0.112 C 
ATOM     24  C   LIG    1       23.905 -18.937   3.633  0.00  0.00    +0.037 C 
ATOM     25  C   LIG    1       22.739 -20.046   5.465  0.00  0.00    +0.037 C 
ENDBRANCH  22  23
ENDBRANCH  21  22
ENDBRANCH  20  21
ENDBRANCH  19  20
ENDBRANCH  18  19
ENDBRANCH   4  18
TORSDOF 13
ENDMDL
MODEL 7
REMARK VINA RESULT:      -7.2      2.797      4.738
REMARK  Name = *****
REMARK                            x       y       z     vdW  Elec       q    Type
REMARK                         _______ _______ _______ _____ _____    ______ ____
ROOT
ATOM      1  C   LIG    1       24.355 -25.215   6.192  0.00  0.00    +0.121 A 
ATOM      2  C   LIG    1       23.371 -24.280   6.497  0.00  0.00    +0.046 A 
ATOM      3  C   LIG    1       23.653 -23.009   7.077  0.00  0.00    +0.009 A 
ATOM      4  C   LIG    1       24.982 -22.660   7.407  0.00  0.00    -0.022 A 
ATOM      5  C   LIG    1       25.950 -23.607   7.100  0.00  0.00    +0.009 A 
ATOM      6  C   LIG    1       25.683 -24.840   6.477  0.00  0.00    +0.046 A 
ENDROOT
BRANCH   1   7
ATOM      7  O   LIG    1       24.052 -26.382   5.563  0.00  0.00    -0.489 OA
BRANCH   7   8
ATOM      8  C   LIG    1       24.840 -27.579   5.824  0.00  0.00    +0.261 C 
BRANCH   8   9
ATOM      9  C   LIG    1       24.017 -28.746   6.446  0.00  0.00    +0.166 C 
BRANCH   9  10
ATOM     10  O   LIG    1       23.298 -29.248   5.322  0.00  0.00    -0.387 OA
ATOM     11  H   LIG    1       23.804 -30.022   5.012  0.00  0.00    +0.210 HD
ENDBRANCH   9  10
BRANCH   9  12
ATOM     12  C   LIG    1       24.773 -29.908   7.167  0.00  0.00    +0.115 C 
BRANCH  12  13
ATOM     13  N   LIG    1       26.064 -29.616   7.854  0.00  0.00    -0.311 NA
ATOM     14  H   LIG    1       26.568 -28.844   7.423  0.00  0.00    +0.122 HD
BRANCH  13  16
ATOM     15  C   LIG    1       26.991 -30.769   9.887  0.00  0.00    +0.024 C 
ATOM     16  C   LIG    1       26.142 -29.599   9.329  0.00  0.00    +0.048 C 
ATOM     17  C   LIG    1       26.686 -28.344  10.008  0.00  0.00    +0.024 C 
ENDBRANCH  13  16
ENDBRANCH  12  13
ENDBRANCH   9  12
ENDBRANCH   8   9
ENDBRANCH   7   8
ENDBRANCH   1   7
BRANCH   4  18
ATOM     18  C   LIG    1       25.396 -21.365   8.141  0.00  0.00    +0.195 C 
BRANCH  18  19
ATOM     19  O   LIG    1       26.720 -21.339   8.686  0.00  0.00    -0.373 OA
BRANCH  19  20
ATOM     20  C   LIG    1       27.609 -20.383   8.084  0.00  0.00    +0.188 C 
BRANCH  20  21
ATOM     21  C   LIG    1       28.974 -20.980   7.646  0.00  0.00    +0.188 C 
BRANCH  21  22
ATOM     22  O   LIG    1       30.041 -20.861   8.600  0.00  0.00    -0.375 OA
BRANCH  22  23
ATOM     23  C   LIG    1       31.106 -19.955   8.284  0.00  0.00    +0.112 C 
ATOM     24  C   LIG    1       31.143 -18.765   9.225  0.00  0.00    +0.037 C 
ATOM     25  C   LIG    1       30.847 -19.395   6.888  0.00  0.00    +0.037 C 
ENDBRANCH  22  23
ENDBRANCH  21  22
ENDBRANCH  20  21
ENDBRANCH  19  20
ENDBRANCH  18  19
ENDBRANCH   4  18
TORSDOF 13
ENDMDL
MODEL 8
REMARK VINA RESULT:      -7.2      2.553      4.233
REMARK  Name = *****
REMARK                            x       y       z     vdW  Elec       q    Type
REMARK                         _______ _______ _______ _____ _____    ______ ____
ROOT
ATOM      1  C   LIG    1       24.314 -24.723   6.578  0.00  0.00    +0.121 A 
ATOM      2  C   LIG    1       23.416 -23.685   6.805  0.00  0.00    +0.046 A 
ATOM      3  C   LIG    1       23.812 -22.397   7.274  0.00  0.00    +0.009 A 
ATOM      4  C   LIG    1       25.170 -22.138   7.569  0.00  0.00    -0.022 A 
ATOM      5  C   LIG    1       26.050 -23.188   7.340  0.00  0.00    +0.009 A 
ATOM      6  C   LIG    1       25.672 -24.441   6.826  0.00  0.00    +0.046 A 
ENDROOT
BRANCH   1   7
ATOM      7  O   LIG    1       23.905 -25.909   6.052  0.00  0.00    -0.489 OA
BRANCH   7   8
ATOM      8  C   LIG    1       24.649 -26.519   4.959  0.00  0.00    +0.261 C 
BRANCH   8   9
ATOM      9  C   LIG    1       24.938 -28.035   5.168  0.00  0.00    +0.166 C 
BRANCH   9  10
ATOM     10  O   LIG    1       26.313 -28.037   5.545  0.00  0.00    -0.387 OA
ATOM     11  H   LIG    1       26.499 -27.133   5.860  0.00  0.00    +0.210 HD
ENDBRANCH   9  10
BRANCH   9  12
ATOM     12  C   LIG    1       24.091 -28.832   6.210  0.00  0.00    +0.115 C 
BRANCH  12  13
ATOM     13  N   LIG    1       23.457 -30.118   5.798  0.00  0.00    -0.311 NA
ATOM     14  H   LIG    1       23.124 -30.096   4.837  0.00  0.00    +0.122 HD
BRANCH  13  16
ATOM     15  C   LIG    1       25.318 -31.731   5.296  0.00  0.00    +0.024 C 
ATOM     16  C   LIG    1       24.073 -31.409   6.162  0.00  0.00    +0.048 C 
ATOM     17  C   LIG    1       24.520 -31.613   7.607  0.00  0.00    +0.024 C 
ENDBRANCH  13  16
ENDBRANCH  12  13
ENDBRANCH   9  12
ENDBRANCH   8   9
ENDBRANCH   7   8
ENDBRANCH   1   7
BRANCH   4  18
ATOM     18  C   LIG    1       25.701 -20.826   8.187  0.00  0.00    +0.195 C 
BRANCH  18  19
ATOM     19  O   LIG    1       27.104 -20.779   8.470  0.00  0.00    -0.373 OA
BRANCH  19  20
ATOM     20  C   LIG    1       27.905 -20.123   7.471  0.00  0.00    +0.188 C 
BRANCH  20  21
ATOM     21  C   LIG    1       29.311 -19.695   7.972  0.00  0.00    +0.188 C 
BRANCH  21  22
ATOM     22  O   LIG    1       29.326 -18.757   9.059  0.00  0.00    -0.375 OA
BRANCH  22  23
ATOM     23  C   LIG    1       30.382 -17.786   9.076  0.00  0.00    +0.112 C 
ATOM     24  C   LIG    1       31.681 -18.344   8.524  0.00  0.00    +0.037 C 
ATOM     25  C   LIG    1       30.655 -17.416  10.532  0.00  0.00    +0.037 C 
ENDBRANCH  22  23
ENDBRANCH  21  22
ENDBRANCH  20  21
ENDBRANCH  19  20
ENDBRANCH  18  19
ENDBRANCH   4  18
TORSDOF 13
ENDMDL
MODEL 9
REMARK VINA RESULT:      -7.2      3.254      8.345
REMARK  Name = *****
REMARK                            x       y       z     vdW  Elec       q    Type
REMARK                         _______ _______ _______ _____ _____    ______ ____
ROOT
ATOM      1  C   LIG    1       27.239 -21.459   8.006  0.00  0.00    +0.121 A 
ATOM      2  C   LIG    1       26.164 -20.651   8.363  0.00  0.00    +0.046 A 
ATOM      3  C   LIG    1       24.812 -20.957   8.030  0.00  0.00    +0.009 A 
ATOM      4  C   LIG    1       24.513 -22.110   7.270  0.00  0.00    -0.022 A 
ATOM      5  C   LIG    1       25.599 -22.901   6.920  0.00  0.00    +0.009 A 
ATOM      6  C   LIG    1       26.929 -22.632   7.292  0.00  0.00    +0.046 A 
ENDROOT
BRANCH   1   7
ATOM      7  O   LIG    1       28.505 -21.173   8.414  0.00  0.00    -0.489 OA
BRANCH   7   8
ATOM      8  C   LIG    1       29.466 -20.610   7.476  0.00  0.00    +0.261 C 
BRANCH   8   9
ATOM      9  C   LIG    1       30.739 -20.027   8.158  0.00  0.00    +0.166 C 
BRANCH   9  10
ATOM     10  O   LIG    1       31.537 -21.191   8.364  0.00  0.00    -0.387 OA
ATOM     11  H   LIG    1       31.213 -21.586   9.194  0.00  0.00    +0.210 HD
ENDBRANCH   9  10
BRANCH   9  12
ATOM     12  C   LIG    1       31.565 -18.931   7.412  0.00  0.00    +0.115 C 
BRANCH  12  13
ATOM     13  N   LIG    1       32.141 -17.799   8.195  0.00  0.00    -0.311 NA
ATOM     14  H   LIG    1       32.167 -16.933   7.662  0.00  0.00    +0.122 HD
BRANCH  13  16
ATOM     15  C   LIG    1       32.770 -16.692  10.363  0.00  0.00    +0.024 C 
ATOM     16  C   LIG    1       31.760 -17.593   9.607  0.00  0.00    +0.048 C 
ATOM     17  C   LIG    1       30.385 -17.000   9.904  0.00  0.00    +0.024 C 
ENDBRANCH  13  16
ENDBRANCH  12  13
ENDBRANCH   9  12
ENDBRANCH   8   9
ENDBRANCH   7   8
ENDBRANCH   1   7
BRANCH   4  18
ATOM     18  C   LIG    1       23.106 -22.484   6.754  0.00  0.00    +0.195 C 
BRANCH  18  19
ATOM     19  O   LIG    1       22.311 -21.408   6.241  0.00  0.00    -0.373 OA
BRANCH  19  20
ATOM     20  C   LIG    1       22.627 -21.004   4.897  0.00  0.00    +0.188 C 
BRANCH  20  21
ATOM     21  C   LIG    1       23.178 -19.557   4.787  0.00  0.00    +0.188 C 
BRANCH  21  22
ATOM     22  O   LIG    1       23.764 -19.208   3.523  0.00  0.00    -0.375 OA
BRANCH  22  23
ATOM     23  C   LIG    1       25.192 -19.291   3.416  0.00  0.00    +0.112 C 
ATOM     24  C   LIG    1       25.824 -19.906   4.651  0.00  0.00    +0.037 C 
ATOM     25  C   LIG    1       25.738 -17.869   3.312  0.00  0.00    +0.037 C 
ENDBRANCH  22  23
ENDBRANCH  21  22
ENDBRANCH  20  21
ENDBRANCH  19  20
ENDBRANCH  18  19
ENDBRANCH   4  18
TORSDOF 13
ENDMDL
