MODEL 1
REMARK VINA RESULT:      -4.8      0.000      0.000
REMARK  Name = *****
REMARK                            x       y       z     vdW  Elec       q    Type
REMARK                         _______ _______ _______ _____ _____    ______ ____
ROOT
ATOM      1  C   LIG    1       25.983 -18.108   3.863  0.00  0.00    +0.054 C 
ENDROOT
BRANCH   1   5
ATOM      2  C   LIG    1       27.870 -21.572   7.062  0.00  0.00    +0.044 C 
ATOM      3  C   LIG    1       28.041 -20.317   6.263  0.00  0.00    -0.050 A 
ATOM      4  C   LIG    1       26.996 -19.818   5.485  0.00  0.00    +0.011 A 
ATOM      5  C   LIG    1       27.118 -18.638   4.733  0.00  0.00    +0.002 A 
ATOM      6  C   LIG    1       28.353 -17.954   4.795  0.00  0.00    +0.121 A 
ATOM      7  C   LIG    1       29.395 -18.430   5.580  0.00  0.00    +0.046 A 
ATOM      8  C   LIG    1       29.250 -19.601   6.316  0.00  0.00    +0.007 A 
BRANCH   6   9
ATOM      9  O   LIG    1       28.508 -16.801   4.079  0.00  0.00    -0.506 OA
ATOM     10  H   LIG    1       29.142 -16.973   3.356  0.00  0.00    +0.292 HD
ENDBRANCH   6   9
ENDBRANCH   1   5
BRANCH   1  11
ATOM     11  C   LIG    1       24.698 -18.940   3.961  0.00  0.00    -0.040 A 
ATOM     12  C   LIG    1       24.724 -20.302   4.295  0.00  0.00    +0.004 A 
ATOM     13  C   LIG    1       23.544 -21.018   4.503  0.00  0.00    +0.000 A 
ATOM     14  C   LIG    1       22.314 -20.377   4.377  0.00  0.00    +0.000 A 
ATOM     15  C   LIG    1       22.267 -19.032   4.028  0.00  0.00    +0.000 A 
ATOM     16  C   LIG    1       23.447 -18.315   3.813  0.00  0.00    +0.004 A 
ENDBRANCH   1  11
BRANCH   1  17
ATOM     17  C   LIG    1       25.589 -16.617   4.088  0.00  0.00    +0.028 C 
BRANCH  17  18
ATOM     18  C   LIG    1       26.031 -15.686   2.940  0.00  0.00    +0.086 C 
BRANCH  18  19
ATOM     19  N   LIG    1       26.231 -14.254   3.280  0.00  0.00    -0.297 NA
BRANCH  19  20
ATOM     20  C   LIG    1       27.315 -14.027   4.274  0.00  0.00    +0.051 C 
ATOM     21  C   LIG    1       26.906 -13.358   5.595  0.00  0.00    +0.024 C 
ATOM     22  C   LIG    1       28.589 -13.365   3.724  0.00  0.00    +0.024 C 
ENDBRANCH  19  20
BRANCH  19  23
ATOM     23  C   LIG    1       24.945 -13.525   3.494  0.00  0.00    +0.051 C 
ATOM     24  C   LIG    1       23.765 -14.369   3.995  0.00  0.00    +0.024 C 
ATOM     25  C   LIG    1       24.459 -12.728   2.257  0.00  0.00    +0.024 C 
ENDBRANCH  19  23
ENDBRANCH  18  19
ENDBRANCH  17  18
ENDBRANCH   1  17
TORSDOF 8
ENDMDL
MODEL 2
REMARK VINA RESULT:      -4.0      1.598      2.455
REMARK  Name = *****
REMARK                            x       y       z     vdW  Elec       q    Type
REMARK                         _______ _______ _______ _____ _____    ______ ____
ROOT
ATOM      1  C   LIG    1       25.439 -19.089   3.603  0.00  0.00    +0.054 C 
ENDROOT
BRANCH   1   5
ATOM      2  C   LIG    1       29.475 -19.382   6.672  0.00  0.00    +0.044 C 
ATOM      3  C   LIG    1       28.094 -19.827   6.302  0.00  0.00    -0.050 A 
ATOM      4  C   LIG    1       27.446 -19.292   5.188  0.00  0.00    +0.011 A 
ATOM      5  C   LIG    1       26.156 -19.695   4.806  0.00  0.00    +0.002 A 
ATOM      6  C   LIG    1       25.524 -20.683   5.594  0.00  0.00    +0.121 A 
ATOM      7  C   LIG    1       26.165 -21.236   6.694  0.00  0.00    +0.046 A 
ATOM      8  C   LIG    1       27.443 -20.821   7.053  0.00  0.00    +0.007 A 
BRANCH   6   9
ATOM      9  O   LIG    1       24.270 -21.102   5.251  0.00  0.00    -0.506 OA
ATOM     10  H   LIG    1       24.295 -22.070   5.124  0.00  0.00    +0.292 HD
ENDBRANCH   6   9
ENDBRANCH   1   5
BRANCH   1  11
ATOM     11  C   LIG    1       23.951 -18.814   3.853  0.00  0.00    -0.040 A 
ATOM     12  C   LIG    1       23.507 -17.612   4.423  0.00  0.00    +0.004 A 
ATOM     13  C   LIG    1       22.146 -17.322   4.530  0.00  0.00    +0.000 A 
ATOM     14  C   LIG    1       21.204 -18.238   4.069  0.00  0.00    +0.000 A 
ATOM     15  C   LIG    1       21.624 -19.445   3.518  0.00  0.00    +0.000 A 
ATOM     16  C   LIG    1       22.986 -19.739   3.415  0.00  0.00    +0.004 A 
ENDBRANCH   1  11
BRANCH   1  17
ATOM     17  C   LIG    1       26.062 -17.782   3.026  0.00  0.00    +0.028 C 
BRANCH  17  18
ATOM     18  C   LIG    1       25.807 -16.541   3.905  0.00  0.00    +0.086 C 
BRANCH  18  19
ATOM     19  N   LIG    1       26.216 -15.227   3.343  0.00  0.00    -0.297 NA
BRANCH  19  20
ATOM     20  C   LIG    1       27.260 -14.538   4.150  0.00  0.00    +0.051 C 
ATOM     21  C   LIG    1       26.778 -13.785   5.398  0.00  0.00    +0.024 C 
ATOM     22  C   LIG    1       28.238 -13.659   3.352  0.00  0.00    +0.024 C 
ENDBRANCH  19  20
BRANCH  19  23
ATOM     23  C   LIG    1       25.054 -14.407   2.887  0.00  0.00    +0.051 C 
ATOM     24  C   LIG    1       25.394 -13.076   2.200  0.00  0.00    +0.024 C 
ATOM     25  C   LIG    1       24.018 -14.108   4.000  0.00  0.00    +0.024 C 
ENDBRANCH  19  23
ENDBRANCH  18  19
ENDBRANCH  17  18
ENDBRANCH   1  17
TORSDOF 8
ENDMDL
MODEL 3
REMARK VINA RESULT:      -3.7      1.762      5.569
REMARK  Name = *****
REMARK                            x       y       z     vdW  Elec       q    Type
REMARK                         _______ _______ _______ _____ _____    ______ ____
ROOT
ATOM      1  C   LIG    1       25.410 -17.367   3.931  0.00  0.00    +0.054 C 
ENDROOT
BRANCH   1   5
ATOM      2  C   LIG    1       24.748 -12.681   2.089  0.00  0.00    +0.044 C 
ATOM      3  C   LIG    1       25.636 -13.717   2.704  0.00  0.00    -0.050 A 
ATOM      4  C   LIG    1       25.146 -14.988   3.009  0.00  0.00    +0.011 A 
ATOM      5  C   LIG    1       25.955 -15.987   3.575  0.00  0.00    +0.002 A 
ATOM      6  C   LIG    1       27.307 -15.664   3.826  0.00  0.00    +0.121 A 
ATOM      7  C   LIG    1       27.811 -14.409   3.511  0.00  0.00    +0.046 A 
ATOM      8  C   LIG    1       26.992 -13.436   2.950  0.00  0.00    +0.007 A 
BRANCH   6   9
ATOM      9  O   LIG    1       28.125 -16.611   4.374  0.00  0.00    -0.506 OA
ATOM     10  H   LIG    1       28.959 -16.178   4.640  0.00  0.00    +0.292 HD
ENDBRANCH   6   9
ENDBRANCH   1   5
BRANCH   1  11
ATOM     11  C   LIG    1       23.881 -17.410   4.044  0.00  0.00    -0.040 A 
ATOM     12  C   LIG    1       23.148 -18.553   3.695  0.00  0.00    +0.004 A 
ATOM     13  C   LIG    1       21.771 -18.625   3.919  0.00  0.00    +0.000 A 
ATOM     14  C   LIG    1       21.107 -17.546   4.496  0.00  0.00    +0.000 A 
ATOM     15  C   LIG    1       21.813 -16.396   4.831  0.00  0.00    +0.000 A 
ATOM     16  C   LIG    1       23.190 -16.320   4.602  0.00  0.00    +0.004 A 
ENDBRANCH   1  11
BRANCH   1  17
ATOM     17  C   LIG    1       25.840 -18.533   2.991  0.00  0.00    +0.028 C 
BRANCH  17  18
ATOM     18  C   LIG    1       26.438 -19.739   3.743  0.00  0.00    +0.086 C 
BRANCH  18  19
ATOM     19  N   LIG    1       26.022 -19.919   5.158  0.00  0.00    -0.297 NA
BRANCH  19  20
ATOM     20  C   LIG    1       27.161 -19.896   6.117  0.00  0.00    +0.051 C 
ATOM     21  C   LIG    1       28.545 -19.579   5.532  0.00  0.00    +0.024 C 
ATOM     22  C   LIG    1       27.255 -21.107   7.060  0.00  0.00    +0.024 C 
ENDBRANCH  19  20
BRANCH  19  23
ATOM     23  C   LIG    1       25.008 -21.001   5.329  0.00  0.00    +0.051 C 
ATOM     24  C   LIG    1       24.383 -21.553   4.039  0.00  0.00    +0.024 C 
ATOM     25  C   LIG    1       23.849 -20.633   6.290  0.00  0.00    +0.024 C 
ENDBRANCH  19  23
ENDBRANCH  18  19
ENDBRANCH  17  18
ENDBRANCH   1  17
TORSDOF 8
ENDMDL
MODEL 4
REMARK VINA RESULT:      -3.5      1.775      2.810
REMARK  Name = *****
REMARK                            x       y       z     vdW  Elec       q    Type
REMARK                         _______ _______ _______ _____ _____    ______ ____
ROOT
ATOM      1  C   LIG    1       25.633 -19.047   3.609  0.00  0.00    +0.054 C 
ENDROOT
BRANCH   1   5
ATOM      2  C   LIG    1       29.328 -19.528   7.059  0.00  0.00    +0.044 C 
ATOM      3  C   LIG    1       28.020 -19.983   6.490  0.00  0.00    -0.050 A 
ATOM      4  C   LIG    1       27.467 -19.350   5.377  0.00  0.00    +0.011 A 
ATOM      5  C   LIG    1       26.249 -19.759   4.810  0.00  0.00    +0.002 A 
ATOM      6  C   LIG    1       25.590 -20.856   5.408  0.00  0.00    +0.121 A 
ATOM      7  C   LIG    1       26.139 -21.506   6.505  0.00  0.00    +0.046 A 
ATOM      8  C   LIG    1       27.347 -21.084   7.049  0.00  0.00    +0.007 A 
BRANCH   6   9
ATOM      9  O   LIG    1       24.404 -21.283   4.883  0.00  0.00    -0.506 OA
ATOM     10  H   LIG    1       23.878 -21.685   5.601  0.00  0.00    +0.292 HD
ENDBRANCH   6   9
ENDBRANCH   1   5
BRANCH   1  11
ATOM     11  C   LIG    1       24.109 -18.905   3.698  0.00  0.00    -0.040 A 
ATOM     12  C   LIG    1       23.248 -19.653   2.881  0.00  0.00    +0.004 A 
ATOM     13  C   LIG    1       21.864 -19.608   3.056  0.00  0.00    +0.000 A 
ATOM     14  C   LIG    1       21.319 -18.806   4.055  0.00  0.00    +0.000 A 
ATOM     15  C   LIG    1       22.154 -18.041   4.863  0.00  0.00    +0.000 A 
ATOM     16  C   LIG    1       23.540 -18.081   4.685  0.00  0.00    +0.004 A 
ENDBRANCH   1  11
BRANCH   1  17
ATOM     17  C   LIG    1       26.213 -17.639   3.280  0.00  0.00    +0.028 C 
BRANCH  17  18
ATOM     18  C   LIG    1       25.158 -16.515   3.329  0.00  0.00    +0.086 C 
BRANCH  18  19
ATOM     19  N   LIG    1       25.612 -15.192   3.831  0.00  0.00    -0.297 NA
BRANCH  19  20
ATOM     20  C   LIG    1       24.517 -14.187   3.925  0.00  0.00    +0.051 C 
ATOM     21  C   LIG    1       24.725 -13.037   4.921  0.00  0.00    +0.024 C 
ATOM     22  C   LIG    1       23.101 -14.765   4.081  0.00  0.00    +0.024 C 
ENDBRANCH  19  20
BRANCH  19  23
ATOM     23  C   LIG    1       26.895 -14.747   3.209  0.00  0.00    +0.051 C 
ATOM     24  C   LIG    1       28.018 -14.356   4.181  0.00  0.00    +0.024 C 
ATOM     25  C   LIG    1       26.734 -13.591   2.190  0.00  0.00    +0.024 C 
ENDBRANCH  19  23
ENDBRANCH  18  19
ENDBRANCH  17  18
ENDBRANCH   1  17
TORSDOF 8
ENDMDL
MODEL 5
REMARK VINA RESULT:      -3.4      1.724      5.829
REMARK  Name = *****
REMARK                            x       y       z     vdW  Elec       q    Type
REMARK                         _______ _______ _______ _____ _____    ______ ____
ROOT
ATOM      1  C   LIG    1       26.534 -18.442   3.643  0.00  0.00    +0.054 C 
ENDROOT
BRANCH   1   5
ATOM      2  C   LIG    1       24.097 -13.991   3.427  0.00  0.00    +0.044 C 
ATOM      3  C   LIG    1       25.349 -14.771   3.681  0.00  0.00    -0.050 A 
ATOM      4  C   LIG    1       25.365 -16.160   3.547  0.00  0.00    +0.011 A 
ATOM      5  C   LIG    1       26.526 -16.921   3.764  0.00  0.00    +0.002 A 
ATOM      6  C   LIG    1       27.701 -16.225   4.123  0.00  0.00    +0.121 A 
ATOM      7  C   LIG    1       27.703 -14.841   4.241  0.00  0.00    +0.046 A 
ATOM      8  C   LIG    1       26.542 -14.109   4.021  0.00  0.00    +0.007 A 
BRANCH   6   9
ATOM      9  O   LIG    1       28.850 -16.931   4.341  0.00  0.00    -0.506 OA
ATOM     10  H   LIG    1       29.556 -16.300   4.582  0.00  0.00    +0.292 HD
ENDBRANCH   6   9
ENDBRANCH   1   5
BRANCH   1  11
ATOM     11  C   LIG    1       27.113 -19.150   4.874  0.00  0.00    -0.040 A 
ATOM     12  C   LIG    1       26.371 -20.093   5.601  0.00  0.00    +0.004 A 
ATOM     13  C   LIG    1       26.950 -20.822   6.642  0.00  0.00    +0.000 A 
ATOM     14  C   LIG    1       28.286 -20.613   6.973  0.00  0.00    +0.000 A 
ATOM     15  C   LIG    1       29.033 -19.669   6.277  0.00  0.00    +0.000 A 
ATOM     16  C   LIG    1       28.454 -18.934   5.238  0.00  0.00    +0.004 A 
ENDBRANCH   1  11
BRANCH   1  17
ATOM     17  C   LIG    1       25.160 -19.108   3.328  0.00  0.00    +0.028 C 
BRANCH  17  18
ATOM     18  C   LIG    1       24.078 -18.814   4.387  0.00  0.00    +0.086 C 
BRANCH  18  19
ATOM     19  N   LIG    1       22.761 -19.474   4.199  0.00  0.00    -0.297 NA
BRANCH  19  20
ATOM     20  C   LIG    1       21.607 -18.544   4.340  0.00  0.00    +0.051 C 
ATOM     21  C   LIG    1       20.560 -18.573   3.216  0.00  0.00    +0.024 C 
ATOM     22  C   LIG    1       21.969 -17.089   4.681  0.00  0.00    +0.024 C 
ENDBRANCH  19  20
BRANCH  19  23
ATOM     23  C   LIG    1       22.668 -20.788   4.903  0.00  0.00    +0.051 C 
ATOM     24  C   LIG    1       21.320 -21.517   4.800  0.00  0.00    +0.024 C 
ATOM     25  C   LIG    1       23.054 -20.729   6.402  0.00  0.00    +0.024 C 
ENDBRANCH  19  23
ENDBRANCH  18  19
ENDBRANCH  17  18
ENDBRANCH   1  17
TORSDOF 8
ENDMDL
MODEL 6
REMARK VINA RESULT:      -3.0      2.019      6.425
REMARK  Name = *****
REMARK                            x       y       z     vdW  Elec       q    Type
REMARK                         _______ _______ _______ _____ _____    ______ ____
ROOT
ATOM      1  C   LIG    1       26.193 -17.439   3.541  0.00  0.00    +0.054 C 
ENDROOT
BRANCH   1   5
ATOM      2  C   LIG    1       28.667 -13.005   3.630  0.00  0.00    +0.044 C 
ATOM      3  C   LIG    1       27.385 -13.774   3.699  0.00  0.00    -0.050 A 
ATOM      4  C   LIG    1       27.381 -15.166   3.602  0.00  0.00    +0.011 A 
ATOM      5  C   LIG    1       26.197 -15.919   3.675  0.00  0.00    +0.002 A 
ATOM      6  C   LIG    1       24.988 -15.212   3.860  0.00  0.00    +0.121 A 
ATOM      7  C   LIG    1       24.980 -13.829   3.976  0.00  0.00    +0.046 A 
ATOM      8  C   LIG    1       26.165 -13.105   3.901  0.00  0.00    +0.007 A 
BRANCH   6   9
ATOM      9  O   LIG    1       23.817 -15.911   3.938  0.00  0.00    -0.506 OA
ATOM     10  H   LIG    1       23.123 -15.309   4.268  0.00  0.00    +0.292 HD
ENDBRANCH   6   9
ENDBRANCH   1   5
BRANCH   1  11
ATOM     11  C   LIG    1       27.304 -18.126   4.344  0.00  0.00    -0.040 A 
ATOM     12  C   LIG    1       28.465 -17.442   4.733  0.00  0.00    +0.004 A 
ATOM     13  C   LIG    1       29.411 -18.040   5.568  0.00  0.00    +0.000 A 
ATOM     14  C   LIG    1       29.208 -19.339   6.025  0.00  0.00    +0.000 A 
ATOM     15  C   LIG    1       28.073 -20.041   5.635  0.00  0.00    +0.000 A 
ATOM     16  C   LIG    1       27.127 -19.447   4.794  0.00  0.00    +0.004 A 
ENDBRANCH   1  11
BRANCH   1  17
ATOM     17  C   LIG    1       24.853 -18.151   3.899  0.00  0.00    +0.028 C 
BRANCH  17  18
ATOM     18  C   LIG    1       24.897 -19.679   3.695  0.00  0.00    +0.086 C 
BRANCH  18  19
ATOM     19  N   LIG    1       23.988 -20.494   4.542  0.00  0.00    -0.297 NA
BRANCH  19  20
ATOM     20  C   LIG    1       22.548 -20.310   4.212  0.00  0.00    +0.051 C 
ATOM     21  C   LIG    1       21.967 -18.904   4.432  0.00  0.00    +0.024 C 
ATOM     22  C   LIG    1       21.596 -21.367   4.796  0.00  0.00    +0.024 C 
ENDBRANCH  19  20
BRANCH  19  23
ATOM     23  C   LIG    1       24.366 -20.468   5.987  0.00  0.00    +0.051 C 
ATOM     24  C   LIG    1       25.325 -21.572   6.455  0.00  0.00    +0.024 C 
ATOM     25  C   LIG    1       23.156 -20.458   6.955  0.00  0.00    +0.024 C 
ENDBRANCH  19  23
ENDBRANCH  18  19
ENDBRANCH  17  18
ENDBRANCH   1  17
TORSDOF 8
ENDMDL
MODEL 7
REMARK VINA RESULT:      -2.9      1.747      5.850
REMARK  Name = *****
REMARK                            x       y       z     vdW  Elec       q    Type
REMARK                         _______ _______ _______ _____ _____    ______ ____
ROOT
ATOM      1  C   LIG    1       25.540 -17.218   4.186  0.00  0.00    +0.054 C 
ENDROOT
BRANCH   1   5
ATOM      2  C   LIG    1       24.341 -12.891   1.813  0.00  0.00    +0.044 C 
ATOM      3  C   LIG    1       25.352 -13.751   2.505  0.00  0.00    -0.050 A 
ATOM      4  C   LIG    1       25.003 -15.013   2.990  0.00  0.00    +0.011 A 
ATOM      5  C   LIG    1       25.930 -15.851   3.633  0.00  0.00    +0.002 A 
ATOM      6  C   LIG    1       27.252 -15.373   3.771  0.00  0.00    +0.121 A 
ATOM      7  C   LIG    1       27.615 -14.127   3.276  0.00  0.00    +0.046 A 
ATOM      8  C   LIG    1       26.681 -13.315   2.643  0.00  0.00    +0.007 A 
BRANCH   6   9
ATOM      9  O   LIG    1       28.180 -16.160   4.389  0.00  0.00    -0.506 OA
ATOM     10  H   LIG    1       28.392 -15.762   5.255  0.00  0.00    +0.292 HD
ENDBRANCH   6   9
ENDBRANCH   1   5
BRANCH   1  11
ATOM     11  C   LIG    1       24.043 -17.527   4.053  0.00  0.00    -0.040 A 
ATOM     12  C   LIG    1       23.583 -18.788   3.647  0.00  0.00    +0.004 A 
ATOM     13  C   LIG    1       22.221 -19.096   3.650  0.00  0.00    +0.000 A 
ATOM     14  C   LIG    1       21.296 -18.140   4.059  0.00  0.00    +0.000 A 
ATOM     15  C   LIG    1       21.731 -16.877   4.448  0.00  0.00    +0.000 A 
ATOM     16  C   LIG    1       23.093 -16.565   4.440  0.00  0.00    +0.004 A 
ENDBRANCH   1  11
BRANCH   1  17
ATOM     17  C   LIG    1       26.319 -18.436   3.604  0.00  0.00    +0.028 C 
BRANCH  17  18
ATOM     18  C   LIG    1       27.483 -18.904   4.501  0.00  0.00    +0.086 C 
BRANCH  18  19
ATOM     19  N   LIG    1       27.215 -20.058   5.398  0.00  0.00    -0.297 NA
BRANCH  19  20
ATOM     20  C   LIG    1       25.765 -20.324   5.605  0.00  0.00    +0.051 C 
ATOM     21  C   LIG    1       25.286 -20.425   7.061  0.00  0.00    +0.024 C 
ATOM     22  C   LIG    1       25.182 -21.482   4.779  0.00  0.00    +0.024 C 
ENDBRANCH  19  20
BRANCH  19  23
ATOM     23  C   LIG    1       28.089 -20.063   6.609  0.00  0.00    +0.051 C 
ATOM     24  C   LIG    1       29.282 -19.097   6.587  0.00  0.00    +0.024 C 
ATOM     25  C   LIG    1       28.629 -21.465   6.991  0.00  0.00    +0.024 C 
ENDBRANCH  19  23
ENDBRANCH  18  19
ENDBRANCH  17  18
ENDBRANCH   1  17
TORSDOF 8
ENDMDL
MODEL 8
REMARK VINA RESULT:      -2.8      1.930      6.186
REMARK  Name = *****
REMARK                            x       y       z     vdW  Elec       q    Type
REMARK                         _______ _______ _______ _____ _____    ______ ____
ROOT
ATOM      1  C   LIG    1       26.572 -17.679   3.466  0.00  0.00    +0.054 C 
ENDROOT
BRANCH   1   5
ATOM      2  C   LIG    1       28.420 -12.956   3.718  0.00  0.00    +0.044 C 
ATOM      3  C   LIG    1       27.254 -13.894   3.758  0.00  0.00    -0.050 A 
ATOM      4  C   LIG    1       27.439 -15.269   3.610  0.00  0.00    +0.011 A 
ATOM      5  C   LIG    1       26.370 -16.179   3.655  0.00  0.00    +0.002 A 
ATOM      6  C   LIG    1       25.076 -15.651   3.866  0.00  0.00    +0.121 A 
ATOM      7  C   LIG    1       24.881 -14.286   4.033  0.00  0.00    +0.046 A 
ATOM      8  C   LIG    1       25.956 -13.405   3.985  0.00  0.00    +0.007 A 
BRANCH   6   9
ATOM      9  O   LIG    1       24.012 -16.505   3.918  0.00  0.00    -0.506 OA
ATOM     10  H   LIG    1       23.926 -16.831   4.834  0.00  0.00    +0.292 HD
ENDBRANCH   6   9
ENDBRANCH   1   5
BRANCH   1  11
ATOM     11  C   LIG    1       27.492 -18.310   4.519  0.00  0.00    -0.040 A 
ATOM     12  C   LIG    1       27.373 -19.657   4.891  0.00  0.00    +0.004 A 
ATOM     13  C   LIG    1       28.294 -20.252   5.756  0.00  0.00    +0.000 A 
ATOM     14  C   LIG    1       29.350 -19.500   6.265  0.00  0.00    +0.000 A 
ATOM     15  C   LIG    1       29.473 -18.158   5.924  0.00  0.00    +0.000 A 
ATOM     16  C   LIG    1       28.549 -17.559   5.063  0.00  0.00    +0.004 A 
ENDBRANCH   1  11
BRANCH   1  17
ATOM     17  C   LIG    1       25.274 -18.540   3.408  0.00  0.00    +0.028 C 
BRANCH  17  18
ATOM     18  C   LIG    1       25.305 -19.761   4.350  0.00  0.00    +0.086 C 
BRANCH  18  19
ATOM     19  N   LIG    1       24.088 -20.009   5.165  0.00  0.00    -0.297 NA
BRANCH  19  20
ATOM     20  C   LIG    1       24.240 -21.133   6.129  0.00  0.00    +0.051 C 
ATOM     21  C   LIG    1       23.049 -21.404   7.061  0.00  0.00    +0.024 C 
ATOM     22  C   LIG    1       25.549 -21.139   6.936  0.00  0.00    +0.024 C 
ENDBRANCH  19  20
BRANCH  19  23
ATOM     23  C   LIG    1       22.833 -19.969   4.356  0.00  0.00    +0.051 C 
ATOM     24  C   LIG    1       22.079 -18.631   4.342  0.00  0.00    +0.024 C 
ATOM     25  C   LIG    1       21.812 -21.077   4.721  0.00  0.00    +0.024 C 
ENDBRANCH  19  23
ENDBRANCH  18  19
ENDBRANCH  17  18
ENDBRANCH   1  17
TORSDOF 8
ENDMDL
MODEL 9
REMARK VINA RESULT:      -2.8      1.214      4.645
REMARK  Name = *****
REMARK                            x       y       z     vdW  Elec       q    Type
REMARK                         _______ _______ _______ _____ _____    ______ ____
ROOT
ATOM      1  C   LIG    1       26.081 -18.106   4.483  0.00  0.00    +0.054 C 
ENDROOT
BRANCH   1   5
ATOM      2  C   LIG    1       21.034 -18.516   4.094  0.00  0.00    +0.044 C 
ATOM      3  C   LIG    1       22.399 -19.108   3.923  0.00  0.00    -0.050 A 
ATOM      4  C   LIG    1       23.540 -18.382   4.267  0.00  0.00    +0.011 A 
ATOM      5  C   LIG    1       24.834 -18.911   4.131  0.00  0.00    +0.002 A 
ATOM      6  C   LIG    1       24.948 -20.228   3.633  0.00  0.00    +0.121 A 
ATOM      7  C   LIG    1       23.820 -20.968   3.304  0.00  0.00    +0.046 A 
ATOM      8  C   LIG    1       22.549 -20.423   3.448  0.00  0.00    +0.007 A 
BRANCH   6   9
ATOM      9  O   LIG    1       26.191 -20.777   3.489  0.00  0.00    -0.506 OA
ATOM     10  H   LIG    1       26.774 -20.398   4.174  0.00  0.00    +0.292 HD
ENDBRANCH   6   9
ENDBRANCH   1   5
BRANCH   1  11
ATOM     11  C   LIG    1       27.164 -18.932   5.188  0.00  0.00    -0.040 A 
ATOM     12  C   LIG    1       28.514 -18.551   5.167  0.00  0.00    +0.004 A 
ATOM     13  C   LIG    1       29.471 -19.240   5.914  0.00  0.00    +0.000 A 
ATOM     14  C   LIG    1       29.088 -20.328   6.695  0.00  0.00    +0.000 A 
ATOM     15  C   LIG    1       27.758 -20.733   6.714  0.00  0.00    +0.000 A 
ATOM     16  C   LIG    1       26.799 -20.048   5.961  0.00  0.00    +0.004 A 
ENDBRANCH   1  11
BRANCH   1  17
ATOM     17  C   LIG    1       26.765 -17.357   3.299  0.00  0.00    +0.028 C 
BRANCH  17  18
ATOM     18  C   LIG    1       26.116 -15.996   2.977  0.00  0.00    +0.086 C 
BRANCH  18  19
ATOM     19  N   LIG    1       25.976 -15.038   4.104  0.00  0.00    -0.297 NA
BRANCH  19  20
ATOM     20  C   LIG    1       24.765 -14.178   4.003  0.00  0.00    +0.051 C 
ATOM     21  C   LIG    1       23.429 -14.823   4.400  0.00  0.00    +0.024 C 
ATOM     22  C   LIG    1       24.605 -13.415   2.678  0.00  0.00    +0.024 C 
ENDBRANCH  19  20
BRANCH  19  23
ATOM     23  C   LIG    1       27.263 -14.366   4.454  0.00  0.00    +0.051 C 
ATOM     24  C   LIG    1       27.198 -13.325   5.582  0.00  0.00    +0.024 C 
ATOM     25  C   LIG    1       27.978 -13.705   3.248  0.00  0.00    +0.024 C 
ENDBRANCH  19  23
ENDBRANCH  18  19
ENDBRANCH  17  18
ENDBRANCH   1  17
TORSDOF 8
ENDMDL
