MODEL 1
REMARK VINA RESULT:      -5.2      0.000      0.000
REMARK  Name = *****
REMARK                            x       y       z     vdW  Elec       q    Type
REMARK                         _______ _______ _______ _____ _____    ______ ____
ROOT
ATOM      1  C   LIG    1       26.034 -20.082   4.592  0.00  0.00    +0.161 C 
ENDROOT
BRANCH   1   2
ATOM      2  C   LIG    1       24.504 -20.060   4.598  0.00  0.00    -0.018 A 
ATOM      3  C   LIG    1       23.779 -18.875   4.347  0.00  0.00    +0.006 A 
ATOM      4  C   LIG    1       22.382 -18.858   4.441  0.00  0.00    +0.000 A 
ATOM      5  C   LIG    1       21.687 -20.001   4.804  0.00  0.00    +0.000 A 
ATOM      6  C   LIG    1       22.383 -21.194   5.017  0.00  0.00    +0.000 A 
ATOM      7  C   LIG    1       23.777 -21.222   4.886  0.00  0.00    +0.006 A 
ENDBRANCH   1   2
BRANCH   1   8
ATOM      8  C   LIG    1       26.689 -20.061   6.035  0.00  0.00    +0.086 C 
ATOM      9  C   LIG    1       25.864 -20.909   7.024  0.00  0.00    +0.027 C 
BRANCH   8  10
ATOM     10  N   LIG    1       28.140 -20.410   6.190  0.00  0.00    -0.300 NA
ATOM     11  C   LIG    1       28.346 -21.565   7.062  0.00  0.00    +0.105 C 
BRANCH  10  13
ATOM     12  C   LIG    1       29.414 -18.417   5.327  0.00  0.00    +0.020 C 
ATOM     13  C   LIG    1       29.025 -19.285   6.530  0.00  0.00    +0.081 C 
ENDBRANCH  10  13
ENDBRANCH   8  10
ENDBRANCH   1   8
BRANCH   1  14
ATOM     14  O   LIG    1       26.463 -18.970   3.799  0.00  0.00    -0.386 OA
ATOM     15  H   LIG    1       27.078 -19.313   3.128  0.00  0.00    +0.210 HD
ENDBRANCH   1  14
TORSDOF 5
ENDMDL
MODEL 2
REMARK VINA RESULT:      -4.9      1.723      5.170
REMARK  Name = *****
REMARK                            x       y       z     vdW  Elec       q    Type
REMARK                         _______ _______ _______ _____ _____    ______ ____
ROOT
ATOM      1  C   LIG    1       25.610 -19.941   4.822  0.00  0.00    +0.161 C 
ENDROOT
BRANCH   1   2
ATOM      2  C   LIG    1       26.917 -20.125   5.596  0.00  0.00    -0.018 A 
ATOM      3  C   LIG    1       27.982 -19.206   5.483  0.00  0.00    +0.006 A 
ATOM      4  C   LIG    1       29.199 -19.437   6.134  0.00  0.00    +0.000 A 
ATOM      5  C   LIG    1       29.388 -20.587   6.885  0.00  0.00    +0.000 A 
ATOM      6  C   LIG    1       28.333 -21.490   7.043  0.00  0.00    +0.000 A 
ATOM      7  C   LIG    1       27.102 -21.241   6.424  0.00  0.00    +0.006 A 
ENDBRANCH   1   2
BRANCH   1   8
ATOM      8  C   LIG    1       24.349 -20.614   5.507  0.00  0.00    +0.086 C 
ATOM      9  C   LIG    1       24.533 -20.692   7.036  0.00  0.00    +0.027 C 
BRANCH   8  10
ATOM     10  N   LIG    1       22.978 -20.081   5.210  0.00  0.00    -0.300 NA
ATOM     11  C   LIG    1       22.004 -21.146   4.979  0.00  0.00    +0.105 C 
BRANCH  10  13
ATOM     12  C   LIG    1       22.028 -17.845   4.549  0.00  0.00    +0.020 C 
ATOM     13  C   LIG    1       22.921 -19.035   4.177  0.00  0.00    +0.081 C 
ENDBRANCH  10  13
ENDBRANCH   8  10
ENDBRANCH   1   8
BRANCH   1  14
ATOM     14  O   LIG    1       25.832 -20.451   3.504  0.00  0.00    -0.386 OA
ATOM     15  H   LIG    1       26.418 -21.222   3.586  0.00  0.00    +0.210 HD
ENDBRANCH   1  14
TORSDOF 5
ENDMDL
MODEL 3
REMARK VINA RESULT:      -4.3      3.281      4.955
REMARK  Name = *****
REMARK                            x       y       z     vdW  Elec       q    Type
REMARK                         _______ _______ _______ _____ _____    ______ ____
ROOT
ATOM      1  C   LIG    1       25.703 -17.632   3.318  0.00  0.00    +0.161 C 
ENDROOT
BRANCH   1   2
ATOM      2  C   LIG    1       25.368 -16.160   3.567  0.00  0.00    -0.018 A 
ATOM      3  C   LIG    1       24.109 -15.761   4.066  0.00  0.00    +0.006 A 
ATOM      4  C   LIG    1       23.793 -14.405   4.207  0.00  0.00    +0.000 A 
ATOM      5  C   LIG    1       24.704 -13.427   3.838  0.00  0.00    +0.000 A 
ATOM      6  C   LIG    1       25.969 -13.802   3.380  0.00  0.00    +0.000 A 
ATOM      7  C   LIG    1       26.302 -15.158   3.275  0.00  0.00    +0.006 A 
ENDBRANCH   1   2
BRANCH   1   8
ATOM      8  C   LIG    1       24.777 -18.651   4.105  0.00  0.00    +0.086 C 
ATOM      9  C   LIG    1       23.350 -18.657   3.522  0.00  0.00    +0.027 C 
BRANCH   8  10
ATOM     10  N   LIG    1       25.234 -20.069   4.288  0.00  0.00    -0.300 NA
ATOM     11  C   LIG    1       24.258 -21.037   3.789  0.00  0.00    +0.105 C 
BRANCH  10  13
ATOM     12  C   LIG    1       24.602 -20.773   6.621  0.00  0.00    +0.020 C 
ATOM     13  C   LIG    1       25.718 -20.404   5.635  0.00  0.00    +0.081 C 
ENDBRANCH  10  13
ENDBRANCH   8  10
ENDBRANCH   1   8
BRANCH   1  14
ATOM     14  O   LIG    1       27.084 -17.806   3.649  0.00  0.00    -0.386 OA
ATOM     15  H   LIG    1       27.606 -17.365   2.957  0.00  0.00    +0.210 HD
ENDBRANCH   1  14
TORSDOF 5
ENDMDL
MODEL 4
REMARK VINA RESULT:      -4.3      3.275      4.896
REMARK  Name = *****
REMARK                            x       y       z     vdW  Elec       q    Type
REMARK                         _______ _______ _______ _____ _____    ______ ____
ROOT
ATOM      1  C   LIG    1       25.717 -17.626   3.313  0.00  0.00    +0.161 C 
ENDROOT
BRANCH   1   2
ATOM      2  C   LIG    1       25.364 -16.154   3.534  0.00  0.00    -0.018 A 
ATOM      3  C   LIG    1       26.297 -15.123   3.288  0.00  0.00    +0.006 A 
ATOM      4  C   LIG    1       25.983 -13.791   3.576  0.00  0.00    +0.000 A 
ATOM      5  C   LIG    1       24.756 -13.460   4.130  0.00  0.00    +0.000 A 
ATOM      6  C   LIG    1       23.804 -14.461   4.344  0.00  0.00    +0.000 A 
ATOM      7  C   LIG    1       24.102 -15.790   4.020  0.00  0.00    +0.006 A 
ENDBRANCH   1   2
BRANCH   1   8
ATOM      8  C   LIG    1       24.782 -18.642   4.093  0.00  0.00    +0.086 C 
ATOM      9  C   LIG    1       23.357 -18.638   3.503  0.00  0.00    +0.027 C 
BRANCH   8  10
ATOM     10  N   LIG    1       25.229 -20.063   4.274  0.00  0.00    -0.300 NA
ATOM     11  C   LIG    1       24.253 -21.024   3.763  0.00  0.00    +0.105 C 
BRANCH  10  13
ATOM     12  C   LIG    1       24.573 -20.772   6.599  0.00  0.00    +0.020 C 
ATOM     13  C   LIG    1       25.700 -20.405   5.625  0.00  0.00    +0.081 C 
ENDBRANCH  10  13
ENDBRANCH   8  10
ENDBRANCH   1   8
BRANCH   1  14
ATOM     14  O   LIG    1       27.091 -17.785   3.677  0.00  0.00    -0.386 OA
ATOM     15  H   LIG    1       27.129 -18.452   4.383  0.00  0.00    +0.210 HD
ENDBRANCH   1  14
TORSDOF 5
ENDMDL
MODEL 5
REMARK VINA RESULT:      -4.2      2.707      4.412
REMARK  Name = *****
REMARK                            x       y       z     vdW  Elec       q    Type
REMARK                         _______ _______ _______ _____ _____    ______ ____
ROOT
ATOM      1  C   LIG    1       24.522 -18.708   3.565  0.00  0.00    +0.161 C 
ENDROOT
BRANCH   1   2
ATOM      2  C   LIG    1       24.912 -17.232   3.662  0.00  0.00    -0.018 A 
ATOM      3  C   LIG    1       23.986 -16.246   4.065  0.00  0.00    +0.006 A 
ATOM      4  C   LIG    1       24.338 -14.892   4.067  0.00  0.00    +0.000 A 
ATOM      5  C   LIG    1       25.598 -14.491   3.650  0.00  0.00    +0.000 A 
ATOM      6  C   LIG    1       26.542 -15.455   3.285  0.00  0.00    +0.000 A 
ATOM      7  C   LIG    1       26.204 -16.813   3.320  0.00  0.00    +0.006 A 
ENDBRANCH   1   2
BRANCH   1   8
ATOM      8  C   LIG    1       23.859 -19.292   4.881  0.00  0.00    +0.086 C 
ATOM      9  C   LIG    1       22.324 -19.330   4.751  0.00  0.00    +0.027 C 
BRANCH   8  10
ATOM     10  N   LIG    1       24.333 -20.610   5.422  0.00  0.00    -0.300 NA
ATOM     11  C   LIG    1       23.244 -21.572   5.580  0.00  0.00    +0.105 C 
BRANCH  10  13
ATOM     12  C   LIG    1       26.689 -20.481   6.302  0.00  0.00    +0.020 C 
ATOM     13  C   LIG    1       25.188 -20.528   6.616  0.00  0.00    +0.081 C 
ENDBRANCH  10  13
ENDBRANCH   8  10
ENDBRANCH   1   8
BRANCH   1  14
ATOM     14  O   LIG    1       25.705 -19.428   3.203  0.00  0.00    -0.386 OA
ATOM     15  H   LIG    1       26.467 -18.897   3.490  0.00  0.00    +0.210 HD
ENDBRANCH   1  14
TORSDOF 5
ENDMDL
MODEL 6
REMARK VINA RESULT:      -4.1      3.185      5.120
REMARK  Name = *****
REMARK                            x       y       z     vdW  Elec       q    Type
REMARK                         _______ _______ _______ _____ _____    ______ ____
ROOT
ATOM      1  C   LIG    1       25.825 -18.062   3.285  0.00  0.00    +0.161 C 
ENDROOT
BRANCH   1   2
ATOM      2  C   LIG    1       25.583 -16.567   3.502  0.00  0.00    -0.018 A 
ATOM      3  C   LIG    1       26.634 -15.628   3.425  0.00  0.00    +0.006 A 
ATOM      4  C   LIG    1       26.407 -14.276   3.709  0.00  0.00    +0.000 A 
ATOM      5  C   LIG    1       25.149 -13.839   4.093  0.00  0.00    +0.000 A 
ATOM      6  C   LIG    1       24.087 -14.746   4.136  0.00  0.00    +0.000 A 
ATOM      7  C   LIG    1       24.303 -16.091   3.815  0.00  0.00    +0.006 A 
ENDBRANCH   1   2
BRANCH   1   8
ATOM      8  C   LIG    1       24.545 -18.967   3.520  0.00  0.00    +0.086 C 
ATOM      9  C   LIG    1       24.542 -20.173   2.559  0.00  0.00    +0.027 C 
BRANCH   8  10
ATOM     10  N   LIG    1       24.230 -19.451   4.905  0.00  0.00    -0.300 NA
ATOM     11  C   LIG    1       24.944 -20.681   5.242  0.00  0.00    +0.105 C 
BRANCH  10  13
ATOM     12  C   LIG    1       21.925 -18.563   4.420  0.00  0.00    +0.020 C 
ATOM     13  C   LIG    1       22.798 -19.525   5.235  0.00  0.00    +0.081 C 
ENDBRANCH  10  13
ENDBRANCH   8  10
ENDBRANCH   1   8
BRANCH   1  14
ATOM     14  O   LIG    1       26.905 -18.438   4.145  0.00  0.00    -0.386 OA
ATOM     15  H   LIG    1       27.393 -17.628   4.369  0.00  0.00    +0.210 HD
ENDBRANCH   1  14
TORSDOF 5
ENDMDL
MODEL 7
REMARK VINA RESULT:      -4.0      4.169      5.446
REMARK  Name = *****
REMARK                            x       y       z     vdW  Elec       q    Type
REMARK                         _______ _______ _______ _____ _____    ______ ____
ROOT
ATOM      1  C   LIG    1       23.273 -15.253   4.114  0.00  0.00    +0.161 C 
ENDROOT
BRANCH   1   2
ATOM      2  C   LIG    1       23.376 -16.779   4.155  0.00  0.00    -0.018 A 
ATOM      3  C   LIG    1       24.513 -17.459   3.668  0.00  0.00    +0.006 A 
ATOM      4  C   LIG    1       24.552 -18.857   3.637  0.00  0.00    +0.000 A 
ATOM      5  C   LIG    1       23.463 -19.602   4.065  0.00  0.00    +0.000 A 
ATOM      6  C   LIG    1       22.344 -18.949   4.588  0.00  0.00    +0.000 A 
ATOM      7  C   LIG    1       22.319 -17.550   4.655  0.00  0.00    +0.006 A 
ENDBRANCH   1   2
BRANCH   1   8
ATOM      8  C   LIG    1       24.558 -14.532   3.529  0.00  0.00    +0.086 C 
ATOM      9  C   LIG    1       24.198 -13.145   2.961  0.00  0.00    +0.027 C 
BRANCH   8  10
ATOM     10  N   LIG    1       25.783 -14.403   4.387  0.00  0.00    -0.300 NA
ATOM     11  C   LIG    1       25.878 -13.093   5.029  0.00  0.00    +0.105 C 
BRANCH  10  13
ATOM     12  C   LIG    1       28.075 -13.674   3.640  0.00  0.00    +0.020 C 
ATOM     13  C   LIG    1       27.044 -14.805   3.745  0.00  0.00    +0.081 C 
ENDBRANCH  10  13
ENDBRANCH   8  10
ENDBRANCH   1   8
BRANCH   1  14
ATOM     14  O   LIG    1       22.982 -14.819   5.445  0.00  0.00    -0.386 OA
ATOM     15  H   LIG    1       23.639 -14.142   5.680  0.00  0.00    +0.210 HD
ENDBRANCH   1  14
TORSDOF 5
ENDMDL
MODEL 8
REMARK VINA RESULT:      -4.0      4.132      5.435
REMARK  Name = *****
REMARK                            x       y       z     vdW  Elec       q    Type
REMARK                         _______ _______ _______ _____ _____    ______ ____
ROOT
ATOM      1  C   LIG    1       23.253 -15.300   4.139  0.00  0.00    +0.161 C 
ENDROOT
BRANCH   1   2
ATOM      2  C   LIG    1       23.312 -16.829   4.118  0.00  0.00    -0.018 A 
ATOM      3  C   LIG    1       22.250 -17.619   4.610  0.00  0.00    +0.006 A 
ATOM      4  C   LIG    1       22.359 -19.013   4.658  0.00  0.00    +0.000 A 
ATOM      5  C   LIG    1       23.522 -19.643   4.245  0.00  0.00    +0.000 A 
ATOM      6  C   LIG    1       24.569 -18.883   3.717  0.00  0.00    +0.000 A 
ATOM      7  C   LIG    1       24.447 -17.491   3.632  0.00  0.00    +0.006 A 
ENDBRANCH   1   2
BRANCH   1   8
ATOM      8  C   LIG    1       24.535 -14.593   3.532  0.00  0.00    +0.086 C 
ATOM      9  C   LIG    1       24.175 -13.212   2.949  0.00  0.00    +0.027 C 
BRANCH   8  10
ATOM     10  N   LIG    1       25.769 -14.457   4.375  0.00  0.00    -0.300 NA
ATOM     11  C   LIG    1       25.845 -13.161   5.046  0.00  0.00    +0.105 C 
BRANCH  10  13
ATOM     12  C   LIG    1       28.047 -13.673   3.643  0.00  0.00    +0.020 C 
ATOM     13  C   LIG    1       27.029 -14.819   3.708  0.00  0.00    +0.081 C 
ENDBRANCH  10  13
ENDBRANCH   8  10
ENDBRANCH   1   8
BRANCH   1  14
ATOM     14  O   LIG    1       23.026 -14.911   5.497  0.00  0.00    -0.386 OA
ATOM     15  H   LIG    1       23.885 -14.929   5.951  0.00  0.00    +0.210 HD
ENDBRANCH   1  14
TORSDOF 5
ENDMDL
MODEL 9
REMARK VINA RESULT:      -3.7      2.341      4.688
REMARK  Name = *****
REMARK                            x       y       z     vdW  Elec       q    Type
REMARK                         _______ _______ _______ _____ _____    ______ ____
ROOT
ATOM      1  C   LIG    1       24.576 -20.056   3.570  0.00  0.00    +0.161 C 
ENDROOT
BRANCH   1   2
ATOM      2  C   LIG    1       25.494 -20.288   4.771  0.00  0.00    -0.018 A 
ATOM      3  C   LIG    1       25.039 -20.939   5.938  0.00  0.00    +0.006 A 
ATOM      4  C   LIG    1       25.870 -21.066   7.057  0.00  0.00    +0.000 A 
ATOM      5  C   LIG    1       27.150 -20.534   7.047  0.00  0.00    +0.000 A 
ATOM      6  C   LIG    1       27.634 -19.921   5.889  0.00  0.00    +0.000 A 
ATOM      7  C   LIG    1       26.817 -19.827   4.755  0.00  0.00    +0.006 A 
ENDBRANCH   1   2
BRANCH   1   8
ATOM      8  C   LIG    1       23.577 -18.838   3.743  0.00  0.00    +0.086 C 
ATOM      9  C   LIG    1       22.464 -19.180   4.753  0.00  0.00    +0.027 C 
BRANCH   8  10
ATOM     10  N   LIG    1       24.123 -17.478   4.066  0.00  0.00    -0.300 NA
ATOM     11  C   LIG    1       23.078 -16.459   4.136  0.00  0.00    +0.105 C 
BRANCH  10  13
ATOM     12  C   LIG    1       25.709 -15.604   3.504  0.00  0.00    +0.020 C 
ATOM     13  C   LIG    1       25.269 -17.051   3.248  0.00  0.00    +0.081 C 
ENDBRANCH  10  13
ENDBRANCH   8  10
ENDBRANCH   1   8
BRANCH   1  14
ATOM     14  O   LIG    1       23.879 -21.284   3.335  0.00  0.00    -0.386 OA
ATOM     15  H   LIG    1       23.311 -21.150   2.557  0.00  0.00    +0.210 HD
ENDBRANCH   1  14
TORSDOF 5
ENDMDL
