MODEL 1
REMARK VINA RESULT:     -11.1      0.000      0.000
REMARK  Name = *****
REMARK                            x       y       z     vdW  Elec       q    Type
REMARK                         _______ _______ _______ _____ _____    ______ ____
ROOT
ATOM      1  C   LIG    1       23.826 -24.280   6.713  0.00  0.00    +0.124 A 
ATOM      2  C   LIG    1       25.012 -23.640   7.123  0.00  0.00    -0.001 A 
ATOM      3  C   LIG    1       26.230 -24.310   6.891  0.00  0.00    +0.008 A 
ATOM      4  C   LIG    1       26.277 -25.564   6.280  0.00  0.00    +0.013 A 
ATOM      5  C   LIG    1       25.093 -26.203   5.903  0.00  0.00    +0.041 A 
ATOM      6  C   LIG    1       23.881 -25.576   6.173  0.00  0.00    +0.059 A 
ENDROOT
BRANCH   1   8
ATOM      7  C   LIG    1       22.229 -22.762   5.832  0.00  0.00    +0.277 C 
ATOM      8  O   LIG    1       22.626 -23.634   6.900  0.00  0.00    -0.495 OA
ENDBRANCH   1   8
BRANCH   5   9
ATOM      9  C   LIG    1       25.122 -27.551   5.286  0.00  0.00    +0.239 C 
ATOM     10  N   LIG    1       25.131 -28.742   5.764  0.00  0.00    -0.091 NA
BRANCH  10  11
ATOM     11  S   LIG    1       25.062 -29.177   7.302  0.00  0.00    +0.102 S 
ATOM     12  O   LIG    1       23.704 -29.443   7.729  0.00  0.00    -0.146 OA
ATOM     13  O   LIG    1       25.891 -28.261   8.082  0.00  0.00    -0.146 OA
BRANCH  11  14
ATOM     14  C   LIG    1       25.910 -30.767   7.293  0.00  0.00    +0.116 A 
ATOM     15  C   LIG    1       26.355 -31.379   8.486  0.00  0.00    -0.024 A 
ATOM     16  C   LIG    1       26.218 -30.760   9.850  0.00  0.00    +0.046 C 
ATOM     17  C   LIG    1       26.974 -32.639   8.391  0.00  0.00    +0.005 A 
ATOM     18  C   LIG    1       27.138 -33.272   7.157  0.00  0.00    +0.000 A 
ATOM     19  C   LIG    1       26.693 -32.658   5.991  0.00  0.00    +0.002 A 
ATOM     20  C   LIG    1       26.080 -31.409   6.056  0.00  0.00    +0.029 A 
ENDBRANCH  11  14
ENDBRANCH  10  11
BRANCH   9  21
ATOM     21  O   LIG    1       25.177 -27.480   3.935  0.00  0.00    -0.491 OA
ATOM     22  H   LIG    1       24.585 -26.824   3.538  0.00  0.00    +0.294 HD
ENDBRANCH   9  21
ENDBRANCH   5   9
BRANCH   2  23
ATOM     23  C   LIG    1       25.033 -22.260   7.759  0.00  0.00    +0.076 C 
BRANCH  23  24
ATOM     24  C   LIG    1       25.566 -21.304   6.730  0.00  0.00    -0.018 C 
ATOM     25  C   LIG    1       26.923 -20.852   6.552  0.00  0.00    +0.005 C 
ATOM     26  C   LIG    1       26.913 -19.955   5.482  0.00  0.00    +0.049 C 
ATOM     27  C   LIG    1       28.054 -19.283   5.061  0.00  0.00    +0.028 C 
ATOM     28  C   LIG    1       29.234 -19.522   5.757  0.00  0.00    +0.025 C 
ATOM     29  C   LIG    1       29.315 -20.399   6.837  0.00  0.00    +0.037 C 
ATOM     30  N   LIG    1       25.634 -19.912   4.986  0.00  0.00    -0.349 NA
ATOM     31  C   LIG    1       25.231 -19.160   3.818  0.00  0.00    +0.149 C 
ATOM     32  C   LIG    1       28.157 -21.093   7.218  0.00  0.00    +0.033 C 
ATOM     33  C   LIG    1       24.811 -20.694   5.741  0.00  0.00    +0.090 C 
BRANCH  29  34
ATOM     34  N   LIG    1       30.505 -20.609   7.587  0.00  0.00    -0.251 N 
ATOM     35  H   LIG    1       31.157 -21.306   7.257  0.00  0.00    +0.158 HD
ATOM     36  C   LIG    1       30.849 -20.079   8.803  0.00  0.00    +0.405 C 
ATOM     37  O   LIG    1       31.842 -20.470   9.430  0.00  0.00    -0.226 OA
BRANCH  36  38
ATOM     38  O   LIG    1       29.995 -19.151   9.258  0.00  0.00    -0.447 OA
BRANCH  38  39
ATOM     39  C   LIG    1       30.401 -17.803   9.400  0.00  0.00    +0.178 C 
ATOM     40  C   LIG    1       30.605 -17.516  10.884  0.00  0.00    +0.045 C 
ATOM     41  C   LIG    1       31.552 -16.328  10.899  0.00  0.00    +0.004 C 
ATOM     42  C   LIG    1       32.371 -16.431   9.612  0.00  0.00    +0.004 C 
ATOM     43  C   LIG    1       31.804 -17.614   8.838  0.00  0.00    +0.045 C 
ENDBRANCH  38  39
ENDBRANCH  36  38
ENDBRANCH  29  34
ENDBRANCH  23  24
ENDBRANCH   2  23
TORSDOF 10
ENDMDL
MODEL 2
REMARK VINA RESULT:      -9.7      4.836     11.905
REMARK  Name = *****
REMARK                            x       y       z     vdW  Elec       q    Type
REMARK                         _______ _______ _______ _____ _____    ______ ____
ROOT
ATOM      1  C   LIG    1       24.508 -29.252   7.099  0.00  0.00    +0.124 A 
ATOM      2  C   LIG    1       25.395 -29.230   8.194  0.00  0.00    -0.001 A 
ATOM      3  C   LIG    1       26.274 -28.134   8.301  0.00  0.00    +0.008 A 
ATOM      4  C   LIG    1       26.279 -27.100   7.364  0.00  0.00    +0.013 A 
ATOM      5  C   LIG    1       25.416 -27.145   6.266  0.00  0.00    +0.041 A 
ATOM      6  C   LIG    1       24.580 -28.248   6.121  0.00  0.00    +0.059 A 
ENDROOT
BRANCH   1   8
ATOM      7  C   LIG    1       24.011 -31.338   6.081  0.00  0.00    +0.277 C 
ATOM      8  O   LIG    1       23.620 -30.296   6.989  0.00  0.00    -0.495 OA
ENDBRANCH   1   8
BRANCH   5   9
ATOM      9  C   LIG    1       25.434 -26.073   5.242  0.00  0.00    +0.239 C 
ATOM     10  N   LIG    1       25.066 -24.844   5.242  0.00  0.00    -0.091 NA
BRANCH  10  11
ATOM     11  S   LIG    1       24.467 -24.004   6.465  0.00  0.00    +0.102 S 
ATOM     12  O   LIG    1       25.466 -23.734   7.478  0.00  0.00    -0.146 OA
ATOM     13  O   LIG    1       23.192 -24.600   6.858  0.00  0.00    -0.146 OA
BRANCH  11  14
ATOM     14  C   LIG    1       24.085 -22.420   5.697  0.00  0.00    +0.116 A 
ATOM     15  C   LIG    1       23.549 -21.344   6.439  0.00  0.00    -0.024 A 
ATOM     16  C   LIG    1       23.201 -21.421   7.899  0.00  0.00    +0.046 C 
ATOM     17  C   LIG    1       23.317 -20.129   5.767  0.00  0.00    +0.005 A 
ATOM     18  C   LIG    1       23.613 -19.986   4.410  0.00  0.00    +0.000 A 
ATOM     19  C   LIG    1       24.143 -21.053   3.693  0.00  0.00    +0.002 A 
ATOM     20  C   LIG    1       24.379 -22.268   4.332  0.00  0.00    +0.029 A 
ENDBRANCH  11  14
ENDBRANCH  10  11
BRANCH   9  21
ATOM     21  O   LIG    1       25.920 -26.521   4.060  0.00  0.00    -0.491 OA
ATOM     22  H   LIG    1       25.273 -26.973   3.499  0.00  0.00    +0.294 HD
ENDBRANCH   9  21
ENDBRANCH   5   9
BRANCH   2  23
ATOM     23  C   LIG    1       25.415 -30.304   9.269  0.00  0.00    +0.076 C 
BRANCH  23  24
ATOM     24  C   LIG    1       24.805 -29.707  10.505  0.00  0.00    -0.018 C 
ATOM     25  C   LIG    1       23.431 -29.763  10.937  0.00  0.00    +0.005 C 
ATOM     26  C   LIG    1       23.352 -29.041  12.129  0.00  0.00    +0.049 C 
ATOM     27  C   LIG    1       22.154 -28.846  12.806  0.00  0.00    +0.028 C 
ATOM     28  C   LIG    1       21.004 -29.391  12.246  0.00  0.00    +0.025 C 
ATOM     29  C   LIG    1       21.008 -30.117  11.057  0.00  0.00    +0.037 C 
ATOM     30  N   LIG    1       24.621 -28.624  12.449  0.00  0.00    -0.349 NA
ATOM     31  C   LIG    1       24.971 -27.915  13.660  0.00  0.00    +0.149 C 
ATOM     32  C   LIG    1       22.236 -30.332  10.413  0.00  0.00    +0.033 C 
ATOM     33  C   LIG    1       25.496 -28.992  11.470  0.00  0.00    +0.090 C 
BRANCH  29  34
ATOM     34  N   LIG    1       19.829 -30.632  10.451  0.00  0.00    -0.251 N 
ATOM     35  H   LIG    1       19.315 -30.029   9.824  0.00  0.00    +0.158 HD
ATOM     36  C   LIG    1       19.195 -31.820  10.699  0.00  0.00    +0.405 C 
ATOM     37  O   LIG    1       18.082 -32.080  10.223  0.00  0.00    -0.226 OA
BRANCH  36  38
ATOM     38  O   LIG    1       19.861 -32.635  11.530  0.00  0.00    -0.447 OA
BRANCH  38  39
ATOM     39  C   LIG    1       19.378 -32.885  12.837  0.00  0.00    +0.178 C 
ATOM     40  C   LIG    1       20.541 -32.747  13.814  0.00  0.00    +0.045 C 
ATOM     41  C   LIG    1       19.868 -32.452  15.143  0.00  0.00    +0.004 C 
ATOM     42  C   LIG    1       18.550 -31.758  14.798  0.00  0.00    +0.004 C 
ATOM     43  C   LIG    1       18.448 -31.763  13.279  0.00  0.00    +0.045 C 
ENDBRANCH  38  39
ENDBRANCH  36  38
ENDBRANCH  29  34
ENDBRANCH  23  24
ENDBRANCH   2  23
TORSDOF 10
ENDMDL
MODEL 3
REMARK VINA RESULT:      -9.7      4.787      9.311
REMARK  Name = *****
REMARK                            x       y       z     vdW  Elec       q    Type
REMARK                         _______ _______ _______ _____ _____    ______ ____
ROOT
ATOM      1  C   LIG    1       24.505 -29.368   6.861  0.00  0.00    +0.124 A 
ATOM      2  C   LIG    1       25.332 -29.366   8.002  0.00  0.00    -0.001 A 
ATOM      3  C   LIG    1       26.167 -28.248   8.202  0.00  0.00    +0.008 A 
ATOM      4  C   LIG    1       26.188 -27.175   7.310  0.00  0.00    +0.013 A 
ATOM      5  C   LIG    1       25.386 -27.199   6.167  0.00  0.00    +0.041 A 
ATOM      6  C   LIG    1       24.595 -28.320   5.930  0.00  0.00    +0.059 A 
ENDROOT
BRANCH   1   8
ATOM      7  C   LIG    1       24.206 -31.508   5.880  0.00  0.00    +0.277 C 
ATOM      8  O   LIG    1       23.659 -30.433   6.659  0.00  0.00    -0.495 OA
ENDBRANCH   1   8
BRANCH   5   9
ATOM      9  C   LIG    1       25.422 -26.085   5.190  0.00  0.00    +0.239 C 
ATOM     10  N   LIG    1       25.057 -24.855   5.238  0.00  0.00    -0.091 NA
BRANCH  10  11
ATOM     11  S   LIG    1       24.442 -24.067   6.488  0.00  0.00    +0.102 S 
ATOM     12  O   LIG    1       25.427 -23.843   7.525  0.00  0.00    -0.146 OA
ATOM     13  O   LIG    1       23.161 -24.677   6.836  0.00  0.00    -0.146 OA
BRANCH  11  14
ATOM     14  C   LIG    1       24.075 -22.450   5.783  0.00  0.00    +0.116 A 
ATOM     15  C   LIG    1       23.506 -21.414   6.556  0.00  0.00    -0.024 A 
ATOM     16  C   LIG    1       23.109 -21.563   7.999  0.00  0.00    +0.046 C 
ATOM     17  C   LIG    1       23.287 -20.171   5.935  0.00  0.00    +0.005 A 
ATOM     18  C   LIG    1       23.627 -19.961   4.597  0.00  0.00    +0.000 A 
ATOM     19  C   LIG    1       24.188 -20.990   3.848  0.00  0.00    +0.002 A 
ATOM     20  C   LIG    1       24.412 -22.233   4.437  0.00  0.00    +0.029 A 
ENDBRANCH  11  14
ENDBRANCH  10  11
BRANCH   9  21
ATOM     21  O   LIG    1       25.925 -26.482   3.998  0.00  0.00    -0.491 OA
ATOM     22  H   LIG    1       25.641 -27.362   3.710  0.00  0.00    +0.294 HD
ENDBRANCH   9  21
ENDBRANCH   5   9
BRANCH   2  23
ATOM     23  C   LIG    1       25.330 -30.485   9.031  0.00  0.00    +0.076 C 
BRANCH  23  24
ATOM     24  C   LIG    1       24.418 -30.061  10.146  0.00  0.00    -0.018 C 
ATOM     25  C   LIG    1       24.777 -29.579  11.457  0.00  0.00    +0.005 C 
ATOM     26  C   LIG    1       23.584 -29.339  12.141  0.00  0.00    +0.049 C 
ATOM     27  C   LIG    1       23.554 -28.907  13.461  0.00  0.00    +0.028 C 
ATOM     28  C   LIG    1       24.773 -28.730  14.106  0.00  0.00    +0.025 C 
ATOM     29  C   LIG    1       26.001 -28.957  13.488  0.00  0.00    +0.037 C 
ATOM     30  N   LIG    1       22.549 -29.590  11.274  0.00  0.00    -0.349 NA
ATOM     31  C   LIG    1       21.152 -29.377  11.580  0.00  0.00    +0.149 C 
ATOM     32  C   LIG    1       26.004 -29.355  12.143  0.00  0.00    +0.033 C 
ATOM     33  C   LIG    1       23.034 -30.051  10.086  0.00  0.00    +0.090 C 
BRANCH  29  34
ATOM     34  N   LIG    1       27.249 -28.828  14.157  0.00  0.00    -0.251 N 
ATOM     35  H   LIG    1       27.650 -29.654  14.577  0.00  0.00    +0.158 HD
ATOM     36  C   LIG    1       27.950 -27.685  14.437  0.00  0.00    +0.405 C 
ATOM     37  O   LIG    1       28.946 -27.691  15.172  0.00  0.00    -0.226 OA
BRANCH  36  38
ATOM     38  O   LIG    1       27.433 -26.576  13.888  0.00  0.00    -0.447 OA
BRANCH  38  39
ATOM     39  C   LIG    1       26.624 -25.702  14.652  0.00  0.00    +0.178 C 
ATOM     40  C   LIG    1       27.470 -24.502  15.065  0.00  0.00    +0.045 C 
ATOM     41  C   LIG    1       26.448 -23.412  15.338  0.00  0.00    +0.004 C 
ATOM     42  C   LIG    1       25.245 -23.736  14.451  0.00  0.00    +0.004 C 
ATOM     43  C   LIG    1       25.561 -25.060  13.769  0.00  0.00    +0.045 C 
ENDBRANCH  38  39
ENDBRANCH  36  38
ENDBRANCH  29  34
ENDBRANCH  23  24
ENDBRANCH   2  23
TORSDOF 10
ENDMDL
MODEL 4
REMARK VINA RESULT:      -9.6      4.831     10.646
REMARK  Name = *****
REMARK                            x       y       z     vdW  Elec       q    Type
REMARK                         _______ _______ _______ _____ _____    ______ ____
ROOT
ATOM      1  C   LIG    1       24.477 -29.196   7.056  0.00  0.00    +0.124 A 
ATOM      2  C   LIG    1       25.336 -29.179   8.173  0.00  0.00    -0.001 A 
ATOM      3  C   LIG    1       26.213 -28.084   8.305  0.00  0.00    +0.008 A 
ATOM      4  C   LIG    1       26.243 -27.046   7.372  0.00  0.00    +0.013 A 
ATOM      5  C   LIG    1       25.408 -27.086   6.253  0.00  0.00    +0.041 A 
ATOM      6  C   LIG    1       24.574 -28.188   6.083  0.00  0.00    +0.059 A 
ENDROOT
BRANCH   1   8
ATOM      7  C   LIG    1       24.013 -31.287   6.034  0.00  0.00    +0.277 C 
ATOM      8  O   LIG    1       23.591 -30.238   6.919  0.00  0.00    -0.495 OA
ENDBRANCH   1   8
BRANCH   5   9
ATOM      9  C   LIG    1       25.452 -26.012   5.233  0.00  0.00    +0.239 C 
ATOM     10  N   LIG    1       25.092 -24.780   5.231  0.00  0.00    -0.091 NA
BRANCH  10  11
ATOM     11  S   LIG    1       24.475 -23.940   6.445  0.00  0.00    +0.102 S 
ATOM     12  O   LIG    1       25.461 -23.663   7.469  0.00  0.00    -0.146 OA
ATOM     13  O   LIG    1       23.200 -24.543   6.825  0.00  0.00    -0.146 OA
BRANCH  11  14
ATOM     14  C   LIG    1       24.094 -22.360   5.669  0.00  0.00    +0.116 A 
ATOM     15  C   LIG    1       23.552 -21.282   6.405  0.00  0.00    -0.024 A 
ATOM     16  C   LIG    1       23.198 -21.354   7.864  0.00  0.00    +0.046 C 
ATOM     17  C   LIG    1       23.321 -20.071   5.726  0.00  0.00    +0.005 A 
ATOM     18  C   LIG    1       23.621 -19.932   4.370  0.00  0.00    +0.000 A 
ATOM     19  C   LIG    1       24.156 -21.002   3.659  0.00  0.00    +0.002 A 
ATOM     20  C   LIG    1       24.392 -22.214   4.305  0.00  0.00    +0.029 A 
ENDBRANCH  11  14
ENDBRANCH  10  11
BRANCH   9  21
ATOM     21  O   LIG    1       25.959 -26.458   4.060  0.00  0.00    -0.491 OA
ATOM     22  H   LIG    1       25.457 -26.195   3.274  0.00  0.00    +0.294 HD
ENDBRANCH   9  21
ENDBRANCH   5   9
BRANCH   2  23
ATOM     23  C   LIG    1       25.327 -30.257   9.243  0.00  0.00    +0.076 C 
BRANCH  23  24
ATOM     24  C   LIG    1       26.202 -29.774  10.365  0.00  0.00    -0.018 C 
ATOM     25  C   LIG    1       25.828 -28.976  11.506  0.00  0.00    +0.005 C 
ATOM     26  C   LIG    1       26.990 -28.767  12.252  0.00  0.00    +0.049 C 
ATOM     27  C   LIG    1       27.007 -27.991  13.405  0.00  0.00    +0.028 C 
ATOM     28  C   LIG    1       25.812 -27.402  13.800  0.00  0.00    +0.025 C 
ATOM     29  C   LIG    1       24.617 -27.562  13.102  0.00  0.00    +0.037 C 
ATOM     30  N   LIG    1       28.007 -29.458  11.641  0.00  0.00    -0.349 NA
ATOM     31  C   LIG    1       29.354 -29.561  12.156  0.00  0.00    +0.149 C 
ATOM     32  C   LIG    1       24.618 -28.381  11.962  0.00  0.00    +0.033 C 
ATOM     33  C   LIG    1       27.555 -30.042  10.495  0.00  0.00    +0.090 C 
BRANCH  29  34
ATOM     34  N   LIG    1       23.403 -26.920  13.470  0.00  0.00    -0.251 N 
ATOM     35  H   LIG    1       23.445 -25.952  13.756  0.00  0.00    +0.158 HD
ATOM     36  C   LIG    1       22.160 -27.476  13.624  0.00  0.00    +0.405 C 
ATOM     37  O   LIG    1       21.215 -26.841  14.111  0.00  0.00    -0.226 OA
BRANCH  36  38
ATOM     38  O   LIG    1       22.084 -28.761  13.250  0.00  0.00    -0.447 OA
BRANCH  38  39
ATOM     39  C   LIG    1       21.054 -29.201  12.385  0.00  0.00    +0.178 C 
ATOM     40  C   LIG    1       21.671 -30.108  11.325  0.00  0.00    +0.045 C 
ATOM     41  C   LIG    1       20.506 -30.956  10.846  0.00  0.00    +0.004 C 
ATOM     42  C   LIG    1       19.537 -31.039  12.027  0.00  0.00    +0.004 C 
ATOM     43  C   LIG    1       20.119 -30.153  13.120  0.00  0.00    +0.045 C 
ENDBRANCH  38  39
ENDBRANCH  36  38
ENDBRANCH  29  34
ENDBRANCH  23  24
ENDBRANCH   2  23
TORSDOF 10
ENDMDL
MODEL 5
REMARK VINA RESULT:      -9.5      4.830      9.818
REMARK  Name = *****
REMARK                            x       y       z     vdW  Elec       q    Type
REMARK                         _______ _______ _______ _____ _____    ______ ____
ROOT
ATOM      1  C   LIG    1       24.581 -29.363   6.817  0.00  0.00    +0.124 A 
ATOM      2  C   LIG    1       25.352 -29.315   7.996  0.00  0.00    -0.001 A 
ATOM      3  C   LIG    1       26.128 -28.161   8.222  0.00  0.00    +0.008 A 
ATOM      4  C   LIG    1       26.146 -27.096   7.321  0.00  0.00    +0.013 A 
ATOM      5  C   LIG    1       25.401 -27.165   6.141  0.00  0.00    +0.041 A 
ATOM      6  C   LIG    1       24.671 -28.321   5.880  0.00  0.00    +0.059 A 
ENDROOT
BRANCH   1   8
ATOM      7  C   LIG    1       24.414 -31.514   5.830  0.00  0.00    +0.277 C 
ATOM      8  O   LIG    1       23.792 -30.465   6.587  0.00  0.00    -0.495 OA
ENDBRANCH   1   8
BRANCH   5   9
ATOM      9  C   LIG    1       25.436 -26.058   5.155  0.00  0.00    +0.239 C 
ATOM     10  N   LIG    1       25.082 -24.825   5.196  0.00  0.00    -0.091 NA
BRANCH  10  11
ATOM     11  S   LIG    1       24.485 -24.022   6.445  0.00  0.00    +0.102 S 
ATOM     12  O   LIG    1       25.489 -23.772   7.458  0.00  0.00    -0.146 OA
ATOM     13  O   LIG    1       23.218 -24.638   6.830  0.00  0.00    -0.146 OA
BRANCH  11  14
ATOM     14  C   LIG    1       24.087 -22.421   5.721  0.00  0.00    +0.116 A 
ATOM     15  C   LIG    1       23.526 -21.377   6.489  0.00  0.00    -0.024 A 
ATOM     16  C   LIG    1       23.162 -21.505   7.942  0.00  0.00    +0.046 C 
ATOM     17  C   LIG    1       23.282 -20.147   5.852  0.00  0.00    +0.005 A 
ATOM     18  C   LIG    1       23.590 -19.957   4.503  0.00  0.00    +0.000 A 
ATOM     19  C   LIG    1       24.145 -20.993   3.760  0.00  0.00    +0.002 A 
ATOM     20  C   LIG    1       24.394 -22.224   4.365  0.00  0.00    +0.029 A 
ENDBRANCH  11  14
ENDBRANCH  10  11
BRANCH   9  21
ATOM     21  O   LIG    1       25.925 -26.469   3.961  0.00  0.00    -0.491 OA
ATOM     22  H   LIG    1       25.414 -26.179   3.191  0.00  0.00    +0.294 HD
ENDBRANCH   9  21
ENDBRANCH   5   9
BRANCH   2  23
ATOM     23  C   LIG    1       25.349 -30.423   9.035  0.00  0.00    +0.076 C 
BRANCH  23  24
ATOM     24  C   LIG    1       24.201 -30.155   9.967  0.00  0.00    -0.018 C 
ATOM     25  C   LIG    1       24.180 -29.311  11.135  0.00  0.00    +0.005 C 
ATOM     26  C   LIG    1       22.898 -29.405  11.679  0.00  0.00    +0.049 C 
ATOM     27  C   LIG    1       22.534 -28.753  12.851  0.00  0.00    +0.028 C 
ATOM     28  C   LIG    1       23.507 -27.995  13.493  0.00  0.00    +0.025 C 
ATOM     29  C   LIG    1       24.808 -27.862  13.011  0.00  0.00    +0.037 C 
ATOM     30  N   LIG    1       22.151 -30.206  10.851  0.00  0.00    -0.349 NA
ATOM     31  C   LIG    1       20.742 -30.481  11.026  0.00  0.00    +0.149 C 
ATOM     32  C   LIG    1       25.139 -28.501  11.805  0.00  0.00    +0.033 C 
ATOM     33  C   LIG    1       22.927 -30.685   9.837  0.00  0.00    +0.090 C 
BRANCH  29  34
ATOM     34  N   LIG    1       25.823 -27.133  13.688  0.00  0.00    -0.251 N 
ATOM     35  H   LIG    1       25.843 -26.129  13.574  0.00  0.00    +0.158 HD
ATOM     36  C   LIG    1       26.893 -27.618  14.392  0.00  0.00    +0.405 C 
ATOM     37  O   LIG    1       27.801 -26.879  14.796  0.00  0.00    -0.226 OA
BRANCH  36  38
ATOM     38  O   LIG    1       26.886 -28.949  14.554  0.00  0.00    -0.447 OA
BRANCH  38  39
ATOM     39  C   LIG    1       28.000 -29.730  14.165  0.00  0.00    +0.178 C 
ATOM     40  C   LIG    1       28.461 -29.260  12.790  0.00  0.00    +0.045 C 
ATOM     41  C   LIG    1       29.913 -29.699  12.721  0.00  0.00    +0.004 C 
ATOM     42  C   LIG    1       30.410 -29.725  14.167  0.00  0.00    +0.004 C 
ATOM     43  C   LIG    1       29.204 -29.402  15.039  0.00  0.00    +0.045 C 
ENDBRANCH  38  39
ENDBRANCH  36  38
ENDBRANCH  29  34
ENDBRANCH  23  24
ENDBRANCH   2  23
TORSDOF 10
ENDMDL
MODEL 6
REMARK VINA RESULT:      -9.3      4.849     10.918
REMARK  Name = *****
REMARK                            x       y       z     vdW  Elec       q    Type
REMARK                         _______ _______ _______ _____ _____    ______ ____
ROOT
ATOM      1  C   LIG    1       24.507 -29.068   7.030  0.00  0.00    +0.124 A 
ATOM      2  C   LIG    1       25.404 -29.024   8.115  0.00  0.00    -0.001 A 
ATOM      3  C   LIG    1       26.270 -27.915   8.203  0.00  0.00    +0.008 A 
ATOM      4  C   LIG    1       26.251 -26.889   7.256  0.00  0.00    +0.013 A 
ATOM      5  C   LIG    1       25.377 -26.956   6.168  0.00  0.00    +0.041 A 
ATOM      6  C   LIG    1       24.555 -28.072   6.041  0.00  0.00    +0.059 A 
ENDROOT
BRANCH   1   8
ATOM      7  C   LIG    1       24.048 -31.189   6.070  0.00  0.00    +0.277 C 
ATOM      8  O   LIG    1       23.632 -30.124   6.938  0.00  0.00    -0.495 OA
ENDBRANCH   1   8
BRANCH   5   9
ATOM      9  C   LIG    1       25.370 -25.894   5.134  0.00  0.00    +0.239 C 
ATOM     10  N   LIG    1       25.009 -24.663   5.134  0.00  0.00    -0.091 NA
BRANCH  10  11
ATOM     11  S   LIG    1       24.452 -23.808   6.366  0.00  0.00    +0.102 S 
ATOM     12  O   LIG    1       25.482 -23.535   7.346  0.00  0.00    -0.146 OA
ATOM     13  O   LIG    1       23.187 -24.394   6.803  0.00  0.00    -0.146 OA
BRANCH  11  14
ATOM     14  C   LIG    1       24.055 -22.229   5.595  0.00  0.00    +0.116 A 
ATOM     15  C   LIG    1       23.495 -21.162   6.332  0.00  0.00    -0.024 A 
ATOM     16  C   LIG    1       23.131 -21.246   7.789  0.00  0.00    +0.046 C 
ATOM     17  C   LIG    1       23.252 -19.951   5.658  0.00  0.00    +0.005 A 
ATOM     18  C   LIG    1       23.560 -19.802   4.305  0.00  0.00    +0.000 A 
ATOM     19  C   LIG    1       24.114 -20.861   3.593  0.00  0.00    +0.002 A 
ATOM     20  C   LIG    1       24.361 -22.072   4.234  0.00  0.00    +0.029 A 
ENDBRANCH  11  14
ENDBRANCH  10  11
BRANCH   9  21
ATOM     21  O   LIG    1       25.818 -26.355   3.942  0.00  0.00    -0.491 OA
ATOM     22  H   LIG    1       25.187 -26.905   3.456  0.00  0.00    +0.294 HD
ENDBRANCH   9  21
ENDBRANCH   5   9
BRANCH   2  23
ATOM     23  C   LIG    1       25.450 -30.088   9.199  0.00  0.00    +0.076 C 
BRANCH  23  24
ATOM     24  C   LIG    1       25.570 -29.375  10.516  0.00  0.00    -0.018 C 
ATOM     25  C   LIG    1       24.775 -29.558  11.705  0.00  0.00    +0.005 C 
ATOM     26  C   LIG    1       25.252 -28.652  12.654  0.00  0.00    +0.049 C 
ATOM     27  C   LIG    1       24.680 -28.520  13.913  0.00  0.00    +0.028 C 
ATOM     28  C   LIG    1       23.585 -29.323  14.208  0.00  0.00    +0.025 C 
ATOM     29  C   LIG    1       23.052 -30.244  13.308  0.00  0.00    +0.037 C 
ATOM     30  N   LIG    1       26.326 -27.998  12.103  0.00  0.00    -0.349 NA
ATOM     31  C   LIG    1       27.149 -27.037  12.803  0.00  0.00    +0.149 C 
ATOM     32  C   LIG    1       23.672 -30.385  12.056  0.00  0.00    +0.033 C 
ATOM     33  C   LIG    1       26.510 -28.401  10.813  0.00  0.00    +0.090 C 
BRANCH  29  34
ATOM     34  N   LIG    1       21.901 -31.032  13.583  0.00  0.00    -0.251 N 
ATOM     35  H   LIG    1       21.915 -32.005  13.312  0.00  0.00    +0.158 HD
ATOM     36  C   LIG    1       20.683 -30.621  14.058  0.00  0.00    +0.405 C 
ATOM     37  O   LIG    1       19.706 -31.381  14.098  0.00  0.00    -0.226 OA
BRANCH  36  38
ATOM     38  O   LIG    1       20.643 -29.331  14.422  0.00  0.00    -0.447 OA
BRANCH  38  39
ATOM     39  C   LIG    1       19.834 -28.408  13.718  0.00  0.00    +0.178 C 
ATOM     40  C   LIG    1       19.035 -27.597  14.732  0.00  0.00    +0.045 C 
ATOM     41  C   LIG    1       18.683 -26.322  13.985  0.00  0.00    +0.004 C 
ATOM     42  C   LIG    1       19.794 -26.123  12.954  0.00  0.00    +0.004 C 
ATOM     43  C   LIG    1       20.701 -27.341  13.062  0.00  0.00    +0.045 C 
ENDBRANCH  38  39
ENDBRANCH  36  38
ENDBRANCH  29  34
ENDBRANCH  23  24
ENDBRANCH   2  23
TORSDOF 10
ENDMDL
MODEL 7
REMARK VINA RESULT:      -8.9      1.366      1.607
REMARK  Name = *****
REMARK                            x       y       z     vdW  Elec       q    Type
REMARK                         _______ _______ _______ _____ _____    ______ ____
ROOT
ATOM      1  C   LIG    1       25.807 -23.869   7.118  0.00  0.00    +0.124 A 
ATOM      2  C   LIG    1       24.954 -23.095   6.305  0.00  0.00    -0.001 A 
ATOM      3  C   LIG    1       24.497 -23.672   5.103  0.00  0.00    +0.008 A 
ATOM      4  C   LIG    1       24.867 -24.961   4.716  0.00  0.00    +0.013 A 
ATOM      5  C   LIG    1       25.735 -25.709   5.515  0.00  0.00    +0.041 A 
ATOM      6  C   LIG    1       26.235 -25.132   6.679  0.00  0.00    +0.059 A 
ENDROOT
BRANCH   1   8
ATOM      7  C   LIG    1       25.383 -22.347   8.888  0.00  0.00    +0.277 C 
ATOM      8  O   LIG    1       26.242 -23.341   8.310  0.00  0.00    -0.495 OA
ENDBRANCH   1   8
BRANCH   5   9
ATOM      9  C   LIG    1       26.167 -27.066   5.103  0.00  0.00    +0.239 C 
ATOM     10  N   LIG    1       25.935 -28.244   5.557  0.00  0.00    -0.091 NA
BRANCH  10  11
ATOM     11  S   LIG    1       24.992 -28.650   6.784  0.00  0.00    +0.102 S 
ATOM     12  O   LIG    1       23.623 -28.225   6.578  0.00  0.00    -0.146 OA
ATOM     13  O   LIG    1       25.671 -28.296   8.028  0.00  0.00    -0.146 OA
BRANCH  11  14
ATOM     14  C   LIG    1       24.983 -30.448   6.688  0.00  0.00    +0.116 A 
ATOM     15  C   LIG    1       24.368 -31.243   7.681  0.00  0.00    -0.024 A 
ATOM     16  C   LIG    1       23.717 -30.688   8.918  0.00  0.00    +0.046 C 
ATOM     17  C   LIG    1       24.375 -32.639   7.507  0.00  0.00    +0.005 A 
ATOM     18  C   LIG    1       24.965 -33.225   6.386  0.00  0.00    +0.000 A 
ATOM     19  C   LIG    1       25.565 -32.430   5.415  0.00  0.00    +0.002 A 
ATOM     20  C   LIG    1       25.576 -31.045   5.564  0.00  0.00    +0.029 A 
ENDBRANCH  11  14
ENDBRANCH  10  11
BRANCH   9  21
ATOM     21  O   LIG    1       27.001 -27.022   4.037  0.00  0.00    -0.491 OA
ATOM     22  H   LIG    1       27.182 -26.132   3.700  0.00  0.00    +0.294 HD
ENDBRANCH   9  21
ENDBRANCH   5   9
BRANCH   2  23
ATOM     23  C   LIG    1       24.485 -21.701   6.685  0.00  0.00    +0.076 C 
BRANCH  23  24
ATOM     24  C   LIG    1       25.268 -20.727   5.851  0.00  0.00    -0.018 C 
ATOM     25  C   LIG    1       26.670 -20.404   5.939  0.00  0.00    +0.005 C 
ATOM     26  C   LIG    1       26.922 -19.429   4.973  0.00  0.00    +0.049 C 
ATOM     27  C   LIG    1       28.173 -18.847   4.809  0.00  0.00    +0.028 C 
ATOM     28  C   LIG    1       29.191 -19.260   5.661  0.00  0.00    +0.025 C 
ATOM     29  C   LIG    1       29.009 -20.223   6.651  0.00  0.00    +0.037 C 
ATOM     30  N   LIG    1       25.755 -19.215   4.281  0.00  0.00    -0.349 NA
ATOM     31  C   LIG    1       25.626 -18.336   3.141  0.00  0.00    +0.149 C 
ATOM     32  C   LIG    1       27.746 -20.823   6.772  0.00  0.00    +0.033 C 
ATOM     33  C   LIG    1       24.750 -19.966   4.816  0.00  0.00    +0.090 C 
BRANCH  29  34
ATOM     34  N   LIG    1       30.030 -20.613   7.561  0.00  0.00    -0.251 N 
ATOM     35  H   LIG    1       30.566 -21.442   7.346  0.00  0.00    +0.158 HD
ATOM     36  C   LIG    1       30.318 -20.087   8.793  0.00  0.00    +0.405 C 
ATOM     37  O   LIG    1       31.127 -20.624   9.561  0.00  0.00    -0.226 OA
BRANCH  36  38
ATOM     38  O   LIG    1       29.616 -18.986   9.097  0.00  0.00    -0.447 OA
BRANCH  38  39
ATOM     39  C   LIG    1       30.258 -17.731   9.220  0.00  0.00    +0.178 C 
ATOM     40  C   LIG    1       30.380 -17.396  10.703  0.00  0.00    +0.045 C 
ATOM     41  C   LIG    1       31.530 -16.407  10.761  0.00  0.00    +0.004 C 
ATOM     42  C   LIG    1       32.426 -16.739   9.566  0.00  0.00    +0.004 C 
ATOM     43  C   LIG    1       31.716 -17.841   8.792  0.00  0.00    +0.045 C 
ENDBRANCH  38  39
ENDBRANCH  36  38
ENDBRANCH  29  34
ENDBRANCH  23  24
ENDBRANCH   2  23
TORSDOF 10
ENDMDL
MODEL 8
REMARK VINA RESULT:      -8.9      4.818     11.256
REMARK  Name = *****
REMARK                            x       y       z     vdW  Elec       q    Type
REMARK                         _______ _______ _______ _____ _____    ______ ____
ROOT
ATOM      1  C   LIG    1       26.254 -28.199   8.473  0.00  0.00    +0.124 A 
ATOM      2  C   LIG    1       25.248 -29.185   8.434  0.00  0.00    -0.001 A 
ATOM      3  C   LIG    1       24.348 -29.158   7.350  0.00  0.00    +0.008 A 
ATOM      4  C   LIG    1       24.435 -28.195   6.344  0.00  0.00    +0.013 A 
ATOM      5  C   LIG    1       25.419 -27.205   6.406  0.00  0.00    +0.041 A 
ATOM      6  C   LIG    1       26.281 -27.189   7.498  0.00  0.00    +0.059 A 
ENDROOT
BRANCH   1   8
ATOM      7  C   LIG    1       26.646 -27.825  10.783  0.00  0.00    +0.277 C 
ATOM      8  O   LIG    1       27.163 -28.222   9.504  0.00  0.00    -0.495 OA
ENDBRANCH   1   8
BRANCH   5   9
ATOM      9  C   LIG    1       25.504 -26.152   5.365  0.00  0.00    +0.239 C 
ATOM     10  N   LIG    1       25.154 -24.918   5.325  0.00  0.00    -0.091 NA
BRANCH  10  11
ATOM     11  S   LIG    1       24.507 -24.048   6.501  0.00  0.00    +0.102 S 
ATOM     12  O   LIG    1       25.467 -23.744   7.542  0.00  0.00    -0.146 OA
ATOM     13  O   LIG    1       23.222 -24.641   6.865  0.00  0.00    -0.146 OA
BRANCH  11  14
ATOM     14  C   LIG    1       24.145 -22.488   5.676  0.00  0.00    +0.116 A 
ATOM     15  C   LIG    1       23.633 -21.376   6.380  0.00  0.00    -0.024 A 
ATOM     16  C   LIG    1       23.296 -21.391   7.845  0.00  0.00    +0.046 C 
ATOM     17  C   LIG    1       23.415 -20.185   5.663  0.00  0.00    +0.005 A 
ATOM     18  C   LIG    1       23.702 -20.099   4.299  0.00  0.00    +0.000 A 
ATOM     19  C   LIG    1       24.208 -21.202   3.619  0.00  0.00    +0.002 A 
ATOM     20  C   LIG    1       24.429 -22.395   4.304  0.00  0.00    +0.029 A 
ENDBRANCH  11  14
ENDBRANCH  10  11
BRANCH   9  21
ATOM     21  O   LIG    1       26.042 -26.628   4.217  0.00  0.00    -0.491 OA
ATOM     22  H   LIG    1       26.987 -26.446   4.106  0.00  0.00    +0.294 HD
ENDBRANCH   9  21
ENDBRANCH   5   9
BRANCH   2  23
ATOM     23  C   LIG    1       25.120 -30.283   9.478  0.00  0.00    +0.076 C 
BRANCH  23  24
ATOM     24  C   LIG    1       24.236 -31.348   8.895  0.00  0.00    -0.018 C 
ATOM     25  C   LIG    1       22.956 -31.805   9.377  0.00  0.00    +0.005 C 
ATOM     26  C   LIG    1       22.540 -32.822   8.516  0.00  0.00    +0.049 C 
ATOM     27  C   LIG    1       21.359 -33.528   8.711  0.00  0.00    +0.028 C 
ATOM     28  C   LIG    1       20.589 -33.199   9.820  0.00  0.00    +0.025 C 
ATOM     29  C   LIG    1       20.946 -32.200  10.724  0.00  0.00    +0.037 C 
ATOM     30  N   LIG    1       23.478 -32.935   7.519  0.00  0.00    -0.349 NA
ATOM     31  C   LIG    1       23.366 -33.823   6.384  0.00  0.00    +0.149 C 
ATOM     32  C   LIG    1       22.124 -31.476  10.484  0.00  0.00    +0.033 C 
ATOM     33  C   LIG    1       24.512 -32.077   7.750  0.00  0.00    +0.090 C 
BRANCH  29  34
ATOM     34  N   LIG    1       20.192 -31.892  11.889  0.00  0.00    -0.251 N 
ATOM     35  H   LIG    1       19.542 -32.586  12.232  0.00  0.00    +0.158 HD
ATOM     36  C   LIG    1       20.117 -30.702  12.564  0.00  0.00    +0.405 C 
ATOM     37  O   LIG    1       19.293 -30.514  13.469  0.00  0.00    -0.226 OA
BRANCH  36  38
ATOM     38  O   LIG    1       20.970 -29.767  12.123  0.00  0.00    -0.447 OA
BRANCH  38  39
ATOM     39  C   LIG    1       21.585 -28.867  13.027  0.00  0.00    +0.178 C 
ATOM     40  C   LIG    1       23.042 -28.691  12.613  0.00  0.00    +0.045 C 
ATOM     41  C   LIG    1       23.433 -27.352  13.215  0.00  0.00    +0.004 C 
ATOM     42  C   LIG    1       22.141 -26.538  13.297  0.00  0.00    +0.004 C 
ATOM     43  C   LIG    1       21.022 -27.464  12.838  0.00  0.00    +0.045 C 
ENDBRANCH  38  39
ENDBRANCH  36  38
ENDBRANCH  29  34
ENDBRANCH  23  24
ENDBRANCH   2  23
TORSDOF 10
ENDMDL
MODEL 9
REMARK VINA RESULT:      -8.8      1.793      2.161
REMARK  Name = *****
REMARK                            x       y       z     vdW  Elec       q    Type
REMARK                         _______ _______ _______ _____ _____    ______ ____
ROOT
ATOM      1  C   LIG    1       25.832 -23.839   7.235  0.00  0.00    +0.124 A 
ATOM      2  C   LIG    1       24.983 -23.111   6.378  0.00  0.00    -0.001 A 
ATOM      3  C   LIG    1       24.556 -23.741   5.192  0.00  0.00    +0.008 A 
ATOM      4  C   LIG    1       24.951 -25.038   4.863  0.00  0.00    +0.013 A 
ATOM      5  C   LIG    1       25.816 -25.741   5.705  0.00  0.00    +0.041 A 
ATOM      6  C   LIG    1       26.287 -25.111   6.853  0.00  0.00    +0.059 A 
ENDROOT
BRANCH   1   8
ATOM      7  C   LIG    1       25.360 -22.249   8.932  0.00  0.00    +0.277 C 
ATOM      8  O   LIG    1       26.240 -23.257   8.412  0.00  0.00    -0.495 OA
ENDBRANCH   1   8
BRANCH   5   9
ATOM      9  C   LIG    1       26.275 -27.106   5.354  0.00  0.00    +0.239 C 
ATOM     10  N   LIG    1       25.834 -28.282   5.617  0.00  0.00    -0.091 NA
BRANCH  10  11
ATOM     11  S   LIG    1       24.515 -28.671   6.436  0.00  0.00    +0.102 S 
ATOM     12  O   LIG    1       23.921 -29.900   5.954  0.00  0.00    -0.146 OA
ATOM     13  O   LIG    1       23.684 -27.477   6.569  0.00  0.00    -0.146 OA
BRANCH  11  14
ATOM     14  C   LIG    1       25.170 -29.034   8.074  0.00  0.00    +0.116 A 
ATOM     15  C   LIG    1       24.618 -30.049   8.887  0.00  0.00    -0.024 A 
ATOM     16  C   LIG    1       23.424 -30.878   8.502  0.00  0.00    +0.046 C 
ATOM     17  C   LIG    1       25.216 -30.291  10.137  0.00  0.00    +0.005 A 
ATOM     18  C   LIG    1       26.325 -29.558  10.563  0.00  0.00    +0.000 A 
ATOM     19  C   LIG    1       26.859 -28.562   9.751  0.00  0.00    +0.002 A 
ATOM     20  C   LIG    1       26.284 -28.299   8.510  0.00  0.00    +0.029 A 
ENDBRANCH  11  14
ENDBRANCH  10  11
BRANCH   9  21
ATOM     21  O   LIG    1       27.415 -27.077   4.624  0.00  0.00    -0.491 OA
ATOM     22  H   LIG    1       27.337 -27.448   3.733  0.00  0.00    +0.294 HD
ENDBRANCH   9  21
ENDBRANCH   5   9
BRANCH   2  23
ATOM     23  C   LIG    1       24.487 -21.710   6.695  0.00  0.00    +0.076 C 
BRANCH  23  24
ATOM     24  C   LIG    1       25.279 -20.756   5.847  0.00  0.00    -0.018 C 
ATOM     25  C   LIG    1       26.678 -20.424   5.949  0.00  0.00    +0.005 C 
ATOM     26  C   LIG    1       26.942 -19.475   4.959  0.00  0.00    +0.049 C 
ATOM     27  C   LIG    1       28.193 -18.892   4.799  0.00  0.00    +0.028 C 
ATOM     28  C   LIG    1       29.198 -19.276   5.679  0.00  0.00    +0.025 C 
ATOM     29  C   LIG    1       29.004 -20.212   6.693  0.00  0.00    +0.037 C 
ATOM     30  N   LIG    1       25.786 -19.287   4.243  0.00  0.00    -0.349 NA
ATOM     31  C   LIG    1       25.671 -18.440   3.076  0.00  0.00    +0.149 C 
ATOM     32  C   LIG    1       27.742 -20.814   6.810  0.00  0.00    +0.033 C 
ATOM     33  C   LIG    1       24.775 -20.027   4.782  0.00  0.00    +0.090 C 
BRANCH  29  34
ATOM     34  N   LIG    1       30.012 -20.571   7.630  0.00  0.00    -0.251 N 
ATOM     35  H   LIG    1       30.542 -21.413   7.457  0.00  0.00    +0.158 HD
ATOM     36  C   LIG    1       30.292 -19.995   8.841  0.00  0.00    +0.405 C 
ATOM     37  O   LIG    1       31.088 -20.505   9.640  0.00  0.00    -0.226 OA
BRANCH  36  38
ATOM     38  O   LIG    1       29.597 -18.876   9.090  0.00  0.00    -0.447 OA
BRANCH  38  39
ATOM     39  C   LIG    1       30.260 -17.638   9.266  0.00  0.00    +0.178 C 
ATOM     40  C   LIG    1       30.429 -17.391  10.761  0.00  0.00    +0.045 C 
ATOM     41  C   LIG    1       31.594 -16.421  10.842  0.00  0.00    +0.004 C 
ATOM     42  C   LIG    1       32.451 -16.694   9.604  0.00  0.00    +0.004 C 
ATOM     43  C   LIG    1       31.703 -17.741   8.790  0.00  0.00    +0.045 C 
ENDBRANCH  38  39
ENDBRANCH  36  38
ENDBRANCH  29  34
ENDBRANCH  23  24
ENDBRANCH   2  23
TORSDOF 10
ENDMDL
