MODEL 1
REMARK VINA RESULT:      -7.7      0.000      0.000
REMARK  Name = *****
REMARK                            x       y       z     vdW  Elec       q    Type
REMARK                         _______ _______ _______ _____ _____    ______ ____
ROOT
ATOM      1  C   LIG    1       25.090 -23.383   4.613  0.00  0.00    +0.105 C 
ATOM      2  N   LIG    1       24.373 -22.513   5.609  0.00  0.00    -0.299 NA
ATOM      3  C   LIG    1       24.065 -21.276   4.764  0.00  0.00    +0.093 C 
ATOM      4  C   LIG    1       23.464 -21.104   6.036  0.00  0.00    +0.096 C 
ATOM      5  C   LIG    1       25.204 -21.175   6.879  0.00  0.00    +0.075 C 
ATOM      6  C   LIG    1       26.178 -22.762   6.959  0.00  0.00    +0.253 C 
ATOM      7  O   LIG    1       27.381 -22.222   7.580  0.00  0.00    -0.476 OA
ATOM      8  C   LIG    1       27.534 -21.003   6.874  0.00  0.00    +0.167 A 
ATOM      9  C   LIG    1       28.713 -20.436   6.462  0.00  0.00    +0.159 A 
ATOM     10  C   LIG    1       28.651 -19.415   5.502  0.00  0.00    +0.049 A 
ATOM     11  C   LIG    1       27.440 -19.145   4.810  0.00  0.00    +0.008 A 
ATOM     12  C   LIG    1       26.283 -19.821   5.173  0.00  0.00    -0.038 A 
ATOM     13  C   LIG    1       25.093 -24.307   7.050  0.00  0.00    +0.174 C 
ATOM     14  O   LIG    1       25.574 -25.403   7.408  0.00  0.00    -0.293 OA
ATOM     15  C   LIG    1       23.258 -24.202   6.689  0.00  0.00    +0.081 C 
ATOM     16  C   LIG    1       26.350 -20.486   6.358  0.00  0.00    +0.014 A 
ATOM     17  C   LIG    1       24.768 -21.070   8.219  0.00  0.00    +0.034 C 
ATOM     18  C   LIG    1       22.346 -22.662   6.177  0.00  0.00    +0.045 C 
ATOM     19  C   LIG    1       25.031 -20.067   4.349  0.00  0.00    +0.057 C 
ATOM     20  C   LIG    1       24.131 -22.287   7.571  0.00  0.00    +0.085 C 
ENDROOT
BRANCH   4  21
ATOM     21  O   LIG    1       22.740 -19.916   6.251  0.00  0.00    -0.386 OA
ATOM     22  H   LIG    1       21.797 -20.141   6.190  0.00  0.00    +0.210 HD
ENDBRANCH   4  21
BRANCH   9  23
ATOM     23  O   LIG    1       29.920 -20.889   6.891  0.00  0.00    -0.503 OA
ATOM     24  H   LIG    1       30.589 -20.379   6.397  0.00  0.00    +0.292 HD
ENDBRANCH   9  23
TORSDOF 2
ENDMDL
MODEL 2
REMARK VINA RESULT:      -6.2      7.320      9.939
REMARK  Name = *****
REMARK                            x       y       z     vdW  Elec       q    Type
REMARK                         _______ _______ _______ _____ _____    ______ ____
ROOT
ATOM      1  C   LIG    1       23.596 -29.335  11.290  0.00  0.00    +0.105 C 
ATOM      2  N   LIG    1       24.803 -30.199  11.049  0.00  0.00    -0.299 NA
ATOM      3  C   LIG    1       25.921 -29.156  11.020  0.00  0.00    +0.093 C 
ATOM      4  C   LIG    1       26.511 -30.441  10.917  0.00  0.00    +0.096 C 
ATOM      5  C   LIG    1       25.566 -30.754   9.259  0.00  0.00    +0.075 C 
ATOM      6  C   LIG    1       23.721 -31.011   9.229  0.00  0.00    +0.253 C 
ATOM      7  O   LIG    1       23.559 -31.096   7.783  0.00  0.00    -0.476 OA
ATOM      8  C   LIG    1       24.419 -30.058   7.347  0.00  0.00    +0.167 A 
ATOM      9  C   LIG    1       24.199 -29.194   6.305  0.00  0.00    +0.159 A 
ATOM     10  C   LIG    1       24.991 -28.038   6.231  0.00  0.00    +0.049 A 
ATOM     11  C   LIG    1       25.822 -27.661   7.320  0.00  0.00    +0.008 A 
ATOM     12  C   LIG    1       25.936 -28.505   8.415  0.00  0.00    -0.038 A 
ATOM     13  C   LIG    1       23.050 -31.834  10.793  0.00  0.00    +0.174 C 
ATOM     14  O   LIG    1       21.909 -32.343  10.805  0.00  0.00    -0.293 OA
ATOM     15  C   LIG    1       24.119 -31.979  12.323  0.00  0.00    +0.081 C 
ATOM     16  C   LIG    1       25.455 -29.764   8.227  0.00  0.00    +0.014 A 
ATOM     17  C   LIG    1       26.016 -32.075   9.034  0.00  0.00    +0.034 C 
ATOM     18  C   LIG    1       25.853 -31.322  12.495  0.00  0.00    +0.045 C 
ATOM     19  C   LIG    1       26.350 -28.164   9.836  0.00  0.00    +0.057 C 
ATOM     20  C   LIG    1       25.302 -32.003  10.373  0.00  0.00    +0.085 C 
ENDROOT
BRANCH   4  21
ATOM     21  O   LIG    1       27.915 -30.499  10.830  0.00  0.00    -0.386 OA
ATOM     22  H   LIG    1       28.258 -29.653  11.164  0.00  0.00    +0.210 HD
ENDBRANCH   4  21
BRANCH   9  23
ATOM     23  O   LIG    1       23.195 -29.384   5.409  0.00  0.00    -0.503 OA
ATOM     24  H   LIG    1       23.196 -30.337   5.203  0.00  0.00    +0.292 HD
ENDBRANCH   9  23
TORSDOF 2
ENDMDL
MODEL 3
REMARK VINA RESULT:      -5.8      1.552      3.532
REMARK  Name = *****
REMARK                            x       y       z     vdW  Elec       q    Type
REMARK                         _______ _______ _______ _____ _____    ______ ____
ROOT
ATOM      1  C   LIG    1       23.448 -20.231   7.596  0.00  0.00    +0.105 C 
ATOM      2  N   LIG    1       23.752 -21.537   6.913  0.00  0.00    -0.299 NA
ATOM      3  C   LIG    1       24.542 -22.269   7.999  0.00  0.00    +0.093 C 
ATOM      4  C   LIG    1       24.362 -23.156   6.908  0.00  0.00    +0.096 C 
ATOM      5  C   LIG    1       25.359 -21.962   5.759  0.00  0.00    +0.075 C 
ATOM      6  C   LIG    1       24.660 -20.317   5.230  0.00  0.00    +0.253 C 
ATOM      7  O   LIG    1       25.826 -19.836   4.498  0.00  0.00    -0.476 OA
ATOM      8  C   LIG    1       26.877 -20.231   5.362  0.00  0.00    +0.167 A 
ATOM      9  C   LIG    1       28.020 -19.525   5.639  0.00  0.00    +0.159 A 
ATOM     10  C   LIG    1       28.778 -19.913   6.754  0.00  0.00    +0.049 A 
ATOM     11  C   LIG    1       28.258 -20.843   7.694  0.00  0.00    +0.008 A 
ATOM     12  C   LIG    1       27.039 -21.458   7.442  0.00  0.00    -0.038 A 
ATOM     13  C   LIG    1       22.776 -20.314   5.079  0.00  0.00    +0.174 C 
ATOM     14  O   LIG    1       22.189 -19.404   4.456  0.00  0.00    -0.293 OA
ATOM     15  C   LIG    1       21.764 -21.722   5.785  0.00  0.00    +0.081 C 
ATOM     16  C   LIG    1       26.577 -21.324   6.168  0.00  0.00    +0.014 A 
ATOM     17  C   LIG    1       25.224 -22.699   4.561  0.00  0.00    +0.034 C 
ATOM     18  C   LIG    1       22.449 -23.184   6.713  0.00  0.00    +0.045 C 
ATOM     19  C   LIG    1       26.076 -22.094   8.428  0.00  0.00    +0.057 C 
ATOM     20  C   LIG    1       23.848 -22.345   5.098  0.00  0.00    +0.085 C 
ENDROOT
BRANCH   4  21
ATOM     21  O   LIG    1       24.895 -24.452   7.037  0.00  0.00    -0.386 OA
ATOM     22  H   LIG    1       24.460 -25.009   6.371  0.00  0.00    +0.210 HD
ENDBRANCH   4  21
BRANCH   9  23
ATOM     23  O   LIG    1       28.383 -18.429   4.923  0.00  0.00    -0.503 OA
ATOM     24  H   LIG    1       28.579 -17.733   5.578  0.00  0.00    +0.292 HD
ENDBRANCH   9  23
TORSDOF 2
ENDMDL
MODEL 4
REMARK VINA RESULT:      -5.4      8.634     10.350
REMARK  Name = *****
REMARK                            x       y       z     vdW  Elec       q    Type
REMARK                         _______ _______ _______ _____ _____    ______ ____
ROOT
ATOM      1  C   LIG    1       26.238 -30.903  13.856  0.00  0.00    +0.105 C 
ATOM      2  N   LIG    1       26.090 -29.426  13.614  0.00  0.00    -0.299 NA
ATOM      3  C   LIG    1       24.572 -29.289  13.496  0.00  0.00    +0.093 C 
ATOM      4  C   LIG    1       25.140 -27.992  13.434  0.00  0.00    +0.096 C 
ATOM      5  C   LIG    1       26.100 -28.478  11.826  0.00  0.00    +0.075 C 
ATOM      6  C   LIG    1       27.522 -29.682  11.874  0.00  0.00    +0.253 C 
ATOM      7  O   LIG    1       27.778 -29.738  10.440  0.00  0.00    -0.476 OA
ATOM      8  C   LIG    1       26.459 -29.787   9.925  0.00  0.00    +0.167 A 
ATOM      9  C   LIG    1       26.024 -30.522   8.852  0.00  0.00    +0.159 A 
ATOM     10  C   LIG    1       24.641 -30.702   8.696  0.00  0.00    +0.049 A 
ATOM     11  C   LIG    1       23.743 -30.340   9.735  0.00  0.00    +0.008 A 
ATOM     12  C   LIG    1       24.231 -29.698  10.865  0.00  0.00    -0.038 A 
ATOM     13  C   LIG    1       28.489 -29.641  13.497  0.00  0.00    +0.174 C 
ATOM     14  O   LIG    1       29.626 -30.152  13.574  0.00  0.00    -0.293 OA
ATOM     15  C   LIG    1       27.794 -28.755  14.994  0.00  0.00    +0.081 C 
ATOM     16  C   LIG    1       25.498 -29.215  10.753  0.00  0.00    +0.014 A 
ATOM     17  C   LIG    1       26.795 -27.261  11.649  0.00  0.00    +0.034 C 
ATOM     18  C   LIG    1       26.141 -27.903  15.073  0.00  0.00    +0.045 C 
ATOM     19  C   LIG    1       23.618 -29.625  12.252  0.00  0.00    +0.057 C 
ATOM     20  C   LIG    1       27.139 -27.848  13.007  0.00  0.00    +0.085 C 
ENDROOT
BRANCH   4  21
ATOM     21  O   LIG    1       24.254 -26.907  13.300  0.00  0.00    -0.386 OA
ATOM     22  H   LIG    1       23.392 -27.197  13.644  0.00  0.00    +0.210 HD
ENDBRANCH   4  21
BRANCH   9  23
ATOM     23  O   LIG    1       26.886 -31.138   8.002  0.00  0.00    -0.503 OA
ATOM     24  H   LIG    1       26.951 -32.063   8.308  0.00  0.00    +0.292 HD
ENDBRANCH   9  23
TORSDOF 2
ENDMDL
MODEL 5
REMARK VINA RESULT:      -5.4      6.540      9.264
REMARK  Name = *****
REMARK                            x       y       z     vdW  Elec       q    Type
REMARK                         _______ _______ _______ _____ _____    ______ ____
ROOT
ATOM      1  C   LIG    1       26.900 -31.933   7.828  0.00  0.00    +0.105 C 
ATOM      2  N   LIG    1       25.566 -31.740   8.495  0.00  0.00    -0.299 NA
ATOM      3  C   LIG    1       24.607 -32.166   7.384  0.00  0.00    +0.093 C 
ATOM      4  C   LIG    1       23.844 -31.890   8.546  0.00  0.00    +0.096 C 
ATOM      5  C   LIG    1       24.449 -30.053   8.521  0.00  0.00    +0.075 C 
ATOM      6  C   LIG    1       26.214 -29.609   8.923  0.00  0.00    +0.253 C 
ATOM      7  O   LIG    1       26.119 -28.178   8.661  0.00  0.00    -0.476 OA
ATOM      8  C   LIG    1       25.343 -28.165   7.476  0.00  0.00    +0.167 A 
ATOM      9  C   LIG    1       25.499 -27.325   6.403  0.00  0.00    +0.159 A 
ATOM     10  C   LIG    1       24.864 -27.670   5.200  0.00  0.00    +0.049 A 
ATOM     11  C   LIG    1       24.283 -28.956   5.033  0.00  0.00    +0.008 A 
ATOM     12  C   LIG    1       24.244 -29.831   6.109  0.00  0.00    -0.038 A 
ATOM     13  C   LIG    1       27.021 -30.785  10.164  0.00  0.00    +0.174 C 
ATOM     14  O   LIG    1       28.071 -30.460  10.757  0.00  0.00    -0.293 OA
ATOM     15  C   LIG    1       26.212 -32.419  10.589  0.00  0.00    +0.081 C 
ATOM     16  C   LIG    1       24.516 -29.272   7.319  0.00  0.00    +0.014 A 
ATOM     17  C   LIG    1       23.798 -29.626   9.700  0.00  0.00    +0.034 C 
ATOM     18  C   LIG    1       24.633 -33.068   9.845  0.00  0.00    +0.045 C 
ATOM     19  C   LIG    1       24.121 -31.345   6.095  0.00  0.00    +0.057 C 
ATOM     20  C   LIG    1       24.728 -30.781  10.024  0.00  0.00    +0.085 C 
ENDROOT
BRANCH   4  21
ATOM     21  O   LIG    1       22.450 -32.065   8.457  0.00  0.00    -0.386 OA
ATOM     22  H   LIG    1       22.261 -32.989   8.693  0.00  0.00    +0.210 HD
ENDBRANCH   4  21
BRANCH   9  23
ATOM     23  O   LIG    1       26.305 -26.232   6.453  0.00  0.00    -0.503 OA
ATOM     24  H   LIG    1       26.089 -25.703   5.662  0.00  0.00    +0.292 HD
ENDBRANCH   9  23
TORSDOF 2
ENDMDL
MODEL 6
REMARK VINA RESULT:      -5.2      9.244     11.097
REMARK  Name = *****
REMARK                            x       y       z     vdW  Elec       q    Type
REMARK                         _______ _______ _______ _____ _____    ______ ____
ROOT
ATOM      1  C   LIG    1       25.007 -29.453  15.498  0.00  0.00    +0.105 C 
ATOM      2  N   LIG    1       25.580 -29.073  14.160  0.00  0.00    -0.299 NA
ATOM      3  C   LIG    1       25.572 -27.547  14.250  0.00  0.00    +0.093 C 
ATOM      4  C   LIG    1       26.194 -27.915  13.031  0.00  0.00    +0.096 C 
ATOM      5  C   LIG    1       24.558 -28.764  12.441  0.00  0.00    +0.075 C 
ATOM      6  C   LIG    1       23.947 -30.339  13.226  0.00  0.00    +0.253 C 
ATOM      7  O   LIG    1       22.694 -30.451  12.489  0.00  0.00    -0.476 OA
ATOM      8  C   LIG    1       22.248 -29.106  12.495  0.00  0.00    +0.167 A 
ATOM      9  C   LIG    1       20.955 -28.672  12.634  0.00  0.00    +0.159 A 
ATOM     10  C   LIG    1       20.746 -27.320  12.946  0.00  0.00    +0.049 A 
ATOM     11  C   LIG    1       21.832 -26.492  13.337  0.00  0.00    +0.008 A 
ATOM     12  C   LIG    1       23.124 -26.997  13.296  0.00  0.00    -0.038 A 
ATOM     13  C   LIG    1       25.336 -31.453  13.860  0.00  0.00    +0.174 C 
ATOM     14  O   LIG    1       25.117 -32.653  14.129  0.00  0.00    -0.293 OA
ATOM     15  C   LIG    1       27.084 -30.798  14.011  0.00  0.00    +0.081 C 
ATOM     16  C   LIG    1       23.266 -28.165  12.611  0.00  0.00    +0.014 A 
ATOM     17  C   LIG    1       25.038 -29.257  11.207  0.00  0.00    +0.034 C 
ATOM     18  C   LIG    1       27.621 -29.057  13.627  0.00  0.00    +0.045 C 
ATOM     19  C   LIG    1       24.351 -26.526  14.057  0.00  0.00    +0.057 C 
ATOM     20  C   LIG    1       25.879 -29.819  12.340  0.00  0.00    +0.085 C 
ENDROOT
BRANCH   4  21
ATOM     21  O   LIG    1       26.663 -26.875  12.207  0.00  0.00    -0.386 OA
ATOM     22  H   LIG    1       26.210 -26.961  11.351  0.00  0.00    +0.210 HD
ENDBRANCH   4  21
BRANCH   9  23
ATOM     23  O   LIG    1       19.896 -29.520  12.562  0.00  0.00    -0.503 OA
ATOM     24  H   LIG    1       19.662 -29.737  13.484  0.00  0.00    +0.292 HD
ENDBRANCH   9  23
TORSDOF 2
ENDMDL
MODEL 7
REMARK VINA RESULT:      -5.1      8.998     10.597
REMARK  Name = *****
REMARK                            x       y       z     vdW  Elec       q    Type
REMARK                         _______ _______ _______ _____ _____    ______ ____
ROOT
ATOM      1  C   LIG    1       24.238 -29.727   9.129  0.00  0.00    +0.105 C 
ATOM      2  N   LIG    1       24.317 -30.735  10.243  0.00  0.00    -0.299 NA
ATOM      3  C   LIG    1       22.846 -31.116  10.411  0.00  0.00    +0.093 C 
ATOM      4  C   LIG    1       23.617 -31.931  11.277  0.00  0.00    +0.096 C 
ATOM      5  C   LIG    1       24.226 -30.362  12.230  0.00  0.00    +0.075 C 
ATOM      6  C   LIG    1       25.406 -29.151  11.447  0.00  0.00    +0.253 C 
ATOM      7  O   LIG    1       25.431 -28.175  12.530  0.00  0.00    -0.476 OA
ATOM      8  C   LIG    1       24.062 -28.128  12.891  0.00  0.00    +0.167 A 
ATOM      9  C   LIG    1       23.350 -27.016  13.263  0.00  0.00    +0.159 A 
ATOM     10  C   LIG    1       21.949 -27.103  13.263  0.00  0.00    +0.049 A 
ATOM     11  C   LIG    1       21.294 -28.217  12.675  0.00  0.00    +0.008 A 
ATOM     12  C   LIG    1       22.050 -29.280  12.201  0.00  0.00    -0.038 A 
ATOM     13  C   LIG    1       26.596 -29.949  10.215  0.00  0.00    +0.174 C 
ATOM     14  O   LIG    1       27.625 -29.346   9.841  0.00  0.00    -0.293 OA
ATOM     15  C   LIG    1       26.299 -31.693   9.600  0.00  0.00    +0.081 C 
ATOM     16  C   LIG    1       23.351 -29.287  12.599  0.00  0.00    +0.014 A 
ATOM     17  C   LIG    1       25.090 -31.017  13.136  0.00  0.00    +0.034 C 
ATOM     18  C   LIG    1       24.851 -32.768  10.063  0.00  0.00    +0.045 C 
ATOM     19  C   LIG    1       21.673 -30.323  11.163  0.00  0.00    +0.057 C 
ATOM     20  C   LIG    1       25.524 -31.320  11.713  0.00  0.00    +0.085 C 
ENDROOT
BRANCH   4  21
ATOM     21  O   LIG    1       22.925 -32.877  12.057  0.00  0.00    -0.386 OA
ATOM     22  H   LIG    1       22.416 -33.436  11.445  0.00  0.00    +0.210 HD
ENDBRANCH   4  21
BRANCH   9  23
ATOM     23  O   LIG    1       23.954 -25.832  13.543  0.00  0.00    -0.503 OA
ATOM     24  H   LIG    1       23.236 -25.176  13.621  0.00  0.00    +0.292 HD
ENDBRANCH   9  23
TORSDOF 2
ENDMDL
MODEL 8
REMARK VINA RESULT:      -5.1      7.719     10.516
REMARK  Name = *****
REMARK                            x       y       z     vdW  Elec       q    Type
REMARK                         _______ _______ _______ _____ _____    ______ ____
ROOT
ATOM      1  C   LIG    1       22.508 -29.243  12.053  0.00  0.00    +0.105 C 
ATOM      2  N   LIG    1       23.264 -30.542  11.994  0.00  0.00    -0.299 NA
ATOM      3  C   LIG    1       24.584 -30.155  12.660  0.00  0.00    +0.093 C 
ATOM      4  C   LIG    1       24.616 -31.546  12.389  0.00  0.00    +0.096 C 
ATOM      5  C   LIG    1       24.458 -31.190  10.494  0.00  0.00    +0.075 C 
ATOM      6  C   LIG    1       22.873 -30.539   9.760  0.00  0.00    +0.253 C 
ATOM      7  O   LIG    1       23.345 -30.377   8.390  0.00  0.00    -0.476 OA
ATOM      8  C   LIG    1       24.634 -29.827   8.605  0.00  0.00    +0.167 A 
ATOM      9  C   LIG    1       25.244 -28.852   7.858  0.00  0.00    +0.159 A 
ATOM     10  C   LIG    1       26.363 -28.208   8.407  0.00  0.00    +0.049 A 
ATOM     11  C   LIG    1       26.704 -28.391   9.774  0.00  0.00    +0.008 A 
ATOM     12  C   LIG    1       25.991 -29.304  10.538  0.00  0.00    -0.038 A 
ATOM     13  C   LIG    1       21.326 -31.115  10.679  0.00  0.00    +0.174 C 
ATOM     14  O   LIG    1       20.198 -31.022  10.148  0.00  0.00    -0.293 OA
ATOM     15  C   LIG    1       21.466 -31.917  12.365  0.00  0.00    +0.081 C 
ATOM     16  C   LIG    1       25.201 -30.158   9.831  0.00  0.00    +0.014 A 
ATOM     17  C   LIG    1       24.416 -32.532  10.055  0.00  0.00    +0.034 C 
ATOM     18  C   LIG    1       23.050 -32.180  13.307  0.00  0.00    +0.045 C 
ATOM     19  C   LIG    1       25.833 -29.359  12.048  0.00  0.00    +0.057 C 
ATOM     20  C   LIG    1       23.275 -32.280  11.024  0.00  0.00    +0.085 C 
ENDROOT
BRANCH   4  21
ATOM     21  O   LIG    1       25.772 -32.250  12.774  0.00  0.00    -0.386 OA
ATOM     22  H   LIG    1       25.977 -31.988  13.687  0.00  0.00    +0.210 HD
ENDBRANCH   4  21
BRANCH   9  23
ATOM     23  O   LIG    1       24.750 -28.445   6.660  0.00  0.00    -0.503 OA
ATOM     24  H   LIG    1       25.196 -27.601   6.458  0.00  0.00    +0.292 HD
ENDBRANCH   9  23
TORSDOF 2
ENDMDL
MODEL 9
REMARK VINA RESULT:      -5.0      9.171     10.492
REMARK  Name = *****
REMARK                            x       y       z     vdW  Elec       q    Type
REMARK                         _______ _______ _______ _____ _____    ______ ____
ROOT
ATOM      1  C   LIG    1       24.319 -30.162   7.648  0.00  0.00    +0.105 C 
ATOM      2  N   LIG    1       24.109 -31.352   8.544  0.00  0.00    -0.299 NA
ATOM      3  C   LIG    1       23.040 -30.825   9.502  0.00  0.00    +0.093 C 
ATOM      4  C   LIG    1       23.273 -32.189   9.806  0.00  0.00    +0.096 C 
ATOM      5  C   LIG    1       25.114 -31.788  10.245  0.00  0.00    +0.075 C 
ATOM      6  C   LIG    1       26.344 -31.317   8.927  0.00  0.00    +0.253 C 
ATOM      7  O   LIG    1       27.476 -31.046   9.804  0.00  0.00    -0.476 OA
ATOM      8  C   LIG    1       26.845 -30.346  10.862  0.00  0.00    +0.167 A 
ATOM      9  C   LIG    1       27.351 -29.275  11.553  0.00  0.00    +0.159 A 
ATOM     10  C   LIG    1       26.463 -28.515  12.329  0.00  0.00    +0.049 A 
ATOM     11  C   LIG    1       25.059 -28.703  12.214  0.00  0.00    +0.008 A 
ATOM     12  C   LIG    1       24.572 -29.726  11.413  0.00  0.00    -0.038 A 
ATOM     13  C   LIG    1       25.994 -32.117   7.251  0.00  0.00    +0.174 C 
ATOM     14  O   LIG    1       26.874 -32.148   6.364  0.00  0.00    -0.293 OA
ATOM     15  C   LIG    1       24.352 -32.956   6.923  0.00  0.00    +0.081 C 
ATOM     16  C   LIG    1       25.497 -30.646  11.025  0.00  0.00    +0.014 A 
ATOM     17  C   LIG    1       25.530 -33.108  10.530  0.00  0.00    +0.034 C 
ATOM     18  C   LIG    1       22.930 -33.050   8.121  0.00  0.00    +0.045 C 
ATOM     19  C   LIG    1       23.203 -29.855  10.768  0.00  0.00    +0.057 C 
ATOM     20  C   LIG    1       25.003 -33.037   9.107  0.00  0.00    +0.085 C 
ENDROOT
BRANCH   4  21
ATOM     21  O   LIG    1       22.516 -32.755  10.849  0.00  0.00    -0.386 OA
ATOM     22  H   LIG    1       21.744 -33.184  10.442  0.00  0.00    +0.210 HD
ENDBRANCH   4  21
BRANCH   9  23
ATOM     23  O   LIG    1       28.649 -28.890  11.440  0.00  0.00    -0.503 OA
ATOM     24  H   LIG    1       28.763 -28.142  12.056  0.00  0.00    +0.292 HD
ENDBRANCH   9  23
TORSDOF 2
ENDMDL
