MODEL 1
REMARK VINA RESULT:      -6.0      0.000      0.000
REMARK  Name = *****
REMARK                            x       y       z     vdW  Elec       q    Type
REMARK                         _______ _______ _______ _____ _____    ______ ____
ROOT
ATOM      1  C   LIG    1       25.050 -31.748  11.413  0.00  0.00    +0.132 C 
ATOM      2  C   LIG    1       25.270 -30.205  11.270  0.00  0.00    +0.014 C 
ATOM      3  C   LIG    1       24.096 -29.597  12.115  0.00  0.00    +0.002 C 
ATOM      4  C   LIG    1       24.413 -29.052  13.537  0.00  0.00    -0.003 C 
ATOM      5  C   LIG    1       25.800 -28.380  13.650  0.00  0.00    -0.000 C 
ATOM      6  C   LIG    1       26.843 -29.405  13.203  0.00  0.00    +0.005 C 
ATOM      7  C   LIG    1       25.830 -27.017  12.903  0.00  0.00    +0.019 C 
ATOM      8  C   LIG    1       24.733 -26.139  13.483  0.00  0.00    -0.064 C 
ATOM      9  C   LIG    1       24.951 -24.973  14.115  0.00  0.00    +0.026 C 
ATOM     10  C   LIG    1       26.341 -24.504  14.377  0.00  0.00    +0.080 C 
ATOM     11  C   LIG    1       27.447 -25.523  14.180  0.00  0.00    +0.059 C 
ATOM     12  N   LIG    1       26.683 -23.326  14.804  0.00  0.00    -0.092 NA
ATOM     13  C   LIG    1       23.348 -26.713  13.357  0.00  0.00    +0.031 C 
ATOM     14  C   LIG    1       27.193 -26.302  12.900  0.00  0.00    +0.014 C 
ATOM     15  C   LIG    1       23.299 -28.092  14.025  0.00  0.00    +0.008 C 
ATOM     16  C   LIG    1       23.012 -30.703  12.209  0.00  0.00    +0.008 C 
ATOM     17  C   LIG    1       26.697 -29.776  11.736  0.00  0.00    +0.011 C 
ATOM     18  C   LIG    1       23.533 -31.931  11.471  0.00  0.00    +0.049 C 
ENDROOT
BRANCH   1  20
ATOM     19  C   LIG    1       26.128 -33.194   9.439  0.00  0.00    +0.007 C 
ATOM     20  C   LIG    1       25.645 -32.544  10.326  0.00  0.00    -0.070 C 
ENDBRANCH   1  20
BRANCH   1  21
ATOM     21  O   LIG    1       25.602 -32.232  12.638  0.00  0.00    -0.376 OA
ATOM     22  H   LIG    1       25.469 -31.561  13.325  0.00  0.00    +0.211 HD
ENDBRANCH   1  21
BRANCH  12  23
ATOM     23  O   LIG    1       25.577 -22.481  14.954  0.00  0.00    -0.409 OA
ATOM     24  H   LIG    1       25.411 -22.194  14.037  0.00  0.00    +0.328 HD
ENDBRANCH  12  23
BRANCH   2  25
ATOM     25  C   LIG    1       25.161 -29.676   9.785  0.00  0.00    +0.007 C 
ATOM     26  C   LIG    1       26.280 -28.820   9.206  0.00  0.00    +0.004 C 
ENDBRANCH   2  25
TORSDOF 4
ENDMDL
MODEL 2
REMARK VINA RESULT:      -5.6      1.574      1.968
REMARK  Name = *****
REMARK                            x       y       z     vdW  Elec       q    Type
REMARK                         _______ _______ _______ _____ _____    ______ ____
ROOT
ATOM      1  C   LIG    1       22.372 -31.817  11.865  0.00  0.00    +0.132 C 
ATOM      2  C   LIG    1       23.088 -30.455  11.584  0.00  0.00    +0.014 C 
ATOM      3  C   LIG    1       22.175 -29.413  12.321  0.00  0.00    +0.002 C 
ATOM      4  C   LIG    1       22.646 -28.857  13.695  0.00  0.00    -0.003 C 
ATOM      5  C   LIG    1       24.177 -28.668  13.797  0.00  0.00    -0.000 C 
ATOM      6  C   LIG    1       24.826 -30.017  13.492  0.00  0.00    +0.005 C 
ATOM      7  C   LIG    1       24.657 -27.474  12.924  0.00  0.00    +0.019 C 
ATOM      8  C   LIG    1       23.907 -26.231  13.375  0.00  0.00    -0.064 C 
ATOM      9  C   LIG    1       24.493 -25.141  13.900  0.00  0.00    +0.026 C 
ATOM     10  C   LIG    1       25.959 -25.128  14.170  0.00  0.00    +0.080 C 
ATOM     11  C   LIG    1       26.669 -26.467  14.114  0.00  0.00    +0.059 C 
ATOM     12  N   LIG    1       26.667 -24.089  14.495  0.00  0.00    -0.092 NA
ATOM     13  C   LIG    1       22.411 -26.330  13.250  0.00  0.00    +0.031 C 
ATOM     14  C   LIG    1       26.179 -27.248  12.906  0.00  0.00    +0.014 C 
ATOM     15  C   LIG    1       21.908 -27.541  14.045  0.00  0.00    +0.008 C 
ATOM     16  C   LIG    1       20.787 -30.087  12.477  0.00  0.00    +0.008 C 
ATOM     17  C   LIG    1       24.574 -30.470  12.063  0.00  0.00    +0.011 C 
ATOM     18  C   LIG    1       20.879 -31.488  11.881  0.00  0.00    +0.049 C 
ENDROOT
BRANCH   1  20
ATOM     19  C   LIG    1       22.929 -33.731  10.082  0.00  0.00    +0.007 C 
ATOM     20  C   LIG    1       22.678 -32.872  10.884  0.00  0.00    -0.070 C 
ENDBRANCH   1  20
BRANCH   1  21
ATOM     21  O   LIG    1       22.728 -32.326  13.152  0.00  0.00    -0.376 OA
ATOM     22  H   LIG    1       22.095 -33.019  13.397  0.00  0.00    +0.211 HD
ENDBRANCH   1  21
BRANCH  12  23
ATOM     23  O   LIG    1       25.900 -22.918  14.520  0.00  0.00    -0.409 OA
ATOM     24  H   LIG    1       25.540 -22.926  15.426  0.00  0.00    +0.328 HD
ENDBRANCH  12  23
BRANCH   2  25
ATOM     25  C   LIG    1       23.168 -30.075  10.052  0.00  0.00    +0.007 C 
ATOM     26  C   LIG    1       24.518 -30.057   9.349  0.00  0.00    +0.004 C 
ENDBRANCH   2  25
TORSDOF 4
ENDMDL
MODEL 3
REMARK VINA RESULT:      -5.3      1.635      2.188
REMARK  Name = *****
REMARK                            x       y       z     vdW  Elec       q    Type
REMARK                         _______ _______ _______ _____ _____    ______ ____
ROOT
ATOM      1  C   LIG    1       25.867 -32.008   8.869  0.00  0.00    +0.132 C 
ATOM      2  C   LIG    1       25.694 -30.510   9.285  0.00  0.00    +0.014 C 
ATOM      3  C   LIG    1       24.527 -30.562  10.332  0.00  0.00    +0.002 C 
ATOM      4  C   LIG    1       24.883 -30.469  11.844  0.00  0.00    -0.003 C 
ATOM      5  C   LIG    1       26.075 -29.532  12.145  0.00  0.00    -0.000 C 
ATOM      6  C   LIG    1       27.265 -30.027  11.323  0.00  0.00    +0.005 C 
ATOM      7  C   LIG    1       25.685 -28.041  11.940  0.00  0.00    +0.019 C 
ATOM      8  C   LIG    1       24.494 -27.739  12.835  0.00  0.00    -0.064 C 
ATOM      9  C   LIG    1       24.508 -26.844  13.838  0.00  0.00    +0.026 C 
ATOM     10  C   LIG    1       25.769 -26.139  14.205  0.00  0.00    +0.080 C 
ATOM     11  C   LIG    1       27.050 -26.697  13.615  0.00  0.00    +0.059 C 
ATOM     12  N   LIG    1       25.873 -25.131  15.017  0.00  0.00    -0.092 NA
ATOM     13  C   LIG    1       23.280 -28.583  12.557  0.00  0.00    +0.031 C 
ATOM     14  C   LIG    1       26.828 -27.032  12.150  0.00  0.00    +0.014 C 
ATOM     15  C   LIG    1       23.645 -30.066  12.683  0.00  0.00    +0.008 C 
ATOM     16  C   LIG    1       23.756 -31.880  10.056  0.00  0.00    +0.008 C 
ATOM     17  C   LIG    1       27.026 -29.901   9.827  0.00  0.00    +0.011 C 
ATOM     18  C   LIG    1       24.456 -32.597   8.908  0.00  0.00    +0.049 C 
ENDROOT
BRANCH   1  20
ATOM     19  C   LIG    1       26.998 -32.351   6.470  0.00  0.00    +0.007 C 
ATOM     20  C   LIG    1       26.491 -32.198   7.548  0.00  0.00    -0.070 C 
ENDBRANCH   1  20
BRANCH   1  21
ATOM     21  O   LIG    1       26.668 -32.715   9.816  0.00  0.00    -0.376 OA
ATOM     22  H   LIG    1       27.260 -33.314   9.337  0.00  0.00    +0.211 HD
ENDBRANCH   1  21
BRANCH  12  23
ATOM     23  O   LIG    1       24.627 -24.715  15.499  0.00  0.00    -0.409 OA
ATOM     24  H   LIG    1       24.096 -25.530  15.430  0.00  0.00    +0.328 HD
ENDBRANCH  12  23
BRANCH   2  25
ATOM     25  C   LIG    1       25.276 -29.556   8.097  0.00  0.00    +0.007 C 
ATOM     26  C   LIG    1       25.930 -28.187   7.962  0.00  0.00    +0.004 C 
ENDBRANCH   2  25
TORSDOF 4
ENDMDL
MODEL 4
REMARK VINA RESULT:      -5.3      3.101      4.493
REMARK  Name = *****
REMARK                            x       y       z     vdW  Elec       q    Type
REMARK                         _______ _______ _______ _____ _____    ______ ____
ROOT
ATOM      1  C   LIG    1       24.649 -32.962   6.457  0.00  0.00    +0.132 C 
ATOM      2  C   LIG    1       24.673 -31.543   7.114  0.00  0.00    +0.014 C 
ATOM      3  C   LIG    1       23.792 -31.728   8.399  0.00  0.00    +0.002 C 
ATOM      4  C   LIG    1       24.507 -31.878   9.773  0.00  0.00    -0.003 C 
ATOM      5  C   LIG    1       25.791 -31.027   9.900  0.00  0.00    -0.000 C 
ATOM      6  C   LIG    1       26.716 -31.417   8.747  0.00  0.00    +0.005 C 
ATOM      7  C   LIG    1       25.455 -29.513  10.015  0.00  0.00    +0.019 C 
ATOM      8  C   LIG    1       24.536 -29.325  11.211  0.00  0.00    -0.064 C 
ATOM      9  C   LIG    1       24.845 -28.596  12.297  0.00  0.00    +0.026 C 
ATOM     10  C   LIG    1       26.199 -27.987  12.438  0.00  0.00    +0.080 C 
ATOM     11  C   LIG    1       27.263 -28.476  11.476  0.00  0.00    +0.059 C 
ATOM     12  N   LIG    1       26.557 -27.119  13.335  0.00  0.00    -0.092 NA
ATOM     13  C   LIG    1       23.241 -30.087  11.124  0.00  0.00    +0.031 C 
ATOM     14  C   LIG    1       26.674 -28.576  10.078  0.00  0.00    +0.014 C 
ATOM     15  C   LIG    1       23.535 -31.581  10.941  0.00  0.00    +0.008 C 
ATOM     16  C   LIG    1       22.899 -32.969   8.136  0.00  0.00    +0.008 C 
ATOM     17  C   LIG    1       26.131 -31.056   7.391  0.00  0.00    +0.011 C 
ATOM     18  C   LIG    1       23.256 -33.517   6.759  0.00  0.00    +0.049 C 
ENDROOT
BRANCH   1  20
ATOM     19  C   LIG    1       25.149 -32.961   3.830  0.00  0.00    +0.007 C 
ATOM     20  C   LIG    1       24.923 -32.961   5.010  0.00  0.00    -0.070 C 
ENDBRANCH   1  20
BRANCH   1  21
ATOM     21  O   LIG    1       25.611 -33.825   7.065  0.00  0.00    -0.376 OA
ATOM     22  H   LIG    1       25.405 -33.903   8.009  0.00  0.00    +0.211 HD
ENDBRANCH   1  21
BRANCH  12  23
ATOM     23  O   LIG    1       25.491 -26.753  14.166  0.00  0.00    -0.409 OA
ATOM     24  H   LIG    1       24.765 -27.307  13.825  0.00  0.00    +0.328 HD
ENDBRANCH  12  23
BRANCH   2  25
ATOM     25  C   LIG    1       24.039 -30.407   6.217  0.00  0.00    +0.007 C 
ATOM     26  C   LIG    1       24.399 -28.950   6.477  0.00  0.00    +0.004 C 
ENDBRANCH   2  25
TORSDOF 4
ENDMDL
MODEL 5
REMARK VINA RESULT:      -5.3      3.244      5.237
REMARK  Name = *****
REMARK                            x       y       z     vdW  Elec       q    Type
REMARK                         _______ _______ _______ _____ _____    ______ ____
ROOT
ATOM      1  C   LIG    1       20.676 -28.399  14.093  0.00  0.00    +0.132 C 
ATOM      2  C   LIG    1       21.954 -28.996  13.416  0.00  0.00    +0.014 C 
ATOM      3  C   LIG    1       22.861 -27.736  13.191  0.00  0.00    +0.002 C 
ATOM      4  C   LIG    1       24.047 -27.493  14.169  0.00  0.00    -0.003 C 
ATOM      5  C   LIG    1       24.731 -28.793  14.650  0.00  0.00    -0.000 C 
ATOM      6  C   LIG    1       23.653 -29.668  15.291  0.00  0.00    +0.005 C 
ATOM      7  C   LIG    1       25.549 -29.457  13.507  0.00  0.00    +0.019 C 
ATOM      8  C   LIG    1       26.563 -28.443  13.004  0.00  0.00    -0.064 C 
ATOM      9  C   LIG    1       27.895 -28.607  13.069  0.00  0.00    +0.026 C 
ATOM     10  C   LIG    1       28.477 -29.797  13.754  0.00  0.00    +0.080 C 
ATOM     11  C   LIG    1       27.529 -30.615  14.608  0.00  0.00    +0.059 C 
ATOM     12  N   LIG    1       29.723 -30.163  13.723  0.00  0.00    -0.092 NA
ATOM     13  C   LIG    1       25.957 -27.173  12.471  0.00  0.00    +0.031 C 
ATOM     14  C   LIG    1       26.213 -30.797  13.871  0.00  0.00    +0.014 C 
ATOM     15  C   LIG    1       25.086 -26.524  13.552  0.00  0.00    +0.008 C 
ATOM     16  C   LIG    1       21.911 -26.510  13.206  0.00  0.00    +0.008 C 
ATOM     17  C   LIG    1       22.603 -30.117  14.288  0.00  0.00    +0.011 C 
ATOM     18  C   LIG    1       20.497 -27.019  13.458  0.00  0.00    +0.049 C 
ENDROOT
BRANCH   1  20
ATOM     19  C   LIG    1       18.479 -29.895  13.800  0.00  0.00    +0.007 C 
ATOM     20  C   LIG    1       19.467 -29.225  13.932  0.00  0.00    -0.070 C 
ENDBRANCH   1  20
BRANCH   1  21
ATOM     21  O   LIG    1       20.876 -28.219  15.496  0.00  0.00    -0.376 OA
ATOM     22  H   LIG    1       21.512 -27.499  15.628  0.00  0.00    +0.211 HD
ENDBRANCH   1  21
BRANCH  12  23
ATOM     23  O   LIG    1       30.496 -29.327  12.909  0.00  0.00    -0.409 OA
ATOM     24  H   LIG    1       30.163 -29.542  12.018  0.00  0.00    +0.328 HD
ENDBRANCH  12  23
BRANCH   2  25
ATOM     25  C   LIG    1       21.679 -29.687  12.022  0.00  0.00    +0.007 C 
ATOM     26  C   LIG    1       22.851 -30.125  11.153  0.00  0.00    +0.004 C 
ENDBRANCH   2  25
TORSDOF 4
ENDMDL
MODEL 6
REMARK VINA RESULT:      -5.0      3.438      6.075
REMARK  Name = *****
REMARK                            x       y       z     vdW  Elec       q    Type
REMARK                         _______ _______ _______ _____ _____    ______ ____
ROOT
ATOM      1  C   LIG    1       27.545 -28.229  14.108  0.00  0.00    +0.132 C 
ATOM      2  C   LIG    1       26.322 -29.197  13.983  0.00  0.00    +0.014 C 
ATOM      3  C   LIG    1       25.090 -28.241  14.161  0.00  0.00    +0.002 C 
ATOM      4  C   LIG    1       24.298 -27.809  12.893  0.00  0.00    -0.003 C 
ATOM      5  C   LIG    1       24.200 -28.914  11.817  0.00  0.00    -0.000 C 
ATOM      6  C   LIG    1       25.626 -29.338  11.463  0.00  0.00    +0.005 C 
ATOM      7  C   LIG    1       23.247 -30.057  12.266  0.00  0.00    +0.019 C 
ATOM      8  C   LIG    1       21.888 -29.445  12.569  0.00  0.00    -0.064 C 
ATOM      9  C   LIG    1       20.758 -29.746  11.907  0.00  0.00    +0.026 C 
ATOM     10  C   LIG    1       20.792 -30.660  10.730  0.00  0.00    +0.080 C 
ATOM     11  C   LIG    1       22.160 -30.970  10.154  0.00  0.00    +0.059 C 
ATOM     12  N   LIG    1       19.760 -31.171  10.129  0.00  0.00    -0.092 NA
ATOM     13  C   LIG    1       21.907 -28.397  13.649  0.00  0.00    +0.031 C 
ATOM     14  C   LIG    1       23.136 -31.239  11.287  0.00  0.00    +0.014 C 
ATOM     15  C   LIG    1       22.891 -27.285  13.269  0.00  0.00    +0.008 C 
ATOM     16  C   LIG    1       25.620 -26.985  14.901  0.00  0.00    +0.008 C 
ATOM     17  C   LIG    1       26.342 -29.987  12.636  0.00  0.00    +0.011 C 
ATOM     18  C   LIG    1       27.115 -27.174  15.128  0.00  0.00    +0.049 C 
ENDROOT
BRANCH   1  20
ATOM     19  C   LIG    1       29.818 -29.430  14.843  0.00  0.00    +0.007 C 
ATOM     20  C   LIG    1       28.797 -28.889  14.514  0.00  0.00    -0.070 C 
ENDBRANCH   1  20
BRANCH   1  21
ATOM     21  O   LIG    1       27.803 -27.567  12.869  0.00  0.00    -0.376 OA
ATOM     22  H   LIG    1       26.959 -27.415  12.416  0.00  0.00    +0.211 HD
ENDBRANCH   1  21
BRANCH  12  23
ATOM     23  O   LIG    1       18.558 -30.807  10.748  0.00  0.00    -0.409 OA
ATOM     24  H   LIG    1       18.609 -29.834  10.741  0.00  0.00    +0.328 HD
ENDBRANCH  12  23
BRANCH   2  25
ATOM     25  C   LIG    1       26.271 -30.314  15.099  0.00  0.00    +0.007 C 
ATOM     26  C   LIG    1       24.996 -31.124  15.297  0.00  0.00    +0.004 C 
ENDBRANCH   2  25
TORSDOF 4
ENDMDL
MODEL 7
REMARK VINA RESULT:      -4.9      3.372      5.078
REMARK  Name = *****
REMARK                            x       y       z     vdW  Elec       q    Type
REMARK                         _______ _______ _______ _____ _____    ______ ____
ROOT
ATOM      1  C   LIG    1       25.216 -32.865   5.875  0.00  0.00    +0.132 C 
ATOM      2  C   LIG    1       25.043 -31.556   6.715  0.00  0.00    +0.014 C 
ATOM      3  C   LIG    1       23.865 -31.909   7.689  0.00  0.00    +0.002 C 
ATOM      4  C   LIG    1       24.206 -32.269   9.164  0.00  0.00    -0.003 C 
ATOM      5  C   LIG    1       25.397 -31.469   9.739  0.00  0.00    -0.000 C 
ATOM      6  C   LIG    1       26.594 -31.705   8.818  0.00  0.00    +0.005 C 
ATOM      7  C   LIG    1       25.013 -29.982   9.981  0.00  0.00    +0.019 C 
ATOM      8  C   LIG    1       23.813 -29.952  10.914  0.00  0.00    -0.064 C 
ATOM      9  C   LIG    1       23.819 -29.394  12.137  0.00  0.00    +0.026 C 
ATOM     10  C   LIG    1       25.079 -28.836  12.707  0.00  0.00    +0.080 C 
ATOM     11  C   LIG    1       26.364 -29.201  11.991  0.00  0.00    +0.059 C 
ATOM     12  N   LIG    1       25.177 -28.113  13.782  0.00  0.00    -0.092 NA
ATOM     13  C   LIG    1       22.600 -30.670  10.388  0.00  0.00    +0.031 C 
ATOM     14  C   LIG    1       26.157 -29.087  10.490  0.00  0.00    +0.014 C 
ATOM     15  C   LIG    1       22.960 -32.126  10.073  0.00  0.00    +0.008 C 
ATOM     16  C   LIG    1       23.094 -33.083   7.029  0.00  0.00    +0.008 C 
ATOM     17  C   LIG    1       26.371 -31.142   7.424  0.00  0.00    +0.011 C 
ATOM     18  C   LIG    1       23.804 -33.432   5.726  0.00  0.00    +0.049 C 
ENDROOT
BRANCH   1  20
ATOM     19  C   LIG    1       26.370 -32.493   3.492  0.00  0.00    +0.007 C 
ATOM     20  C   LIG    1       25.853 -32.660   4.563  0.00  0.00    -0.070 C 
ENDBRANCH   1  20
BRANCH   1  21
ATOM     21  O   LIG    1       26.006 -33.825   6.579  0.00  0.00    -0.376 OA
ATOM     22  H   LIG    1       26.204 -34.562   5.982  0.00  0.00    +0.211 HD
ENDBRANCH   1  21
BRANCH  12  23
ATOM     23  O   LIG    1       23.926 -27.851  14.354  0.00  0.00    -0.409 OA
ATOM     24  H   LIG    1       23.326 -28.365  13.782  0.00  0.00    +0.328 HD
ENDBRANCH  12  23
BRANCH   2  25
ATOM     25  C   LIG    1       24.639 -30.292   5.858  0.00  0.00    +0.007 C 
ATOM     26  C   LIG    1       24.742 -28.901   6.471  0.00  0.00    +0.004 C 
ENDBRANCH   2  25
TORSDOF 4
ENDMDL
MODEL 8
REMARK VINA RESULT:      -4.8      8.372     10.249
REMARK  Name = *****
REMARK                            x       y       z     vdW  Elec       q    Type
REMARK                         _______ _______ _______ _____ _____    ______ ____
ROOT
ATOM      1  C   LIG    1       23.703 -22.133   6.283  0.00  0.00    +0.132 C 
ATOM      2  C   LIG    1       25.252 -22.273   6.453  0.00  0.00    +0.014 C 
ATOM      3  C   LIG    1       25.817 -21.147   5.518  0.00  0.00    +0.002 C 
ATOM      4  C   LIG    1       26.322 -19.827   6.170  0.00  0.00    -0.003 C 
ATOM      5  C   LIG    1       27.007 -20.033   7.539  0.00  0.00    -0.000 C 
ATOM      6  C   LIG    1       26.011 -20.755   8.446  0.00  0.00    +0.005 C 
ATOM      7  C   LIG    1       28.394 -20.718   7.378  0.00  0.00    +0.019 C 
ATOM      8  C   LIG    1       29.238 -19.859   6.452  0.00  0.00    -0.064 C 
ATOM      9  C   LIG    1       30.387 -19.260   6.811  0.00  0.00    +0.026 C 
ATOM     10  C   LIG    1       30.866 -19.328   8.222  0.00  0.00    +0.080 C 
ATOM     11  C   LIG    1       29.868 -19.824   9.250  0.00  0.00    +0.059 C 
ATOM     12  N   LIG    1       32.034 -18.958   8.651  0.00  0.00    -0.092 NA
ATOM     13  C   LIG    1       28.650 -19.663   5.081  0.00  0.00    +0.031 C 
ATOM     14  C   LIG    1       29.126 -21.029   8.696  0.00  0.00    +0.014 C 
ATOM     15  C   LIG    1       27.251 -19.050   5.204  0.00  0.00    +0.008 C 
ATOM     16  C   LIG    1       24.695 -20.830   4.495  0.00  0.00    +0.008 C 
ATOM     17  C   LIG    1       25.685 -22.154   7.949  0.00  0.00    +0.011 C 
ATOM     18  C   LIG    1       23.498 -21.714   4.827  0.00  0.00    +0.049 C 
ENDROOT
BRANCH   1  20
ATOM     19  C   LIG    1       22.336 -24.359   6.855  0.00  0.00    +0.007 C 
ATOM     20  C   LIG    1       22.949 -23.359   6.599  0.00  0.00    -0.070 C 
ENDBRANCH   1  20
BRANCH   1  21
ATOM     21  O   LIG    1       23.187 -21.097   7.119  0.00  0.00    -0.376 OA
ATOM     22  H   LIG    1       23.695 -20.287   6.959  0.00  0.00    +0.211 HD
ENDBRANCH   1  21
BRANCH  12  23
ATOM     23  O   LIG    1       32.859 -18.515   7.611  0.00  0.00    -0.409 OA
ATOM     24  H   LIG    1       33.156 -19.353   7.212  0.00  0.00    +0.328 HD
ENDBRANCH  12  23
BRANCH   2  25
ATOM     25  C   LIG    1       25.827 -23.667   5.983  0.00  0.00    +0.007 C 
ATOM     26  C   LIG    1       25.895 -24.826   6.969  0.00  0.00    +0.004 C 
ENDBRANCH   2  25
TORSDOF 4
ENDMDL
MODEL 9
REMARK VINA RESULT:      -4.7      3.761      5.985
REMARK  Name = *****
REMARK                            x       y       z     vdW  Elec       q    Type
REMARK                         _______ _______ _______ _____ _____    ______ ____
ROOT
ATOM      1  C   LIG    1       26.449 -28.213  12.749  0.00  0.00    +0.132 C 
ATOM      2  C   LIG    1       25.243 -28.754  13.586  0.00  0.00    +0.014 C 
ATOM      3  C   LIG    1       24.336 -27.486  13.766  0.00  0.00    +0.002 C 
ATOM      4  C   LIG    1       23.069 -27.349  12.873  0.00  0.00    -0.003 C 
ATOM      5  C   LIG    1       22.369 -28.696  12.578  0.00  0.00    -0.000 C 
ATOM      6  C   LIG    1       23.405 -29.619  11.935  0.00  0.00    +0.005 C 
ATOM      7  C   LIG    1       21.661 -29.253  13.845  0.00  0.00    +0.019 C 
ATOM      8  C   LIG    1       20.675 -28.204  14.333  0.00  0.00    -0.064 C 
ATOM      9  C   LIG    1       19.345 -28.386  14.397  0.00  0.00    +0.026 C 
ATOM     10  C   LIG    1       18.729 -29.642  13.881  0.00  0.00    +0.080 C 
ATOM     11  C   LIG    1       19.616 -30.530  13.032  0.00  0.00    +0.059 C 
ATOM     12  N   LIG    1       17.496 -30.014  14.053  0.00  0.00    -0.092 NA
ATOM     13  C   LIG    1       21.302 -26.883  14.689  0.00  0.00    +0.031 C 
ATOM     14  C   LIG    1       20.992 -30.628  13.668  0.00  0.00    +0.014 C 
ATOM     15  C   LIG    1       22.068 -26.335  13.480  0.00  0.00    +0.008 C 
ATOM     16  C   LIG    1       25.260 -26.258  13.553  0.00  0.00    +0.008 C 
ATOM     17  C   LIG    1       24.543 -29.959  12.883  0.00  0.00    +0.011 C 
ATOM     18  C   LIG    1       26.657 -26.777  13.231  0.00  0.00    +0.049 C 
ENDROOT
BRANCH   1  20
ATOM     19  C   LIG    1       28.688 -29.654  12.996  0.00  0.00    +0.007 C 
ATOM     20  C   LIG    1       27.681 -29.009  12.885  0.00  0.00    -0.070 C 
ENDBRANCH   1  20
BRANCH   1  21
ATOM     21  O   LIG    1       26.129 -28.171  11.358  0.00  0.00    -0.376 OA
ATOM     22  H   LIG    1       26.175 -27.251  11.056  0.00  0.00    +0.211 HD
ENDBRANCH   1  21
BRANCH  12  23
ATOM     23  O   LIG    1       16.780 -29.110  14.846  0.00  0.00    -0.409 OA
ATOM     24  H   LIG    1       16.046 -29.661  15.175  0.00  0.00    +0.328 HD
ENDBRANCH  12  23
BRANCH   2  25
ATOM     25  C   LIG    1       25.645 -29.303  15.012  0.00  0.00    +0.007 C 
ATOM     26  C   LIG    1       25.072 -30.627  15.499  0.00  0.00    +0.004 C 
ENDBRANCH   2  25
TORSDOF 4
ENDMDL
