MODEL 1
REMARK VINA RESULT:      -1.0      0.000      0.000
REMARK  Name = *****
REMARK                            x       y       z     vdW  Elec       q    Type
REMARK                         _______ _______ _______ _____ _____    ______ ____
ROOT
ATOM      1  N   LIG    1       27.284 -16.412   4.288  0.00  0.00    -0.084 NA
ATOM      2  C   LIG    1       26.097 -16.359   3.751  0.00  0.00    +0.118 A 
ATOM      3  C   LIG    1       25.610 -15.048   3.258  0.00  0.00    +0.011 A 
ATOM      4  C   LIG    1       24.422 -14.486   3.747  0.00  0.00    -0.016 A 
ATOM      5  C   LIG    1       24.041 -13.221   3.278  0.00  0.00    +0.008 A 
ATOM      6  C   LIG    1       24.800 -12.559   2.309  0.00  0.00    +0.001 A 
ATOM      7  C   LIG    1       25.965 -13.141   1.812  0.00  0.00    +0.001 A 
ATOM      8  C   LIG    1       23.581 -15.129   4.767  0.00  0.00    +0.009 A 
ATOM      9  C   LIG    1       23.328 -16.440   4.865  0.00  0.00    +0.009 A 
ATOM     10  C   LIG    1       23.868 -17.502   4.002  0.00  0.00    -0.016 A 
ATOM     11  C   LIG    1       23.045 -18.599   3.706  0.00  0.00    +0.008 A 
ATOM     12  C   LIG    1       23.527 -19.677   2.956  0.00  0.00    +0.001 A 
ATOM     13  C   LIG    1       24.843 -19.681   2.503  0.00  0.00    +0.001 A 
ATOM     14  C   LIG    1       25.673 -18.599   2.785  0.00  0.00    +0.010 A 
ATOM     15  C   LIG    1       26.381 -14.380   2.296  0.00  0.00    +0.010 A 
ATOM     16  C   LIG    1       25.189 -17.515   3.534  0.00  0.00    +0.011 A 
ENDROOT
BRANCH   1  17
ATOM     17  O   LIG    1       27.574 -17.688   4.797  0.00  0.00    -0.392 OA
BRANCH  17  18
ATOM     18  C   LIG    1       28.974 -17.784   5.071  0.00  0.00    +0.277 C 
BRANCH  18  19
ATOM     19  C   LIG    1       29.268 -19.073   5.852  0.00  0.00    +0.124 C 
BRANCH  19  21
ATOM     20  C   LIG    1       27.542 -20.483   6.781  0.00  0.00    +0.101 C 
ATOM     21  N   LIG    1       28.300 -20.150   5.581  0.00  0.00    -0.316 NA
ATOM     22  H   LIG    1       27.660 -19.821   4.854  0.00  0.00    +0.122 HD
ENDBRANCH  19  21
ENDBRANCH  18  19
ENDBRANCH  17  18
ENDBRANCH   1  17
TORSDOF 4
ENDMDL
MODEL 2
REMARK VINA RESULT:      -0.8      2.387      4.377
REMARK  Name = *****
REMARK                            x       y       z     vdW  Elec       q    Type
REMARK                         _______ _______ _______ _____ _____    ______ ____
ROOT
ATOM      1  N   LIG    1       24.112 -19.286   3.027  0.00  0.00    -0.084 NA
ATOM      2  C   LIG    1       24.832 -18.527   3.805  0.00  0.00    +0.118 A 
ATOM      3  C   LIG    1       24.383 -17.132   4.031  0.00  0.00    +0.011 A 
ATOM      4  C   LIG    1       25.213 -16.045   3.716  0.00  0.00    -0.016 A 
ATOM      5  C   LIG    1       24.711 -14.749   3.907  0.00  0.00    +0.008 A 
ATOM      6  C   LIG    1       23.437 -14.546   4.444  0.00  0.00    +0.001 A 
ATOM      7  C   LIG    1       22.635 -15.636   4.777  0.00  0.00    +0.001 A 
ATOM      8  C   LIG    1       26.560 -16.190   3.147  0.00  0.00    +0.009 A 
ATOM      9  C   LIG    1       27.452 -17.133   3.471  0.00  0.00    +0.009 A 
ATOM     10  C   LIG    1       27.254 -18.234   4.427  0.00  0.00    -0.016 A 
ATOM     11  C   LIG    1       28.349 -18.647   5.200  0.00  0.00    +0.008 A 
ATOM     12  C   LIG    1       28.245 -19.736   6.070  0.00  0.00    +0.001 A 
ATOM     13  C   LIG    1       27.048 -20.440   6.169  0.00  0.00    +0.001 A 
ATOM     14  C   LIG    1       25.950 -20.044   5.410  0.00  0.00    +0.010 A 
ATOM     15  C   LIG    1       23.100 -16.931   4.557  0.00  0.00    +0.010 A 
ATOM     16  C   LIG    1       26.052 -18.947   4.541  0.00  0.00    +0.011 A 
ENDROOT
BRANCH   1  17
ATOM     17  O   LIG    1       24.704 -20.543   2.825  0.00  0.00    -0.392 OA
BRANCH  17  18
ATOM     18  C   LIG    1       23.908 -21.551   3.453  0.00  0.00    +0.277 C 
BRANCH  18  19
ATOM     19  C   LIG    1       22.776 -20.896   4.260  0.00  0.00    +0.124 C 
BRANCH  19  21
ATOM     20  C   LIG    1       23.092 -20.823   6.652  0.00  0.00    +0.101 C 
ATOM     21  N   LIG    1       22.512 -21.570   5.543  0.00  0.00    -0.316 NA
ATOM     22  H   LIG    1       21.499 -21.630   5.664  0.00  0.00    +0.122 HD
ENDBRANCH  19  21
ENDBRANCH  18  19
ENDBRANCH  17  18
ENDBRANCH   1  17
TORSDOF 4
ENDMDL
MODEL 3
REMARK VINA RESULT:      -0.2      1.948      5.143
REMARK  Name = *****
REMARK                            x       y       z     vdW  Elec       q    Type
REMARK                         _______ _______ _______ _____ _____    ______ ____
ROOT
ATOM      1  N   LIG    1       26.687 -15.775   2.638  0.00  0.00    -0.084 NA
ATOM      2  C   LIG    1       26.106 -16.531   3.526  0.00  0.00    +0.118 A 
ATOM      3  C   LIG    1       26.919 -17.577   4.193  0.00  0.00    +0.011 A 
ATOM      4  C   LIG    1       26.554 -18.930   4.127  0.00  0.00    -0.016 A 
ATOM      5  C   LIG    1       27.391 -19.875   4.737  0.00  0.00    +0.008 A 
ATOM      6  C   LIG    1       28.533 -19.475   5.436  0.00  0.00    +0.001 A 
ATOM      7  C   LIG    1       28.868 -18.125   5.516  0.00  0.00    +0.001 A 
ATOM      8  C   LIG    1       25.368 -19.416   3.406  0.00  0.00    +0.009 A 
ATOM      9  C   LIG    1       24.179 -18.806   3.350  0.00  0.00    +0.009 A 
ATOM     10  C   LIG    1       23.828 -17.513   3.958  0.00  0.00    -0.016 A 
ATOM     11  C   LIG    1       22.529 -17.347   4.462  0.00  0.00    +0.008 A 
ATOM     12  C   LIG    1       22.112 -16.118   4.983  0.00  0.00    +0.001 A 
ATOM     13  C   LIG    1       22.982 -15.031   4.993  0.00  0.00    +0.001 A 
ATOM     14  C   LIG    1       24.275 -15.178   4.498  0.00  0.00    +0.010 A 
ATOM     15  C   LIG    1       28.071 -17.174   4.882  0.00  0.00    +0.010 A 
ATOM     16  C   LIG    1       24.696 -16.413   3.981  0.00  0.00    +0.011 A 
ENDROOT
BRANCH   1  17
ATOM     17  O   LIG    1       25.780 -14.900   2.019  0.00  0.00    -0.392 OA
BRANCH  17  18
ATOM     18  C   LIG    1       26.261 -13.558   2.133  0.00  0.00    +0.277 C 
BRANCH  18  19
ATOM     19  C   LIG    1       26.991 -13.374   3.471  0.00  0.00    +0.124 C 
BRANCH  19  21
ATOM     20  C   LIG    1       29.026 -12.370   4.295  0.00  0.00    +0.101 C 
ATOM     21  N   LIG    1       28.455 -13.301   3.329  0.00  0.00    -0.316 NA
ATOM     22  H   LIG    1       28.834 -14.237   3.492  0.00  0.00    +0.122 HD
ENDBRANCH  19  21
ENDBRANCH  18  19
ENDBRANCH  17  18
ENDBRANCH   1  17
TORSDOF 4
ENDMDL
MODEL 4
REMARK VINA RESULT:       0.3      1.684      5.660
REMARK  Name = *****
REMARK                            x       y       z     vdW  Elec       q    Type
REMARK                         _______ _______ _______ _____ _____    ______ ____
ROOT
ATOM      1  N   LIG    1       26.566 -17.449   3.317  0.00  0.00    -0.084 NA
ATOM      2  C   LIG    1       25.617 -18.021   4.004  0.00  0.00    +0.118 A 
ATOM      3  C   LIG    1       25.955 -19.235   4.786  0.00  0.00    +0.011 A 
ATOM      4  C   LIG    1       25.287 -20.448   4.565  0.00  0.00    -0.016 A 
ATOM      5  C   LIG    1       25.687 -21.572   5.303  0.00  0.00    +0.008 A 
ATOM      6  C   LIG    1       26.692 -21.473   6.270  0.00  0.00    +0.001 A 
ATOM      7  C   LIG    1       27.328 -20.255   6.497  0.00  0.00    +0.001 A 
ATOM      8  C   LIG    1       24.225 -20.619   3.563  0.00  0.00    +0.009 A 
ATOM      9  C   LIG    1       23.278 -19.722   3.262  0.00  0.00    +0.009 A 
ATOM     10  C   LIG    1       23.131 -18.378   3.840  0.00  0.00    -0.016 A 
ATOM     11  C   LIG    1       21.834 -17.877   4.035  0.00  0.00    +0.008 A 
ATOM     12  C   LIG    1       21.629 -16.577   4.507  0.00  0.00    +0.001 A 
ATOM     13  C   LIG    1       22.717 -15.752   4.778  0.00  0.00    +0.001 A 
ATOM     14  C   LIG    1       24.011 -16.232   4.592  0.00  0.00    +0.010 A 
ATOM     15  C   LIG    1       26.972 -19.136   5.746  0.00  0.00    +0.010 A 
ATOM     16  C   LIG    1       24.217 -17.538   4.122  0.00  0.00    +0.011 A 
ENDROOT
BRANCH   1  17
ATOM     17  O   LIG    1       26.085 -16.375   2.551  0.00  0.00    -0.392 OA
BRANCH  17  18
ATOM     18  C   LIG    1       26.740 -15.170   2.957  0.00  0.00    +0.277 C 
BRANCH  18  19
ATOM     19  C   LIG    1       25.964 -13.951   2.436  0.00  0.00    +0.124 C 
BRANCH  19  21
ATOM     20  C   LIG    1       24.120 -12.589   3.194  0.00  0.00    +0.101 C 
ATOM     21  N   LIG    1       25.454 -13.084   3.512  0.00  0.00    -0.316 NA
ATOM     22  H   LIG    1       25.417 -13.638   4.371  0.00  0.00    +0.122 HD
ENDBRANCH  19  21
ENDBRANCH  18  19
ENDBRANCH  17  18
ENDBRANCH   1  17
TORSDOF 4
ENDMDL
MODEL 5
REMARK VINA RESULT:       0.9      3.161      5.383
REMARK  Name = *****
REMARK                            x       y       z     vdW  Elec       q    Type
REMARK                         _______ _______ _______ _____ _____    ______ ____
ROOT
ATOM      1  N   LIG    1       22.609 -19.157   3.404  0.00  0.00    -0.084 NA
ATOM      2  C   LIG    1       23.625 -18.755   4.115  0.00  0.00    +0.118 A 
ATOM      3  C   LIG    1       24.009 -17.325   4.038  0.00  0.00    +0.011 A 
ATOM      4  C   LIG    1       25.298 -16.942   3.636  0.00  0.00    -0.016 A 
ATOM      5  C   LIG    1       25.584 -15.573   3.536  0.00  0.00    +0.008 A 
ATOM      6  C   LIG    1       24.626 -14.614   3.878  0.00  0.00    +0.001 A 
ATOM      7  C   LIG    1       23.359 -15.010   4.301  0.00  0.00    +0.001 A 
ATOM      8  C   LIG    1       26.349 -17.899   3.261  0.00  0.00    +0.009 A 
ATOM      9  C   LIG    1       26.581 -19.079   3.848  0.00  0.00    +0.009 A 
ATOM     10  C   LIG    1       25.814 -19.674   4.953  0.00  0.00    -0.016 A 
ATOM     11  C   LIG    1       26.506 -20.433   5.909  0.00  0.00    +0.008 A 
ATOM     12  C   LIG    1       25.823 -21.087   6.939  0.00  0.00    +0.001 A 
ATOM     13  C   LIG    1       24.435 -21.005   7.020  0.00  0.00    +0.001 A 
ATOM     14  C   LIG    1       23.732 -20.255   6.081  0.00  0.00    +0.010 A 
ATOM     15  C   LIG    1       23.042 -16.365   4.368  0.00  0.00    +0.010 A 
ATOM     16  C   LIG    1       24.417 -19.594   5.050  0.00  0.00    +0.011 A 
ENDROOT
BRANCH   1  17
ATOM     17  O   LIG    1       22.420 -20.545   3.496  0.00  0.00    -0.392 OA
BRANCH  17  18
ATOM     18  C   LIG    1       21.155 -20.813   4.107  0.00  0.00    +0.277 C 
BRANCH  18  19
ATOM     19  C   LIG    1       20.358 -19.509   4.255  0.00  0.00    +0.124 C 
BRANCH  19  21
ATOM     20  C   LIG    1       19.504 -18.020   2.558  0.00  0.00    +0.101 C 
ATOM     21  N   LIG    1       19.350 -19.321   3.198  0.00  0.00    -0.316 NA
ATOM     22  H   LIG    1       19.482 -20.060   2.503  0.00  0.00    +0.122 HD
ENDBRANCH  19  21
ENDBRANCH  18  19
ENDBRANCH  17  18
ENDBRANCH   1  17
TORSDOF 4
ENDMDL
MODEL 6
REMARK VINA RESULT:       1.5      1.957      5.744
REMARK  Name = *****
REMARK                            x       y       z     vdW  Elec       q    Type
REMARK                         _______ _______ _______ _____ _____    ______ ____
ROOT
ATOM      1  N   LIG    1       25.873 -17.600   3.901  0.00  0.00    -0.084 NA
ATOM      2  C   LIG    1       25.978 -18.823   4.339  0.00  0.00    +0.118 A 
ATOM      3  C   LIG    1       24.928 -19.796   3.955  0.00  0.00    +0.011 A 
ATOM      4  C   LIG    1       24.178 -20.474   4.928  0.00  0.00    -0.016 A 
ATOM      5  C   LIG    1       23.165 -21.344   4.501  0.00  0.00    +0.008 A 
ATOM      6  C   LIG    1       22.941 -21.569   3.139  0.00  0.00    +0.001 A 
ATOM      7  C   LIG    1       23.711 -20.908   2.184  0.00  0.00    +0.001 A 
ATOM      8  C   LIG    1       24.362 -20.281   6.374  0.00  0.00    +0.009 A 
ATOM      9  C   LIG    1       25.531 -20.102   7.000  0.00  0.00    +0.009 A 
ATOM     10  C   LIG    1       26.858 -20.023   6.370  0.00  0.00    -0.016 A 
ATOM     11  C   LIG    1       27.954 -20.561   7.061  0.00  0.00    +0.008 A 
ATOM     12  C   LIG    1       29.251 -20.449   6.551  0.00  0.00    +0.001 A 
ATOM     13  C   LIG    1       29.474 -19.781   5.349  0.00  0.00    +0.001 A 
ATOM     14  C   LIG    1       28.398 -19.242   4.649  0.00  0.00    +0.010 A 
ATOM     15  C   LIG    1       24.696 -20.009   2.589  0.00  0.00    +0.010 A 
ATOM     16  C   LIG    1       27.096 -19.359   5.158  0.00  0.00    +0.011 A 
ENDROOT
BRANCH   1  17
ATOM     17  O   LIG    1       26.878 -16.768   4.420  0.00  0.00    -0.392 OA
BRANCH  17  18
ATOM     18  C   LIG    1       27.191 -15.749   3.466  0.00  0.00    +0.277 C 
BRANCH  18  19
ATOM     19  C   LIG    1       26.588 -14.409   3.914  0.00  0.00    +0.124 C 
BRANCH  19  21
ATOM     20  C   LIG    1       24.569 -13.109   4.162  0.00  0.00    +0.101 C 
ATOM     21  N   LIG    1       25.124 -14.454   4.068  0.00  0.00    -0.316 NA
ATOM     22  H   LIG    1       24.736 -14.927   3.249  0.00  0.00    +0.122 HD
ENDBRANCH  19  21
ENDBRANCH  18  19
ENDBRANCH  17  18
ENDBRANCH   1  17
TORSDOF 4
ENDMDL
