MODEL 1
REMARK VINA RESULT:      -6.1      0.000      0.000
REMARK  Name = *****
REMARK                            x       y       z     vdW  Elec       q    Type
REMARK                         _______ _______ _______ _____ _____    ______ ____
ROOT
ATOM      1  C   LIG    1       24.934 -20.480   4.163  0.00  0.00    +0.084 C 
ATOM      2  N   LIG    1       25.680 -19.471   3.394  0.00  0.00    -0.339 N 
ATOM      3  H   LIG    1       26.679 -19.549   3.598  0.00  0.00    +0.146 HD
ATOM      4  C   LIG    1       25.251 -18.142   3.560  0.00  0.00    +0.037 A 
ATOM      5  C   LIG    1       23.954 -17.821   3.991  0.00  0.00    -0.026 A 
ATOM      6  C   LIG    1       23.584 -16.475   4.171  0.00  0.00    +0.018 A 
ATOM      7  C   LIG    1       24.460 -15.419   3.863  0.00  0.00    +0.055 A 
ATOM      8  C   LIG    1       25.722 -15.775   3.358  0.00  0.00    +0.280 A 
ATOM      9  C   LIG    1       22.970 -18.904   4.361  0.00  0.00    +0.039 C 
ATOM     10  C   LIG    1       26.112 -17.110   3.189  0.00  0.00    +0.107 A 
ATOM     11  C   LIG    1       23.435 -20.292   3.929  0.00  0.00    +0.028 C 
ENDROOT
BRANCH   8  12
ATOM     12  N   LIG    1       26.699 -14.767   2.988  0.00  0.00    +0.080 N 
ATOM     13  O   LIG    1       27.638 -14.572   3.767  0.00  0.00    -0.576 OA
ATOM     14  O   LIG    1       26.531 -14.188   1.904  0.00  0.00    +0.042 OA
ENDBRANCH   8  12
BRANCH   1  15
ATOM     15  C   LIG    1       25.329 -20.447   5.667  0.00  0.00    +0.103 C 
BRANCH  15  16
ATOM     16  N   LIG    1       26.557 -21.219   5.948  0.00  0.00    -0.312 NA
ATOM     17  H   LIG    1       26.328 -21.988   6.580  0.00  0.00    +0.122 HD
BRANCH  16  19
ATOM     18  C   LIG    1       28.726 -21.314   7.059  0.00  0.00    +0.024 C 
ATOM     19  C   LIG    1       27.611 -20.392   6.559  0.00  0.00    +0.048 C 
ATOM     20  C   LIG    1       28.201 -19.365   5.588  0.00  0.00    +0.024 C 
ENDBRANCH  16  19
ENDBRANCH  15  16
ENDBRANCH   1  15
BRANCH   7  21
ATOM     21  C   LIG    1       24.062 -13.996   4.167  0.00  0.00    +0.197 C 
BRANCH  21  22
ATOM     22  O   LIG    1       23.734 -13.291   2.974  0.00  0.00    -0.390 OA
ATOM     23  H   LIG    1       24.542 -12.822   2.702  0.00  0.00    +0.210 HD
ENDBRANCH  21  22
ENDBRANCH   7  21
TORSDOF 6
ENDMDL
MODEL 2
REMARK VINA RESULT:      -4.2      1.619      2.232
REMARK  Name = *****
REMARK                            x       y       z     vdW  Elec       q    Type
REMARK                         _______ _______ _______ _____ _____    ______ ____
ROOT
ATOM      1  C   LIG    1       25.262 -19.569   3.567  0.00  0.00    +0.084 C 
ATOM      2  N   LIG    1       26.084 -18.434   3.120  0.00  0.00    -0.339 N 
ATOM      3  H   LIG    1       27.044 -18.548   3.454  0.00  0.00    +0.146 HD
ATOM      4  C   LIG    1       25.597 -17.160   3.461  0.00  0.00    +0.037 A 
ATOM      5  C   LIG    1       24.242 -16.926   3.744  0.00  0.00    -0.026 A 
ATOM      6  C   LIG    1       23.811 -15.637   4.111  0.00  0.00    +0.018 A 
ATOM      7  C   LIG    1       24.692 -14.542   4.139  0.00  0.00    +0.055 A 
ATOM      8  C   LIG    1       26.025 -14.797   3.774  0.00  0.00    +0.280 A 
ATOM      9  C   LIG    1       23.245 -18.060   3.755  0.00  0.00    +0.039 C 
ATOM     10  C   LIG    1       26.473 -16.076   3.421  0.00  0.00    +0.107 A 
ATOM     11  C   LIG    1       23.809 -19.343   3.150  0.00  0.00    +0.028 C 
ENDROOT
BRANCH   8  12
ATOM     12  N   LIG    1       27.017 -13.737   3.747  0.00  0.00    +0.080 N 
ATOM     13  O   LIG    1       27.830 -13.696   4.676  0.00  0.00    -0.576 OA
ATOM     14  O   LIG    1       26.988 -12.960   2.781  0.00  0.00    +0.042 OA
ENDBRANCH   8  12
BRANCH   1  15
ATOM     15  C   LIG    1       25.429 -19.819   5.094  0.00  0.00    +0.103 C 
BRANCH  15  16
ATOM     16  N   LIG    1       25.163 -21.221   5.473  0.00  0.00    -0.312 NA
ATOM     17  H   LIG    1       25.132 -21.793   4.628  0.00  0.00    +0.122 HD
BRANCH  16  19
ATOM     18  C   LIG    1       23.671 -20.125   7.062  0.00  0.00    +0.024 C 
ATOM     19  C   LIG    1       23.892 -21.373   6.203  0.00  0.00    +0.048 C 
ATOM     20  C   LIG    1       22.690 -21.568   5.274  0.00  0.00    +0.024 C 
ENDBRANCH  16  19
ENDBRANCH  15  16
ENDBRANCH   1  15
BRANCH   7  21
ATOM     21  C   LIG    1       24.213 -13.201   4.638  0.00  0.00    +0.197 C 
BRANCH  21  22
ATOM     22  O   LIG    1       23.844 -12.355   3.553  0.00  0.00    -0.390 OA
ATOM     23  H   LIG    1       22.963 -12.648   3.264  0.00  0.00    +0.210 HD
ENDBRANCH  21  22
ENDBRANCH   7  21
TORSDOF 6
ENDMDL
MODEL 3
REMARK VINA RESULT:      -4.1      1.544      2.132
REMARK  Name = *****
REMARK                            x       y       z     vdW  Elec       q    Type
REMARK                         _______ _______ _______ _____ _____    ______ ____
ROOT
ATOM      1  C   LIG    1       23.019 -19.290   4.263  0.00  0.00    +0.084 C 
ATOM      2  N   LIG    1       24.095 -18.643   3.495  0.00  0.00    -0.339 N 
ATOM      3  H   LIG    1       24.982 -19.119   3.673  0.00  0.00    +0.146 HD
ATOM      4  C   LIG    1       24.236 -17.259   3.696  0.00  0.00    +0.037 A 
ATOM      5  C   LIG    1       23.182 -16.458   4.165  0.00  0.00    -0.026 A 
ATOM      6  C   LIG    1       23.385 -15.081   4.380  0.00  0.00    +0.018 A 
ATOM      7  C   LIG    1       24.605 -14.456   4.070  0.00  0.00    +0.055 A 
ATOM      8  C   LIG    1       25.611 -15.273   3.528  0.00  0.00    +0.280 A 
ATOM      9  C   LIG    1       21.853 -17.067   4.539  0.00  0.00    +0.039 C 
ATOM     10  C   LIG    1       25.432 -16.647   3.324  0.00  0.00    +0.107 A 
ATOM     11  C   LIG    1       21.717 -18.513   4.070  0.00  0.00    +0.028 C 
ENDROOT
BRANCH   8  12
ATOM     12  N   LIG    1       26.905 -14.730   3.152  0.00  0.00    +0.080 N 
ATOM     13  O   LIG    1       27.062 -14.403   1.971  0.00  0.00    -0.576 OA
ATOM     14  O   LIG    1       27.752 -14.615   4.050  0.00  0.00    +0.042 OA
ENDBRANCH   8  12
BRANCH   1  15
ATOM     15  C   LIG    1       23.417 -19.459   5.758  0.00  0.00    +0.103 C 
BRANCH  15  16
ATOM     16  N   LIG    1       23.429 -20.873   6.186  0.00  0.00    -0.312 NA
ATOM     17  H   LIG    1       23.016 -20.941   7.117  0.00  0.00    +0.122 HD
BRANCH  16  19
ATOM     18  C   LIG    1       25.316 -21.530   4.786  0.00  0.00    +0.024 C 
ATOM     19  C   LIG    1       24.790 -21.436   6.220  0.00  0.00    +0.048 C 
ATOM     20  C   LIG    1       25.760 -20.600   7.062  0.00  0.00    +0.024 C 
ENDBRANCH  16  19
ENDBRANCH  15  16
ENDBRANCH   1  15
BRANCH   7  21
ATOM     21  C   LIG    1       24.815 -13.001   4.411  0.00  0.00    +0.197 C 
BRANCH  21  22
ATOM     22  O   LIG    1       24.078 -12.159   3.530  0.00  0.00    -0.390 OA
ATOM     23  H   LIG    1       24.266 -11.244   3.803  0.00  0.00    +0.210 HD
ENDBRANCH  21  22
ENDBRANCH   7  21
TORSDOF 6
ENDMDL
