MODEL 1
REMARK VINA RESULT:      -6.8      0.000      0.000
REMARK  Name = *****
REMARK                            x       y       z     vdW  Elec       q    Type
REMARK                         _______ _______ _______ _____ _____    ______ ____
ROOT
ATOM      1  C   LIG    1       22.038 -31.945   9.877  0.00  0.00    +0.157 C 
ATOM      2  N   LIG    1       23.319 -31.218  10.027  0.00  0.00    -0.206 N 
ATOM      3  S   LIG    1       23.481 -30.453  11.543  0.00  0.00    +0.075 S 
ATOM      4  O   LIG    1       23.818 -31.486  12.512  0.00  0.00    -0.150 OA
ATOM      5  O   LIG    1       22.311 -29.624  11.735  0.00  0.00    -0.150 OA
ATOM      6  C   LIG    1       24.874 -29.326  11.498  0.00  0.00    +0.115 A 
ATOM      7  C   LIG    1       25.614 -28.983  10.341  0.00  0.00    +0.001 A 
ATOM      8  C   LIG    1       26.727 -28.133  10.519  0.00  0.00    +0.009 A 
ATOM      9  C   LIG    1       27.062 -27.615  11.776  0.00  0.00    +0.020 A 
ATOM     10  C   LIG    1       26.295 -27.937  12.888  0.00  0.00    +0.043 A 
ATOM     11 CL   LIG    1       26.693 -27.279  14.426  0.00  0.00    -0.084 Cl
ATOM     12  C   LIG    1       25.263 -29.553   8.963  0.00  0.00    +0.118 C 
ATOM     13  C   LIG    1       25.504 -31.056   8.989  0.00  0.00    -0.004 A 
ATOM     14  C   LIG    1       26.703 -31.650   8.559  0.00  0.00    +0.007 A 
ATOM     15  C   LIG    1       26.881 -33.029   8.641  0.00  0.00    +0.001 A 
ATOM     16  C   LIG    1       25.887 -33.825   9.203  0.00  0.00    +0.002 A 
ATOM     17  C   LIG    1       24.707 -33.246   9.670  0.00  0.00    +0.025 A 
ATOM     18  C   LIG    1       25.210 -28.792  12.759  0.00  0.00    +0.049 A 
ATOM     19  C   LIG    1       24.501 -31.872   9.535  0.00  0.00    +0.056 A 
ENDROOT
BRANCH  12  20
ATOM     20  N   LIG    1       25.904 -28.853   7.822  0.00  0.00    -0.306 NA
ATOM     21  H   LIG    1       26.823 -29.246   7.651  0.00  0.00    +0.123 HD
BRANCH  20  22
ATOM     22  C   LIG    1       25.092 -28.934   6.599  0.00  0.00    +0.082 C 
BRANCH  22  23
ATOM     23  C   LIG    1       24.724 -27.537   6.088  0.00  0.00    +0.015 C 
BRANCH  23  24
ATOM     24  C   LIG    1       25.645 -26.466   6.696  0.00  0.00    +0.001 C 
BRANCH  24  25
ATOM     25  C   LIG    1       25.580 -25.141   5.923  0.00  0.00    +0.001 C 
BRANCH  25  26
ATOM     26  C   LIG    1       25.050 -23.991   6.792  0.00  0.00    +0.011 C 
BRANCH  26  27
ATOM     27  C   LIG    1       26.165 -23.056   7.261  0.00  0.00    +0.120 C 
BRANCH  27  28
ATOM     28  C   LIG    1       25.645 -22.024   8.231  0.00  0.00    +0.305 C 
ATOM     29  O   LIG    1       26.274 -21.488   9.126  0.00  0.00    -0.251 OA
BRANCH  28  30
ATOM     30  O   LIG    1       24.347 -21.727   8.029  0.00  0.00    -0.481 OA
ATOM     31  H   LIG    1       24.336 -21.248   7.174  0.00  0.00    +0.295 HD
ENDBRANCH  28  30
ENDBRANCH  27  28
ENDBRANCH  26  27
ENDBRANCH  25  26
ENDBRANCH  24  25
ENDBRANCH  23  24
ENDBRANCH  22  23
ENDBRANCH  20  22
ENDBRANCH  12  20
TORSDOF 9
ENDMDL
MODEL 2
REMARK VINA RESULT:      -6.5      3.722      5.805
REMARK  Name = *****
REMARK                            x       y       z     vdW  Elec       q    Type
REMARK                         _______ _______ _______ _____ _____    ______ ____
ROOT
ATOM      1  C   LIG    1       24.757 -32.912   7.178  0.00  0.00    +0.157 C 
ATOM      2  N   LIG    1       24.917 -31.471   7.474  0.00  0.00    -0.206 N 
ATOM      3  S   LIG    1       24.703 -30.478   6.103  0.00  0.00    +0.075 S 
ATOM      4  O   LIG    1       23.271 -30.390   5.856  0.00  0.00    -0.150 OA
ATOM      5  O   LIG    1       25.593 -30.967   5.074  0.00  0.00    -0.150 OA
ATOM      6  C   LIG    1       25.257 -28.816   6.477  0.00  0.00    +0.115 A 
ATOM      7  C   LIG    1       25.933 -28.422   7.657  0.00  0.00    +0.001 A 
ATOM      8  C   LIG    1       26.225 -27.049   7.803  0.00  0.00    +0.009 A 
ATOM      9  C   LIG    1       25.899 -26.119   6.808  0.00  0.00    +0.020 A 
ATOM     10  C   LIG    1       25.270 -26.538   5.644  0.00  0.00    +0.043 A 
ATOM     11 CL   LIG    1       24.894 -25.399   4.412  0.00  0.00    -0.084 Cl
ATOM     12  C   LIG    1       26.285 -29.430   8.756  0.00  0.00    +0.118 C 
ATOM     13  C   LIG    1       24.989 -29.951   9.362  0.00  0.00    -0.004 A 
ATOM     14  C   LIG    1       24.404 -29.402  10.516  0.00  0.00    +0.007 A 
ATOM     15  C   LIG    1       23.197 -29.897  11.003  0.00  0.00    +0.001 A 
ATOM     16  C   LIG    1       22.532 -30.908  10.315  0.00  0.00    +0.002 A 
ATOM     17  C   LIG    1       23.081 -31.437   9.147  0.00  0.00    +0.025 A 
ATOM     18  C   LIG    1       24.942 -27.876   5.475  0.00  0.00    +0.049 A 
ATOM     19  C   LIG    1       24.320 -30.985   8.688  0.00  0.00    +0.056 A 
ENDROOT
BRANCH  12  20
ATOM     20  N   LIG    1       27.269 -28.940   9.753  0.00  0.00    -0.306 NA
ATOM     21  H   LIG    1       26.885 -28.145  10.254  0.00  0.00    +0.123 HD
BRANCH  20  22
ATOM     22  C   LIG    1       27.656 -29.990  10.707  0.00  0.00    +0.082 C 
BRANCH  22  23
ATOM     23  C   LIG    1       28.066 -29.385  12.055  0.00  0.00    +0.015 C 
BRANCH  23  24
ATOM     24  C   LIG    1       26.984 -29.627  13.121  0.00  0.00    +0.001 C 
BRANCH  24  25
ATOM     25  C   LIG    1       26.270 -28.329  13.524  0.00  0.00    +0.001 C 
BRANCH  25  26
ATOM     26  C   LIG    1       26.820 -27.109  12.771  0.00  0.00    +0.011 C 
BRANCH  26  27
ATOM     27  C   LIG    1       26.444 -25.790  13.448  0.00  0.00    +0.120 C 
BRANCH  27  28
ATOM     28  C   LIG    1       27.644 -25.142  14.094  0.00  0.00    +0.305 C 
ATOM     29  O   LIG    1       27.828 -23.949  14.249  0.00  0.00    -0.251 OA
BRANCH  28  30
ATOM     30  O   LIG    1       28.562 -26.040  14.504  0.00  0.00    -0.481 OA
ATOM     31  H   LIG    1       28.036 -26.751  14.926  0.00  0.00    +0.295 HD
ENDBRANCH  28  30
ENDBRANCH  27  28
ENDBRANCH  26  27
ENDBRANCH  25  26
ENDBRANCH  24  25
ENDBRANCH  23  24
ENDBRANCH  22  23
ENDBRANCH  20  22
ENDBRANCH  12  20
TORSDOF 9
ENDMDL
MODEL 3
REMARK VINA RESULT:      -6.4      2.265      2.784
REMARK  Name = *****
REMARK                            x       y       z     vdW  Elec       q    Type
REMARK                         _______ _______ _______ _____ _____    ______ ____
ROOT
ATOM      1  C   LIG    1       22.529 -33.629   7.665  0.00  0.00    +0.157 C 
ATOM      2  N   LIG    1       23.483 -32.498   7.658  0.00  0.00    -0.206 N 
ATOM      3  S   LIG    1       24.264 -32.271   9.158  0.00  0.00    +0.075 S 
ATOM      4  O   LIG    1       25.294 -33.293   9.265  0.00  0.00    -0.150 OA
ATOM      5  O   LIG    1       23.235 -32.162  10.167  0.00  0.00    -0.150 OA
ATOM      6  C   LIG    1       25.113 -30.693   9.156  0.00  0.00    +0.115 A 
ATOM      7  C   LIG    1       25.009 -29.706   8.146  0.00  0.00    +0.001 A 
ATOM      8  C   LIG    1       25.815 -28.556   8.287  0.00  0.00    +0.009 A 
ATOM      9  C   LIG    1       26.651 -28.375   9.396  0.00  0.00    +0.020 A 
ATOM     10  C   LIG    1       26.705 -29.341  10.390  0.00  0.00    +0.043 A 
ATOM     11 CL   LIG    1       27.712 -29.106  11.764  0.00  0.00    -0.084 Cl
ATOM     12  C   LIG    1       24.106 -29.899   6.924  0.00  0.00    +0.118 C 
ATOM     13  C   LIG    1       24.654 -31.056   6.100  0.00  0.00    -0.004 A 
ATOM     14  C   LIG    1       25.525 -30.879   5.011  0.00  0.00    +0.007 A 
ATOM     15  C   LIG    1       26.025 -31.979   4.317  0.00  0.00    +0.001 A 
ATOM     16  C   LIG    1       25.704 -33.267   4.734  0.00  0.00    +0.002 A 
ATOM     17  C   LIG    1       24.871 -33.460   5.836  0.00  0.00    +0.025 A 
ATOM     18  C   LIG    1       25.949 -30.499  10.275  0.00  0.00    +0.049 A 
ATOM     19  C   LIG    1       24.321 -32.360   6.497  0.00  0.00    +0.056 A 
ENDROOT
BRANCH  12  20
ATOM     20  N   LIG    1       23.849 -28.663   6.143  0.00  0.00    -0.306 NA
ATOM     21  H   LIG    1       23.855 -27.859   6.761  0.00  0.00    +0.123 HD
BRANCH  20  22
ATOM     22  C   LIG    1       24.835 -28.474   5.068  0.00  0.00    +0.082 C 
BRANCH  22  23
ATOM     23  C   LIG    1       25.243 -27.002   4.948  0.00  0.00    +0.015 C 
BRANCH  23  24
ATOM     24  C   LIG    1       24.477 -26.131   5.958  0.00  0.00    +0.001 C 
BRANCH  24  25
ATOM     25  C   LIG    1       25.400 -25.148   6.691  0.00  0.00    +0.001 C 
BRANCH  25  26
ATOM     26  C   LIG    1       24.746 -23.771   6.875  0.00  0.00    +0.011 C 
BRANCH  26  27
ATOM     27  C   LIG    1       25.760 -22.629   6.782  0.00  0.00    +0.120 C 
BRANCH  27  28
ATOM     28  C   LIG    1       25.696 -21.736   7.996  0.00  0.00    +0.305 C 
ATOM     29  O   LIG    1       24.775 -21.005   8.311  0.00  0.00    -0.251 OA
BRANCH  28  30
ATOM     30  O   LIG    1       26.811 -21.803   8.750  0.00  0.00    -0.481 OA
ATOM     31  H   LIG    1       27.545 -21.670   8.114  0.00  0.00    +0.295 HD
ENDBRANCH  28  30
ENDBRANCH  27  28
ENDBRANCH  26  27
ENDBRANCH  25  26
ENDBRANCH  24  25
ENDBRANCH  23  24
ENDBRANCH  22  23
ENDBRANCH  20  22
ENDBRANCH  12  20
TORSDOF 9
ENDMDL
MODEL 4
REMARK VINA RESULT:      -6.0      4.091      6.630
REMARK  Name = *****
REMARK                            x       y       z     vdW  Elec       q    Type
REMARK                         _______ _______ _______ _____ _____    ______ ____
ROOT
ATOM      1  C   LIG    1       27.814 -29.817  10.715  0.00  0.00    +0.157 C 
ATOM      2  N   LIG    1       26.372 -29.897  10.389  0.00  0.00    -0.206 N 
ATOM      3  S   LIG    1       25.365 -29.606  11.735  0.00  0.00    +0.075 S 
ATOM      4  O   LIG    1       25.355 -28.168  11.962  0.00  0.00    -0.150 OA
ATOM      5  O   LIG    1       25.779 -30.509  12.786  0.00  0.00    -0.150 OA
ATOM      6  C   LIG    1       23.681 -30.068  11.332  0.00  0.00    +0.115 A 
ATOM      7  C   LIG    1       23.274 -30.736  10.152  0.00  0.00    +0.001 A 
ATOM      8  C   LIG    1       21.889 -30.949   9.980  0.00  0.00    +0.009 A 
ATOM      9  C   LIG    1       20.959 -30.555  10.950  0.00  0.00    +0.020 A 
ATOM     10  C   LIG    1       21.390 -29.935  12.115  0.00  0.00    +0.043 A 
ATOM     11 CL   LIG    1       20.248 -29.476  13.316  0.00  0.00    -0.084 Cl
ATOM     12  C   LIG    1       24.282 -31.161   9.080  0.00  0.00    +0.118 C 
ATOM     13  C   LIG    1       24.891 -29.907   8.470  0.00  0.00    -0.004 A 
ATOM     14  C   LIG    1       24.402 -29.308   7.296  0.00  0.00    +0.007 A 
ATOM     15  C   LIG    1       24.977 -28.138   6.805  0.00  0.00    +0.001 A 
ATOM     16  C   LIG    1       26.010 -27.524   7.506  0.00  0.00    +0.002 A 
ATOM     17  C   LIG    1       26.482 -28.086   8.692  0.00  0.00    +0.025 A 
ATOM     18  C   LIG    1       22.740 -29.684  12.309  0.00  0.00    +0.049 A 
ATOM     19  C   LIG    1       25.948 -29.290   9.157  0.00  0.00    +0.056 A 
ENDROOT
BRANCH  12  20
ATOM     20  N   LIG    1       23.757 -32.129   8.085  0.00  0.00    -0.306 NA
ATOM     21  H   LIG    1       23.598 -31.660   7.200  0.00  0.00    +0.123 HD
BRANCH  20  22
ATOM     22  C   LIG    1       24.666 -33.268   7.890  0.00  0.00    +0.082 C 
BRANCH  22  23
ATOM     23  C   LIG    1       26.126 -32.849   8.095  0.00  0.00    +0.015 C 
BRANCH  23  24
ATOM     24  C   LIG    1       26.799 -32.516   6.752  0.00  0.00    +0.001 C 
BRANCH  24  25
ATOM     25  C   LIG    1       26.025 -33.093   5.559  0.00  0.00    +0.001 C 
BRANCH  25  26
ATOM     26  C   LIG    1       26.004 -32.128   4.364  0.00  0.00    +0.011 C 
BRANCH  26  27
ATOM     27  C   LIG    1       25.499 -32.798   3.085  0.00  0.00    +0.120 C 
BRANCH  27  28
ATOM     28  C   LIG    1       26.635 -33.107   2.141  0.00  0.00    +0.305 C 
ATOM     29  O   LIG    1       27.770 -33.420   2.450  0.00  0.00    -0.251 OA
BRANCH  28  30
ATOM     30  O   LIG    1       26.280 -32.995   0.846  0.00  0.00    -0.481 OA
ATOM     31  H   LIG    1       25.871 -32.106   0.781  0.00  0.00    +0.295 HD
ENDBRANCH  28  30
ENDBRANCH  27  28
ENDBRANCH  26  27
ENDBRANCH  25  26
ENDBRANCH  24  25
ENDBRANCH  23  24
ENDBRANCH  22  23
ENDBRANCH  20  22
ENDBRANCH  12  20
TORSDOF 9
ENDMDL
MODEL 5
REMARK VINA RESULT:      -5.9      7.051     10.081
REMARK  Name = *****
REMARK                            x       y       z     vdW  Elec       q    Type
REMARK                         _______ _______ _______ _____ _____    ______ ____
ROOT
ATOM      1  C   LIG    1       25.906 -24.652   6.417  0.00  0.00    +0.157 C 
ATOM      2  N   LIG    1       25.547 -23.236   6.176  0.00  0.00    -0.206 N 
ATOM      3  S   LIG    1       23.978 -23.044   5.532  0.00  0.00    +0.075 S 
ATOM      4  O   LIG    1       23.039 -23.219   6.629  0.00  0.00    -0.150 OA
ATOM      5  O   LIG    1       23.891 -23.880   4.355  0.00  0.00    -0.150 OA
ATOM      6  C   LIG    1       23.773 -21.361   4.951  0.00  0.00    +0.115 A 
ATOM      7  C   LIG    1       24.801 -20.391   4.869  0.00  0.00    +0.001 A 
ATOM      8  C   LIG    1       24.428 -19.094   4.454  0.00  0.00    +0.009 A 
ATOM      9  C   LIG    1       23.109 -18.787   4.098  0.00  0.00    +0.020 A 
ATOM     10  C   LIG    1       22.129 -19.769   4.151  0.00  0.00    +0.043 A 
ATOM     11 CL   LIG    1       20.515 -19.397   3.688  0.00  0.00    -0.084 Cl
ATOM     12  C   LIG    1       26.245 -20.713   5.267  0.00  0.00    +0.118 C 
ATOM     13  C   LIG    1       26.278 -21.000   6.761  0.00  0.00    -0.004 A 
ATOM     14  C   LIG    1       26.584 -20.024   7.725  0.00  0.00    +0.007 A 
ATOM     15  C   LIG    1       26.563 -20.337   9.082  0.00  0.00    +0.001 A 
ATOM     16  C   LIG    1       26.184 -21.610   9.496  0.00  0.00    +0.002 A 
ATOM     17  C   LIG    1       25.842 -22.579   8.553  0.00  0.00    +0.025 A 
ATOM     18  C   LIG    1       22.450 -21.049   4.580  0.00  0.00    +0.049 A 
ATOM     19  C   LIG    1       25.919 -22.287   7.190  0.00  0.00    +0.056 A 
ENDROOT
BRANCH  12  20
ATOM     20  N   LIG    1       27.248 -19.717   4.815  0.00  0.00    -0.306 NA
ATOM     21  H   LIG    1       26.903 -18.778   4.989  0.00  0.00    +0.123 HD
BRANCH  20  22
ATOM     22  C   LIG    1       28.547 -19.901   5.480  0.00  0.00    +0.082 C 
BRANCH  22  23
ATOM     23  C   LIG    1       29.292 -18.569   5.613  0.00  0.00    +0.015 C 
BRANCH  23  24
ATOM     24  C   LIG    1       30.481 -18.695   6.581  0.00  0.00    +0.001 C 
BRANCH  24  25
ATOM     25  C   LIG    1       30.062 -18.479   8.042  0.00  0.00    +0.001 C 
BRANCH  25  26
ATOM     26  C   LIG    1       30.591 -19.587   8.964  0.00  0.00    +0.011 C 
BRANCH  26  27
ATOM     27  C   LIG    1       30.527 -20.968   8.309  0.00  0.00    +0.120 C 
BRANCH  27  28
ATOM     28  C   LIG    1       31.126 -22.028   9.201  0.00  0.00    +0.305 C 
ATOM     29  O   LIG    1       30.760 -22.321  10.325  0.00  0.00    -0.251 OA
BRANCH  28  30
ATOM     30  O   LIG    1       32.169 -22.660   8.629  0.00  0.00    -0.481 OA
ATOM     31  H   LIG    1       32.167 -23.552   9.035  0.00  0.00    +0.295 HD
ENDBRANCH  28  30
ENDBRANCH  27  28
ENDBRANCH  26  27
ENDBRANCH  25  26
ENDBRANCH  24  25
ENDBRANCH  23  24
ENDBRANCH  22  23
ENDBRANCH  20  22
ENDBRANCH  12  20
TORSDOF 9
ENDMDL
MODEL 6
REMARK VINA RESULT:      -5.8      9.528     11.488
REMARK  Name = *****
REMARK                            x       y       z     vdW  Elec       q    Type
REMARK                         _______ _______ _______ _____ _____    ______ ____
ROOT
ATOM      1  C   LIG    1       24.030 -22.432   4.293  0.00  0.00    +0.157 C 
ATOM      2  N   LIG    1       24.916 -21.304   4.657  0.00  0.00    -0.206 N 
ATOM      3  S   LIG    1       24.654 -19.912   3.705  0.00  0.00    +0.075 S 
ATOM      4  O   LIG    1       23.443 -19.275   4.199  0.00  0.00    -0.150 OA
ATOM      5  O   LIG    1       24.756 -20.313   2.319  0.00  0.00    -0.150 OA
ATOM      6  C   LIG    1       25.988 -18.745   3.973  0.00  0.00    +0.115 A 
ATOM      7  C   LIG    1       27.166 -19.002   4.714  0.00  0.00    +0.001 A 
ATOM      8  C   LIG    1       28.070 -17.930   4.876  0.00  0.00    +0.009 A 
ATOM      9  C   LIG    1       27.835 -16.677   4.295  0.00  0.00    +0.020 A 
ATOM     10  C   LIG    1       26.690 -16.464   3.541  0.00  0.00    +0.043 A 
ATOM     11 CL   LIG    1       26.416 -14.933   2.808  0.00  0.00    -0.084 Cl
ATOM     12  C   LIG    1       27.427 -20.365   5.362  0.00  0.00    +0.118 C 
ATOM     13  C   LIG    1       26.384 -20.588   6.449  0.00  0.00    -0.004 A 
ATOM     14  C   LIG    1       26.605 -20.276   7.802  0.00  0.00    +0.007 A 
ATOM     15  C   LIG    1       25.599 -20.467   8.746  0.00  0.00    +0.001 A 
ATOM     16  C   LIG    1       24.346 -20.919   8.345  0.00  0.00    +0.002 A 
ATOM     17  C   LIG    1       24.099 -21.196   7.000  0.00  0.00    +0.025 A 
ATOM     18  C   LIG    1       25.763 -17.485   3.382  0.00  0.00    +0.049 A 
ATOM     19  C   LIG    1       25.123 -21.064   6.059  0.00  0.00    +0.056 A 
ENDROOT
BRANCH  12  20
ATOM     20  N   LIG    1       28.826 -20.581   5.808  0.00  0.00    -0.306 NA
ATOM     21  H   LIG    1       29.285 -19.687   5.947  0.00  0.00    +0.123 HD
BRANCH  20  22
ATOM     22  C   LIG    1       28.896 -21.375   7.044  0.00  0.00    +0.082 C 
BRANCH  22  23
ATOM     23  C   LIG    1       30.036 -20.891   7.946  0.00  0.00    +0.015 C 
BRANCH  23  24
ATOM     24  C   LIG    1       30.256 -19.376   7.795  0.00  0.00    +0.001 C 
BRANCH  24  25
ATOM     25  C   LIG    1       31.721 -18.979   8.023  0.00  0.00    +0.001 C 
BRANCH  25  26
ATOM     26  C   LIG    1       31.848 -17.602   8.691  0.00  0.00    +0.011 C 
BRANCH  26  27
ATOM     27  C   LIG    1       30.543 -17.152   9.349  0.00  0.00    +0.120 C 
BRANCH  27  28
ATOM     28  C   LIG    1       30.587 -17.342  10.845  0.00  0.00    +0.305 C 
ATOM     29  O   LIG    1       30.713 -18.398  11.438  0.00  0.00    -0.251 OA
BRANCH  28  30
ATOM     30  O   LIG    1       30.457 -16.184  11.520  0.00  0.00    -0.481 OA
ATOM     31  H   LIG    1       31.356 -15.999  11.864  0.00  0.00    +0.295 HD
ENDBRANCH  28  30
ENDBRANCH  27  28
ENDBRANCH  26  27
ENDBRANCH  25  26
ENDBRANCH  24  25
ENDBRANCH  23  24
ENDBRANCH  22  23
ENDBRANCH  20  22
ENDBRANCH  12  20
TORSDOF 9
ENDMDL
MODEL 7
REMARK VINA RESULT:      -5.8      6.894     10.021
REMARK  Name = *****
REMARK                            x       y       z     vdW  Elec       q    Type
REMARK                         _______ _______ _______ _____ _____    ______ ____
ROOT
ATOM      1  C   LIG    1       22.494 -19.224   5.129  0.00  0.00    +0.157 C 
ATOM      2  N   LIG    1       23.539 -20.209   5.489  0.00  0.00    -0.206 N 
ATOM      3  S   LIG    1       23.107 -21.814   5.101  0.00  0.00    +0.075 S 
ATOM      4  O   LIG    1       23.287 -21.972   3.665  0.00  0.00    -0.150 OA
ATOM      5  O   LIG    1       21.822 -22.074   5.710  0.00  0.00    -0.150 OA
ATOM      6  C   LIG    1       24.255 -22.946   5.883  0.00  0.00    +0.115 A 
ATOM      7  C   LIG    1       25.252 -22.586   6.821  0.00  0.00    +0.001 A 
ATOM      8  C   LIG    1       26.110 -23.612   7.272  0.00  0.00    +0.009 A 
ATOM      9  C   LIG    1       25.959 -24.937   6.846  0.00  0.00    +0.020 A 
ATOM     10  C   LIG    1       24.948 -25.269   5.954  0.00  0.00    +0.043 A 
ATOM     11 CL   LIG    1       24.749 -26.901   5.451  0.00  0.00    -0.084 Cl
ATOM     12  C   LIG    1       25.432 -21.138   7.286  0.00  0.00    +0.118 C 
ATOM     13  C   LIG    1       25.883 -20.303   6.096  0.00  0.00    -0.004 A 
ATOM     14  C   LIG    1       27.234 -20.030   5.817  0.00  0.00    +0.007 A 
ATOM     15  C   LIG    1       27.589 -19.291   4.690  0.00  0.00    +0.001 A 
ATOM     16  C   LIG    1       26.607 -18.864   3.801  0.00  0.00    +0.002 A 
ATOM     17  C   LIG    1       25.266 -19.160   4.045  0.00  0.00    +0.025 A 
ATOM     18  C   LIG    1       24.101 -24.284   5.466  0.00  0.00    +0.049 A 
ATOM     19  C   LIG    1       24.901 -19.849   5.204  0.00  0.00    +0.056 A 
ENDROOT
BRANCH  12  20
ATOM     20  N   LIG    1       26.276 -20.977   8.497  0.00  0.00    -0.306 NA
ATOM     21  H   LIG    1       26.425 -21.880   8.935  0.00  0.00    +0.123 HD
BRANCH  20  22
ATOM     22  C   LIG    1       27.571 -20.352   8.189  0.00  0.00    +0.082 C 
BRANCH  22  23
ATOM     23  C   LIG    1       28.709 -21.375   8.272  0.00  0.00    +0.015 C 
BRANCH  23  24
ATOM     24  C   LIG    1       30.072 -20.705   8.028  0.00  0.00    +0.001 C 
BRANCH  24  25
ATOM     25  C   LIG    1       29.940 -19.194   7.793  0.00  0.00    +0.001 C 
BRANCH  25  26
ATOM     26  C   LIG    1       31.058 -18.402   8.488  0.00  0.00    +0.011 C 
BRANCH  26  27
ATOM     27  C   LIG    1       30.523 -17.186   9.247  0.00  0.00    +0.120 C 
BRANCH  27  28
ATOM     28  C   LIG    1       30.583 -17.399  10.739  0.00  0.00    +0.305 C 
ATOM     29  O   LIG    1       30.775 -18.455  11.314  0.00  0.00    -0.251 OA
BRANCH  28  30
ATOM     30  O   LIG    1       30.384 -16.262  11.435  0.00  0.00    -0.481 OA
ATOM     31  H   LIG    1       29.918 -16.551  12.247  0.00  0.00    +0.295 HD
ENDBRANCH  28  30
ENDBRANCH  27  28
ENDBRANCH  26  27
ENDBRANCH  25  26
ENDBRANCH  24  25
ENDBRANCH  23  24
ENDBRANCH  22  23
ENDBRANCH  20  22
ENDBRANCH  12  20
TORSDOF 9
ENDMDL
MODEL 8
REMARK VINA RESULT:      -5.7      3.714      6.104
REMARK  Name = *****
REMARK                            x       y       z     vdW  Elec       q    Type
REMARK                         _______ _______ _______ _____ _____    ______ ____
ROOT
ATOM      1  C   LIG    1       25.861 -32.561  10.350  0.00  0.00    +0.157 C 
ATOM      2  N   LIG    1       25.715 -31.808   9.084  0.00  0.00    -0.206 N 
ATOM      3  S   LIG    1       25.898 -30.123   9.282  0.00  0.00    +0.075 S 
ATOM      4  O   LIG    1       27.323 -29.858   9.413  0.00  0.00    -0.150 OA
ATOM      5  O   LIG    1       24.980 -29.709  10.320  0.00  0.00    -0.150 OA
ATOM      6  C   LIG    1       25.360 -29.284   7.793  0.00  0.00    +0.115 A 
ATOM      7  C   LIG    1       24.716 -29.899   6.693  0.00  0.00    +0.001 A 
ATOM      8  C   LIG    1       24.434 -29.083   5.576  0.00  0.00    +0.009 A 
ATOM      9  C   LIG    1       24.738 -27.717   5.568  0.00  0.00    +0.020 A 
ATOM     10  C   LIG    1       25.335 -27.132   6.676  0.00  0.00    +0.043 A 
ATOM     11 CL   LIG    1       25.685 -25.448   6.675  0.00  0.00    -0.084 Cl
ATOM     12  C   LIG    1       24.388 -31.396   6.686  0.00  0.00    +0.118 C 
ATOM     13  C   LIG    1       25.697 -32.174   6.688  0.00  0.00    -0.004 A 
ATOM     14  C   LIG    1       26.313 -32.644   5.515  0.00  0.00    +0.007 A 
ATOM     15  C   LIG    1       27.530 -33.318   5.576  0.00  0.00    +0.001 A 
ATOM     16  C   LIG    1       28.173 -33.483   6.799  0.00  0.00    +0.002 A 
ATOM     17  C   LIG    1       27.593 -32.989   7.967  0.00  0.00    +0.025 A 
ATOM     18  C   LIG    1       25.653 -27.905   7.783  0.00  0.00    +0.049 A 
ATOM     19  C   LIG    1       26.344 -32.365   7.918  0.00  0.00    +0.056 A 
ENDROOT
BRANCH  12  20
ATOM     20  N   LIG    1       23.431 -31.815   5.632  0.00  0.00    -0.306 NA
ATOM     21  H   LIG    1       23.898 -31.832   4.731  0.00  0.00    +0.123 HD
BRANCH  20  22
ATOM     22  C   LIG    1       22.844 -33.134   5.913  0.00  0.00    +0.082 C 
BRANCH  22  23
ATOM     23  C   LIG    1       23.140 -33.574   7.351  0.00  0.00    +0.015 C 
BRANCH  23  24
ATOM     24  C   LIG    1       21.838 -33.790   8.142  0.00  0.00    +0.001 C 
BRANCH  24  25
ATOM     25  C   LIG    1       21.965 -33.333   9.601  0.00  0.00    +0.001 C 
BRANCH  25  26
ATOM     26  C   LIG    1       22.206 -31.820   9.714  0.00  0.00    +0.011 C 
BRANCH  26  27
ATOM     27  C   LIG    1       21.125 -31.119  10.538  0.00  0.00    +0.120 C 
BRANCH  27  28
ATOM     28  C   LIG    1       21.729 -30.262  11.623  0.00  0.00    +0.305 C 
ATOM     29  O   LIG    1       21.274 -29.222  12.063  0.00  0.00    -0.251 OA
BRANCH  28  30
ATOM     30  O   LIG    1       22.890 -30.759  12.092  0.00  0.00    -0.481 OA
ATOM     31  H   LIG    1       22.846 -30.613  13.060  0.00  0.00    +0.295 HD
ENDBRANCH  28  30
ENDBRANCH  27  28
ENDBRANCH  26  27
ENDBRANCH  25  26
ENDBRANCH  24  25
ENDBRANCH  23  24
ENDBRANCH  22  23
ENDBRANCH  20  22
ENDBRANCH  12  20
TORSDOF 9
ENDMDL
MODEL 9
REMARK VINA RESULT:      -5.7      3.687      6.159
REMARK  Name = *****
REMARK                            x       y       z     vdW  Elec       q    Type
REMARK                         _______ _______ _______ _____ _____    ______ ____
ROOT
ATOM      1  C   LIG    1       27.512 -28.903  13.370  0.00  0.00    +0.157 C 
ATOM      2  N   LIG    1       26.146 -29.008  12.808  0.00  0.00    -0.206 N 
ATOM      3  S   LIG    1       25.012 -28.022  13.616  0.00  0.00    +0.075 S 
ATOM      4  O   LIG    1       25.224 -26.657  13.155  0.00  0.00    -0.150 OA
ATOM      5  O   LIG    1       25.092 -28.338  15.025  0.00  0.00    -0.150 OA
ATOM      6  C   LIG    1       23.355 -28.477  13.107  0.00  0.00    +0.115 A 
ATOM      7  C   LIG    1       23.022 -29.595  12.304  0.00  0.00    +0.001 A 
ATOM      8  C   LIG    1       21.665 -29.747  11.948  0.00  0.00    +0.009 A 
ATOM      9  C   LIG    1       20.681 -28.859  12.400  0.00  0.00    +0.020 A 
ATOM     10  C   LIG    1       21.031 -27.793  13.219  0.00  0.00    +0.043 A 
ATOM     11 CL   LIG    1       19.819 -26.718  13.794  0.00  0.00    -0.084 Cl
ATOM     12  C   LIG    1       24.091 -30.566  11.794  0.00  0.00    +0.118 C 
ATOM     13  C   LIG    1       25.001 -29.817  10.831  0.00  0.00    -0.004 A 
ATOM     14  C   LIG    1       24.812 -29.818   9.438  0.00  0.00    +0.007 A 
ATOM     15  C   LIG    1       25.656 -29.083   8.608  0.00  0.00    +0.001 A 
ATOM     16  C   LIG    1       26.661 -28.296   9.161  0.00  0.00    +0.002 A 
ATOM     17  C   LIG    1       26.837 -28.254  10.544  0.00  0.00    +0.025 A 
ATOM     18  C   LIG    1       22.359 -27.593  13.569  0.00  0.00    +0.049 A 
ATOM     19  C   LIG    1       26.032 -29.036  11.376  0.00  0.00    +0.056 A 
ENDROOT
BRANCH  12  20
ATOM     20  N   LIG    1       23.561 -31.846  11.261  0.00  0.00    -0.306 NA
ATOM     21  H   LIG    1       23.240 -31.714  10.307  0.00  0.00    +0.123 HD
BRANCH  20  22
ATOM     22  C   LIG    1       24.564 -32.920  11.305  0.00  0.00    +0.082 C 
BRANCH  22  23
ATOM     23  C   LIG    1       24.792 -33.519   9.913  0.00  0.00    +0.015 C 
BRANCH  23  24
ATOM     24  C   LIG    1       26.104 -33.003   9.298  0.00  0.00    +0.001 C 
BRANCH  24  25
ATOM     25  C   LIG    1       26.396 -33.646   7.935  0.00  0.00    +0.001 C 
BRANCH  25  26
ATOM     26  C   LIG    1       26.376 -32.618   6.795  0.00  0.00    +0.011 C 
BRANCH  26  27
ATOM     27  C   LIG    1       24.998 -32.502   6.142  0.00  0.00    +0.120 C 
BRANCH  27  28
ATOM     28  C   LIG    1       24.705 -31.083   5.722  0.00  0.00    +0.305 C 
ATOM     29  O   LIG    1       25.520 -30.243   5.386  0.00  0.00    -0.251 OA
BRANCH  28  30
ATOM     30  O   LIG    1       23.390 -30.790   5.760  0.00  0.00    -0.481 OA
ATOM     31  H   LIG    1       23.338 -29.861   5.453  0.00  0.00    +0.295 HD
ENDBRANCH  28  30
ENDBRANCH  27  28
ENDBRANCH  26  27
ENDBRANCH  25  26
ENDBRANCH  24  25
ENDBRANCH  23  24
ENDBRANCH  22  23
ENDBRANCH  20  22
ENDBRANCH  12  20
TORSDOF 9
ENDMDL
