MODEL 1
REMARK VINA RESULT:      21.1      0.000      0.000
REMARK  Name = *****
REMARK                            x       y       z     vdW  Elec       q    Type
REMARK                         _______ _______ _______ _____ _____    ______ ____
ROOT
ATOM      1  C   LIG    1       28.435 -13.602   2.850  0.00  0.00    +0.339 C 
ATOM      2  C   LIG    1       28.360 -12.864   4.202  0.00  0.00    +0.214 C 
ATOM      3  C   LIG    1       28.446 -13.831   5.381  0.00  0.00    +0.180 C 
ATOM      4  C   LIG    1       27.695 -15.128   5.084  0.00  0.00    +0.177 C 
ATOM      5  C   LIG    1       28.292 -15.825   3.854  0.00  0.00    +0.179 C 
ATOM      6  O   LIG    1       28.963 -14.928   2.964  0.00  0.00    -0.331 OA
ENDROOT
BRANCH   2   7
ATOM      7  O   LIG    1       29.472 -11.949   4.314  0.00  0.00    -0.383 OA
ATOM      8  H   LIG    1       29.461 -11.592   5.219  0.00  0.00    +0.210 HD
ENDBRANCH   2   7
BRANCH   3   9
ATOM      9  O   LIG    1       27.876 -13.214   6.547  0.00  0.00    -0.386 OA
ATOM     10  H   LIG    1       27.398 -12.423   6.231  0.00  0.00    +0.210 HD
ENDBRANCH   3   9
BRANCH   4  11
ATOM     11  O   LIG    1       27.760 -15.980   6.239  0.00  0.00    -0.387 OA
ATOM     12  H   LIG    1       27.579 -16.895   5.954  0.00  0.00    +0.210 HD
ENDBRANCH   4  11
BRANCH   1  13
ATOM     13  O   LIG    1       27.158 -13.551   2.181  0.00  0.00    -0.461 OA
BRANCH  13  20
ATOM     14  C   LIG    1       22.483 -16.360   4.719  0.00  0.00    +0.139 C 
ATOM     15  O   LIG    1       23.589 -16.192   3.912  0.00  0.00    -0.454 OA
ATOM     16  C   LIG    1       24.258 -15.001   3.946  0.00  0.00    +0.146 A 
ATOM     17  C   LIG    1       23.895 -13.938   4.757  0.00  0.00    +0.105 A 
ATOM     18  C   LIG    1       24.636 -12.753   4.712  0.00  0.00    +0.135 A 
ATOM     19  C   LIG    1       25.731 -12.636   3.849  0.00  0.00    +0.092 A 
ATOM     20  C   LIG    1       26.085 -13.710   3.026  0.00  0.00    +0.131 A 
ATOM     21  C   LIG    1       22.736 -14.125   5.629  0.00  0.00    +0.197 C 
ATOM     22  O   LIG    1       22.368 -13.226   6.389  0.00  0.00    -0.287 OA
ATOM     23  C   LIG    1       25.355 -14.898   3.102  0.00  0.00    +0.093 A 
ATOM     24  C   LIG    1       22.026 -15.414   5.561  0.00  0.00    +0.098 C 
BRANCH  14  28
ATOM     25  C   LIG    1       20.600 -20.220   4.328  0.00  0.00    +0.161 A 
ATOM     26  C   LIG    1       21.659 -20.028   5.217  0.00  0.00    +0.159 A 
ATOM     27  C   LIG    1       22.268 -18.771   5.329  0.00  0.00    +0.060 A 
ATOM     28  C   LIG    1       21.832 -17.679   4.555  0.00  0.00    +0.021 A 
ATOM     29  C   LIG    1       20.765 -17.880   3.674  0.00  0.00    +0.015 A 
ATOM     30  C   LIG    1       20.171 -19.139   3.552  0.00  0.00    +0.050 A 
BRANCH  25  32
ATOM     31  C   LIG    1       19.460 -21.565   2.741  0.00  0.00    +0.277 C 
ATOM     32  O   LIG    1       19.933 -21.386   4.070  0.00  0.00    -0.491 OA
ENDBRANCH  25  32
BRANCH  26  33
ATOM     33  O   LIG    1       22.143 -21.058   5.975  0.00  0.00    -0.503 OA
ATOM     34  H   LIG    1       21.453 -21.359   6.589  0.00  0.00    +0.292 HD
ENDBRANCH  26  33
ENDBRANCH  14  28
BRANCH  18  35
ATOM     35  O   LIG    1       24.329 -11.667   5.490  0.00  0.00    -0.506 OA
ATOM     36  H   LIG    1       24.773 -10.877   5.107  0.00  0.00    +0.292 HD
ENDBRANCH  18  35
ENDBRANCH  13  20
ENDBRANCH   1  13
BRANCH   5  37
ATOM     37  C   LIG    1       27.252 -16.701   3.131  0.00  0.00    +0.197 C 
BRANCH  37  38
ATOM     38  O   LIG    1       26.745 -17.682   4.052  0.00  0.00    -0.346 OA
BRANCH  38  39
ATOM     39  C   LIG    1       27.158 -19.013   3.718  0.00  0.00    +0.282 C 
ATOM     40  C   LIG    1       27.651 -19.729   4.995  0.00  0.00    +0.201 C 
ATOM     41  C   LIG    1       26.475 -19.961   5.946  0.00  0.00    +0.179 C 
ATOM     42  C   LIG    1       25.318 -20.671   5.233  0.00  0.00    +0.174 C 
ATOM     43  C   LIG    1       24.956 -19.935   3.934  0.00  0.00    +0.149 C 
ATOM     44  C   LIG    1       23.919 -20.708   3.128  0.00  0.00    +0.040 C 
ATOM     45  O   LIG    1       26.095 -19.745   3.094  0.00  0.00    -0.343 OA
BRANCH  40  46
ATOM     46  O   LIG    1       28.257 -20.996   4.687  0.00  0.00    -0.384 OA
ATOM     47  H   LIG    1       28.999 -20.781   4.086  0.00  0.00    +0.210 HD
ENDBRANCH  40  46
BRANCH  41  48
ATOM     48  O   LIG    1       26.910 -20.765   7.057  0.00  0.00    -0.386 OA
ATOM     49  H   LIG    1       27.396 -20.154   7.649  0.00  0.00    +0.210 HD
ENDBRANCH  41  48
BRANCH  42  50
ATOM     50  O   LIG    1       24.205 -20.747   6.137  0.00  0.00    -0.387 OA
ATOM     51  H   LIG    1       24.353 -20.106   6.857  0.00  0.00    +0.210 HD
ENDBRANCH  42  50
ENDBRANCH  38  39
ENDBRANCH  37  38
ENDBRANCH   5  37
TORSDOF 15
ENDMDL
