MODEL 1
REMARK VINA RESULT:      -6.1      0.000      0.000
REMARK  Name = *****
REMARK                            x       y       z     vdW  Elec       q    Type
REMARK                         _______ _______ _______ _____ _____    ______ ____
ROOT
ATOM      1  C   LIG    1       26.072 -14.955   3.939  0.00  0.00    +0.205 C 
ENDROOT
BRANCH   1   2
ATOM      2  C   LIG    1       25.239 -13.737   3.561  0.00  0.00    -0.007 A 
ATOM      3  C   LIG    1       24.563 -12.949   4.505  0.00  0.00    +0.007 A 
ATOM      4  C   LIG    1       23.832 -11.820   4.110  0.00  0.00    +0.000 A 
ATOM      5  C   LIG    1       23.782 -11.447   2.769  0.00  0.00    +0.000 A 
ATOM      6  C   LIG    1       24.466 -12.197   1.820  0.00  0.00    +0.000 A 
ATOM      7  C   LIG    1       25.185 -13.329   2.214  0.00  0.00    +0.007 A 
ENDBRANCH   1   2
BRANCH   1   8
ATOM      8  C   LIG    1       27.611 -14.791   3.917  0.00  0.00    +0.064 C 
BRANCH   8   9
ATOM      9  C   LIG    1       28.134 -13.601   3.104  0.00  0.00    +0.084 C 
BRANCH   9  11
ATOM     10  C   LIG    1       28.647 -12.227   5.041  0.00  0.00    +0.101 C 
ATOM     11  N   LIG    1       29.183 -12.910   3.869  0.00  0.00    -0.319 NA
ATOM     12  H   LIG    1       29.889 -13.582   4.171  0.00  0.00    +0.122 HD
ENDBRANCH   9  11
ENDBRANCH   8   9
ENDBRANCH   1   8
BRANCH   1  13
ATOM     13  O   LIG    1       25.784 -15.981   2.966  0.00  0.00    -0.484 OA
BRANCH  13  14
ATOM     14  C   LIG    1       25.198 -17.147   3.365  0.00  0.00    +0.121 A 
ATOM     15  C   LIG    1       25.825 -18.393   3.408  0.00  0.00    +0.046 A 
ATOM     16  C   LIG    1       25.151 -19.502   3.932  0.00  0.00    +0.016 A 
ATOM     17  C   LIG    1       23.851 -19.383   4.440  0.00  0.00    +0.055 A 
ATOM     18  C   LIG    1       23.220 -18.132   4.379  0.00  0.00    +0.016 A 
ATOM     19  C   LIG    1       23.897 -17.028   3.848  0.00  0.00    +0.046 A 
BRANCH  17  20
ATOM     20  C   LIG    1       23.174 -20.577   5.068  0.00  0.00    +0.417 C 
ATOM     21  F   LIG    1       22.541 -20.259   6.233  0.00  0.00    -0.166 F 
ATOM     22  F   LIG    1       24.051 -21.571   5.381  0.00  0.00    -0.166 F 
ATOM     23  F   LIG    1       22.226 -21.151   4.275  0.00  0.00    -0.166 F 
ENDBRANCH  17  20
ENDBRANCH  13  14
ENDBRANCH   1  13
TORSDOF 7
ENDMDL
MODEL 2
REMARK VINA RESULT:      -5.9      4.354      7.573
REMARK  Name = *****
REMARK                            x       y       z     vdW  Elec       q    Type
REMARK                         _______ _______ _______ _____ _____    ______ ____
ROOT
ATOM      1  C   LIG    1       25.324 -19.708   4.615  0.00  0.00    +0.205 C 
ENDROOT
BRANCH   1   2
ATOM      2  C   LIG    1       26.598 -20.065   5.371  0.00  0.00    -0.007 A 
ATOM      3  C   LIG    1       27.801 -19.359   5.221  0.00  0.00    +0.007 A 
ATOM      4  C   LIG    1       28.939 -19.709   5.960  0.00  0.00    +0.000 A 
ATOM      5  C   LIG    1       28.889 -20.756   6.877  0.00  0.00    +0.000 A 
ATOM      6  C   LIG    1       27.700 -21.452   7.062  0.00  0.00    +0.000 A 
ATOM      7  C   LIG    1       26.570 -21.109   6.316  0.00  0.00    +0.007 A 
ENDBRANCH   1   2
BRANCH   1   8
ATOM      8  C   LIG    1       24.501 -20.879   4.027  0.00  0.00    +0.064 C 
BRANCH   8   9
ATOM      9  C   LIG    1       23.108 -21.076   4.634  0.00  0.00    +0.084 C 
BRANCH   9  11
ATOM     10  C   LIG    1       23.103 -21.154   7.062  0.00  0.00    +0.101 C 
ATOM     11  N   LIG    1       23.005 -20.304   5.882  0.00  0.00    -0.319 NA
ATOM     12  H   LIG    1       23.746 -19.603   5.915  0.00  0.00    +0.122 HD
ENDBRANCH   9  11
ENDBRANCH   8   9
ENDBRANCH   1   8
BRANCH   1  13
ATOM     13  O   LIG    1       25.718 -18.909   3.479  0.00  0.00    -0.484 OA
BRANCH  13  14
ATOM     14  C   LIG    1       25.493 -17.564   3.487  0.00  0.00    +0.121 A 
ATOM     15  C   LIG    1       24.264 -16.951   3.735  0.00  0.00    +0.046 A 
ATOM     16  C   LIG    1       24.176 -15.557   3.817  0.00  0.00    +0.016 A 
ATOM     17  C   LIG    1       25.313 -14.752   3.673  0.00  0.00    +0.055 A 
ATOM     18  C   LIG    1       26.543 -15.373   3.407  0.00  0.00    +0.016 A 
ATOM     19  C   LIG    1       26.624 -16.767   3.320  0.00  0.00    +0.046 A 
BRANCH  17  20
ATOM     20  C   LIG    1       25.206 -13.256   3.839  0.00  0.00    +0.417 C 
ATOM     21  F   LIG    1       25.901 -12.578   2.882  0.00  0.00    -0.166 F 
ATOM     22  F   LIG    1       25.701 -12.826   5.033  0.00  0.00    -0.166 F 
ATOM     23  F   LIG    1       23.929 -12.786   3.773  0.00  0.00    -0.166 F 
ENDBRANCH  17  20
ENDBRANCH  13  14
ENDBRANCH   1  13
TORSDOF 7
ENDMDL
MODEL 3
REMARK VINA RESULT:      -5.6      4.309      7.475
REMARK  Name = *****
REMARK                            x       y       z     vdW  Elec       q    Type
REMARK                         _______ _______ _______ _____ _____    ______ ____
ROOT
ATOM      1  C   LIG    1       25.191 -19.692   4.635  0.00  0.00    +0.205 C 
ENDROOT
BRANCH   1   2
ATOM      2  C   LIG    1       26.411 -20.135   5.433  0.00  0.00    -0.007 A 
ATOM      3  C   LIG    1       26.375 -21.175   6.374  0.00  0.00    +0.007 A 
ATOM      4  C   LIG    1       27.532 -21.564   7.062  0.00  0.00    +0.000 A 
ATOM      5  C   LIG    1       28.749 -20.938   6.806  0.00  0.00    +0.000 A 
ATOM      6  C   LIG    1       28.814 -19.924   5.858  0.00  0.00    +0.000 A 
ATOM      7  C   LIG    1       27.657 -19.528   5.180  0.00  0.00    +0.007 A 
ENDBRANCH   1   2
BRANCH   1   8
ATOM      8  C   LIG    1       24.355 -20.801   3.952  0.00  0.00    +0.064 C 
BRANCH   8   9
ATOM      9  C   LIG    1       22.972 -21.054   4.564  0.00  0.00    +0.084 C 
BRANCH   9  11
ATOM     10  C   LIG    1       23.105 -21.103   6.989  0.00  0.00    +0.101 C 
ATOM     11  N   LIG    1       22.842 -20.285   5.811  0.00  0.00    -0.319 NA
ATOM     12  H   LIG    1       23.492 -19.499   5.801  0.00  0.00    +0.122 HD
ENDBRANCH   9  11
ENDBRANCH   8   9
ENDBRANCH   1   8
BRANCH   1  13
ATOM     13  O   LIG    1       25.671 -18.859   3.558  0.00  0.00    -0.484 OA
BRANCH  13  14
ATOM     14  C   LIG    1       25.506 -17.507   3.624  0.00  0.00    +0.121 A 
ATOM     15  C   LIG    1       26.463 -16.556   3.265  0.00  0.00    +0.046 A 
ATOM     16  C   LIG    1       26.142 -15.195   3.278  0.00  0.00    +0.016 A 
ATOM     17  C   LIG    1       24.858 -14.758   3.629  0.00  0.00    +0.055 A 
ATOM     18  C   LIG    1       23.905 -15.717   4.005  0.00  0.00    +0.016 A 
ATOM     19  C   LIG    1       24.233 -17.077   3.996  0.00  0.00    +0.046 A 
BRANCH  17  20
ATOM     20  C   LIG    1       24.515 -13.290   3.564  0.00  0.00    +0.417 C 
ATOM     21  F   LIG    1       25.588 -12.522   3.220  0.00  0.00    -0.166 F 
ATOM     22  F   LIG    1       24.078 -12.803   4.759  0.00  0.00    -0.166 F 
ATOM     23  F   LIG    1       23.541 -12.992   2.660  0.00  0.00    -0.166 F 
ENDBRANCH  17  20
ENDBRANCH  13  14
ENDBRANCH   1  13
TORSDOF 7
ENDMDL
MODEL 4
REMARK VINA RESULT:      -5.4      1.665      3.252
REMARK  Name = *****
REMARK                            x       y       z     vdW  Elec       q    Type
REMARK                         _______ _______ _______ _____ _____    ______ ____
ROOT
ATOM      1  C   LIG    1       25.279 -14.458   2.875  0.00  0.00    +0.205 C 
ENDROOT
BRANCH   1   2
ATOM      2  C   LIG    1       26.467 -13.896   3.647  0.00  0.00    -0.007 A 
ATOM      3  C   LIG    1       27.668 -13.512   3.031  0.00  0.00    +0.007 A 
ATOM      4  C   LIG    1       28.721 -12.973   3.781  0.00  0.00    +0.000 A 
ATOM      5  C   LIG    1       28.586 -12.788   5.155  0.00  0.00    +0.000 A 
ATOM      6  C   LIG    1       27.395 -13.135   5.782  0.00  0.00    +0.000 A 
ATOM      7  C   LIG    1       26.349 -13.683   5.034  0.00  0.00    +0.007 A 
ENDBRANCH   1   2
BRANCH   1   8
ATOM      8  C   LIG    1       24.524 -13.485   1.938  0.00  0.00    +0.064 C 
BRANCH   8   9
ATOM      9  C   LIG    1       24.693 -11.996   2.260  0.00  0.00    +0.084 C 
BRANCH   9  11
ATOM     10  C   LIG    1       23.687 -11.447   4.401  0.00  0.00    +0.101 C 
ATOM     11  N   LIG    1       23.494 -11.508   2.957  0.00  0.00    -0.319 NA
ATOM     12  H   LIG    1       23.251 -10.578   2.616  0.00  0.00    +0.122 HD
ENDBRANCH   9  11
ENDBRANCH   8   9
ENDBRANCH   1   8
BRANCH   1  13
ATOM     13  O   LIG    1       24.304 -14.880   3.852  0.00  0.00    -0.484 OA
BRANCH  13  14
ATOM     14  C   LIG    1       23.955 -16.196   3.934  0.00  0.00    +0.121 A 
ATOM     15  C   LIG    1       24.795 -17.275   3.655  0.00  0.00    +0.046 A 
ATOM     16  C   LIG    1       24.353 -18.585   3.873  0.00  0.00    +0.016 A 
ATOM     17  C   LIG    1       23.078 -18.841   4.390  0.00  0.00    +0.055 A 
ATOM     18  C   LIG    1       22.231 -17.754   4.653  0.00  0.00    +0.016 A 
ATOM     19  C   LIG    1       22.675 -16.446   4.428  0.00  0.00    +0.046 A 
BRANCH  17  20
ATOM     20  C   LIG    1       22.653 -20.259   4.686  0.00  0.00    +0.417 C 
ATOM     21  F   LIG    1       23.343 -21.172   3.945  0.00  0.00    -0.166 F 
ATOM     22  F   LIG    1       21.337 -20.478   4.412  0.00  0.00    -0.166 F 
ATOM     23  F   LIG    1       22.831 -20.627   5.986  0.00  0.00    -0.166 F 
ENDBRANCH  17  20
ENDBRANCH  13  14
ENDBRANCH   1  13
TORSDOF 7
ENDMDL
MODEL 5
REMARK VINA RESULT:      -5.4      1.683      3.040
REMARK  Name = *****
REMARK                            x       y       z     vdW  Elec       q    Type
REMARK                         _______ _______ _______ _____ _____    ______ ____
ROOT
ATOM      1  C   LIG    1       25.272 -14.464   2.996  0.00  0.00    +0.205 C 
ENDROOT
BRANCH   1   2
ATOM      2  C   LIG    1       26.427 -13.822   3.755  0.00  0.00    -0.007 A 
ATOM      3  C   LIG    1       26.386 -13.560   5.133  0.00  0.00    +0.007 A 
ATOM      4  C   LIG    1       27.486 -12.995   5.792  0.00  0.00    +0.000 A 
ATOM      5  C   LIG    1       28.653 -12.701   5.091  0.00  0.00    +0.000 A 
ATOM      6  C   LIG    1       28.726 -12.977   3.731  0.00  0.00    +0.000 A 
ATOM      7  C   LIG    1       27.625 -13.531   3.073  0.00  0.00    +0.007 A 
ENDBRANCH   1   2
BRANCH   1   8
ATOM      8  C   LIG    1       24.480 -13.558   2.022  0.00  0.00    +0.064 C 
BRANCH   8   9
ATOM      9  C   LIG    1       24.703 -12.051   2.195  0.00  0.00    +0.084 C 
BRANCH   9  11
ATOM     10  C   LIG    1       23.580 -11.464   4.267  0.00  0.00    +0.101 C 
ATOM     11  N   LIG    1       23.511 -11.449   2.811  0.00  0.00    -0.319 NA
ATOM     12  H   LIG    1       23.410 -10.485   2.493  0.00  0.00    +0.122 HD
ENDBRANCH   9  11
ENDBRANCH   8   9
ENDBRANCH   1   8
BRANCH   1  13
ATOM     13  O   LIG    1       24.310 -14.898   3.980  0.00  0.00    -0.484 OA
BRANCH  13  14
ATOM     14  C   LIG    1       23.927 -16.206   4.020  0.00  0.00    +0.121 A 
ATOM     15  C   LIG    1       24.723 -17.294   3.658  0.00  0.00    +0.046 A 
ATOM     16  C   LIG    1       24.254 -18.600   3.839  0.00  0.00    +0.016 A 
ATOM     17  C   LIG    1       22.995 -18.845   4.400  0.00  0.00    +0.055 A 
ATOM     18  C   LIG    1       22.192 -17.747   4.747  0.00  0.00    +0.016 A 
ATOM     19  C   LIG    1       22.663 -16.443   4.559  0.00  0.00    +0.046 A 
BRANCH  17  20
ATOM     20  C   LIG    1       22.542 -20.262   4.653  0.00  0.00    +0.417 C 
ATOM     21  F   LIG    1       21.229 -20.450   4.339  0.00  0.00    -0.166 F 
ATOM     22  F   LIG    1       22.668 -20.626   5.959  0.00  0.00    -0.166 F 
ATOM     23  F   LIG    1       23.231 -21.195   3.937  0.00  0.00    -0.166 F 
ENDBRANCH  17  20
ENDBRANCH  13  14
ENDBRANCH   1  13
TORSDOF 7
ENDMDL
MODEL 6
REMARK VINA RESULT:      -5.2      3.948      6.974
REMARK  Name = *****
REMARK                            x       y       z     vdW  Elec       q    Type
REMARK                         _______ _______ _______ _____ _____    ______ ____
ROOT
ATOM      1  C   LIG    1       25.952 -19.807   4.252  0.00  0.00    +0.205 C 
ENDROOT
BRANCH   1   2
ATOM      2  C   LIG    1       24.826 -20.451   5.052  0.00  0.00    -0.007 A 
ATOM      3  C   LIG    1       24.997 -20.945   6.353  0.00  0.00    +0.007 A 
ATOM      4  C   LIG    1       23.922 -21.502   7.059  0.00  0.00    +0.000 A 
ATOM      5  C   LIG    1       22.654 -21.556   6.486  0.00  0.00    +0.000 A 
ATOM      6  C   LIG    1       22.456 -21.047   5.208  0.00  0.00    +0.000 A 
ATOM      7  C   LIG    1       23.530 -20.502   4.501  0.00  0.00    +0.007 A 
ENDBRANCH   1   2
BRANCH   1   8
ATOM      8  C   LIG    1       26.962 -18.933   5.034  0.00  0.00    +0.064 C 
BRANCH   8   9
ATOM      9  C   LIG    1       28.282 -19.621   5.400  0.00  0.00    +0.084 C 
BRANCH   9  11
ATOM     10  C   LIG    1       28.718 -21.338   7.062  0.00  0.00    +0.101 C 
ATOM     11  N   LIG    1       28.273 -19.968   6.829  0.00  0.00    -0.319 NA
ATOM     12  H   LIG    1       28.881 -19.330   7.343  0.00  0.00    +0.122 HD
ENDBRANCH   9  11
ENDBRANCH   8   9
ENDBRANCH   1   8
BRANCH   1  13
ATOM     13  O   LIG    1       25.335 -18.917   3.298  0.00  0.00    -0.484 OA
BRANCH  13  14
ATOM     14  C   LIG    1       25.377 -17.569   3.505  0.00  0.00    +0.121 A 
ATOM     15  C   LIG    1       26.478 -16.747   3.263  0.00  0.00    +0.046 A 
ATOM     16  C   LIG    1       26.368 -15.361   3.418  0.00  0.00    +0.016 A 
ATOM     17  C   LIG    1       25.157 -14.769   3.796  0.00  0.00    +0.055 A 
ATOM     18  C   LIG    1       24.058 -15.602   4.055  0.00  0.00    +0.016 A 
ATOM     19  C   LIG    1       24.174 -16.988   3.904  0.00  0.00    +0.046 A 
BRANCH  17  20
ATOM     20  C   LIG    1       25.044 -13.267   3.885  0.00  0.00    +0.417 C 
ATOM     21  F   LIG    1       25.761 -12.636   2.912  0.00  0.00    -0.166 F 
ATOM     22  F   LIG    1       25.511 -12.777   5.067  0.00  0.00    -0.166 F 
ATOM     23  F   LIG    1       23.769 -12.803   3.765  0.00  0.00    -0.166 F 
ENDBRANCH  17  20
ENDBRANCH  13  14
ENDBRANCH   1  13
TORSDOF 7
ENDMDL
MODEL 7
REMARK VINA RESULT:      -4.5      1.415      2.211
REMARK  Name = *****
REMARK                            x       y       z     vdW  Elec       q    Type
REMARK                         _______ _______ _______ _____ _____    ______ ____
ROOT
ATOM      1  C   LIG    1       26.177 -15.326   3.869  0.00  0.00    +0.205 C 
ENDROOT
BRANCH   1   2
ATOM      2  C   LIG    1       25.483 -14.039   3.440  0.00  0.00    -0.007 A 
ATOM      3  C   LIG    1       25.838 -13.326   2.286  0.00  0.00    +0.007 A 
ATOM      4  C   LIG    1       25.151 -12.162   1.918  0.00  0.00    +0.000 A 
ATOM      5  C   LIG    1       24.083 -11.702   2.685  0.00  0.00    +0.000 A 
ATOM      6  C   LIG    1       23.696 -12.408   3.818  0.00  0.00    +0.000 A 
ATOM      7  C   LIG    1       24.390 -13.563   4.189  0.00  0.00    +0.007 A 
ENDBRANCH   1   2
BRANCH   1   8
ATOM      8  C   LIG    1       27.725 -15.323   3.880  0.00  0.00    +0.064 C 
BRANCH   8   9
ATOM      9  C   LIG    1       28.377 -16.198   4.956  0.00  0.00    +0.084 C 
BRANCH   9  11
ATOM     10  C   LIG    1       28.949 -18.503   5.466  0.00  0.00    +0.101 C 
ATOM     11  N   LIG    1       28.591 -17.552   4.421  0.00  0.00    -0.319 NA
ATOM     12  H   LIG    1       27.743 -17.875   3.954  0.00  0.00    +0.122 HD
ENDBRANCH   9  11
ENDBRANCH   8   9
ENDBRANCH   1   8
BRANCH   1  13
ATOM     13  O   LIG    1       25.805 -16.343   2.914  0.00  0.00    -0.484 OA
BRANCH  13  14
ATOM     14  C   LIG    1       25.167 -17.471   3.341  0.00  0.00    +0.121 A 
ATOM     15  C   LIG    1       25.738 -18.742   3.420  0.00  0.00    +0.046 A 
ATOM     16  C   LIG    1       25.014 -19.805   3.970  0.00  0.00    +0.016 A 
ATOM     17  C   LIG    1       23.720 -19.617   4.469  0.00  0.00    +0.055 A 
ATOM     18  C   LIG    1       23.144 -18.341   4.371  0.00  0.00    +0.016 A 
ATOM     19  C   LIG    1       23.871 -17.282   3.815  0.00  0.00    +0.046 A 
BRANCH  17  20
ATOM     20  C   LIG    1       22.988 -20.763   5.125  0.00  0.00    +0.417 C 
ATOM     21  F   LIG    1       23.824 -21.572   5.835  0.00  0.00    -0.166 F 
ATOM     22  F   LIG    1       22.368 -21.571   4.221  0.00  0.00    -0.166 F 
ATOM     23  F   LIG    1       22.021 -20.368   6.000  0.00  0.00    -0.166 F 
ENDBRANCH  17  20
ENDBRANCH  13  14
ENDBRANCH   1  13
TORSDOF 7
ENDMDL
MODEL 8
REMARK VINA RESULT:      -3.7      2.386      3.401
REMARK  Name = *****
REMARK                            x       y       z     vdW  Elec       q    Type
REMARK                         _______ _______ _______ _____ _____    ______ ____
ROOT
ATOM      1  C   LIG    1       27.513 -17.005   4.390  0.00  0.00    +0.205 C 
ENDROOT
BRANCH   1   2
ATOM      2  C   LIG    1       27.276 -15.569   3.938  0.00  0.00    -0.007 A 
ATOM      3  C   LIG    1       28.205 -14.538   4.145  0.00  0.00    +0.007 A 
ATOM      4  C   LIG    1       27.954 -13.239   3.685  0.00  0.00    +0.000 A 
ATOM      5  C   LIG    1       26.781 -12.952   2.990  0.00  0.00    +0.000 A 
ATOM      6  C   LIG    1       25.859 -13.964   2.749  0.00  0.00    +0.000 A 
ATOM      7  C   LIG    1       26.106 -15.256   3.219  0.00  0.00    +0.007 A 
ENDBRANCH   1   2
BRANCH   1   8
ATOM      8  C   LIG    1       28.984 -17.466   4.533  0.00  0.00    +0.064 C 
BRANCH   8   9
ATOM      9  C   LIG    1       29.304 -18.259   5.804  0.00  0.00    +0.084 C 
BRANCH   9  11
ATOM     10  C   LIG    1       29.056 -20.505   6.695  0.00  0.00    +0.101 C 
ATOM     11  N   LIG    1       28.474 -19.472   5.846  0.00  0.00    -0.319 NA
ATOM     12  H   LIG    1       27.544 -19.241   6.196  0.00  0.00    +0.122 HD
ENDBRANCH   9  11
ENDBRANCH   8   9
ENDBRANCH   1   8
BRANCH   1  13
ATOM     13  O   LIG    1       26.940 -17.864   3.382  0.00  0.00    -0.484 OA
BRANCH  13  14
ATOM     14  C   LIG    1       25.845 -18.621   3.680  0.00  0.00    +0.121 A 
ATOM     15  C   LIG    1       25.874 -19.910   4.214  0.00  0.00    +0.046 A 
ATOM     16  C   LIG    1       24.682 -20.549   4.574  0.00  0.00    +0.016 A 
ATOM     17  C   LIG    1       23.446 -19.909   4.428  0.00  0.00    +0.055 A 
ATOM     18  C   LIG    1       23.421 -18.619   3.875  0.00  0.00    +0.016 A 
ATOM     19  C   LIG    1       24.615 -17.987   3.511  0.00  0.00    +0.046 A 
BRANCH  17  20
ATOM     20  C   LIG    1       22.182 -20.591   4.892  0.00  0.00    +0.417 C 
ATOM     21  F   LIG    1       21.140 -19.720   5.018  0.00  0.00    -0.166 F 
ATOM     22  F   LIG    1       22.324 -21.179   6.112  0.00  0.00    -0.166 F 
ATOM     23  F   LIG    1       21.746 -21.572   4.052  0.00  0.00    -0.166 F 
ENDBRANCH  17  20
ENDBRANCH  13  14
ENDBRANCH   1  13
TORSDOF 7
ENDMDL
MODEL 9
REMARK VINA RESULT:      -3.2      1.280      1.842
REMARK  Name = *****
REMARK                            x       y       z     vdW  Elec       q    Type
REMARK                         _______ _______ _______ _____ _____    ______ ____
ROOT
ATOM      1  C   LIG    1       26.689 -14.467   3.437  0.00  0.00    +0.205 C 
ENDROOT
BRANCH   1   2
ATOM      2  C   LIG    1       25.606 -13.395   3.455  0.00  0.00    -0.007 A 
ATOM      3  C   LIG    1       25.156 -12.741   2.298  0.00  0.00    +0.007 A 
ATOM      4  C   LIG    1       24.137 -11.782   2.363  0.00  0.00    +0.000 A 
ATOM      5  C   LIG    1       23.534 -11.475   3.580  0.00  0.00    +0.000 A 
ATOM      6  C   LIG    1       23.945 -12.130   4.736  0.00  0.00    +0.000 A 
ATOM      7  C   LIG    1       24.970 -13.078   4.671  0.00  0.00    +0.007 A 
ENDBRANCH   1   2
BRANCH   1   8
ATOM      8  C   LIG    1       28.022 -14.110   2.735  0.00  0.00    +0.064 C 
BRANCH   8   9
ATOM      9  C   LIG    1       29.073 -13.434   3.622  0.00  0.00    +0.084 C 
BRANCH   9  11
ATOM     10  C   LIG    1       28.457 -12.266   5.660  0.00  0.00    +0.101 C 
ATOM     11  N   LIG    1       28.507 -12.208   4.204  0.00  0.00    -0.319 NA
ATOM     12  H   LIG    1       29.067 -11.403   3.923  0.00  0.00    +0.122 HD
ENDBRANCH   9  11
ENDBRANCH   8   9
ENDBRANCH   1   8
BRANCH   1  13
ATOM     13  O   LIG    1       26.159 -15.589   2.700  0.00  0.00    -0.484 OA
BRANCH  13  14
ATOM     14  C   LIG    1       26.139 -16.826   3.274  0.00  0.00    +0.121 A 
ATOM     15  C   LIG    1       27.205 -17.422   3.949  0.00  0.00    +0.046 A 
ATOM     16  C   LIG    1       27.034 -18.656   4.585  0.00  0.00    +0.016 A 
ATOM     17  C   LIG    1       25.794 -19.307   4.578  0.00  0.00    +0.055 A 
ATOM     18  C   LIG    1       24.730 -18.712   3.883  0.00  0.00    +0.016 A 
ATOM     19  C   LIG    1       24.908 -17.480   3.244  0.00  0.00    +0.046 A 
BRANCH  17  20
ATOM     20  C   LIG    1       25.616 -20.601   5.334  0.00  0.00    +0.417 C 
ATOM     21  F   LIG    1       24.897 -20.435   6.481  0.00  0.00    -0.166 F 
ATOM     22  F   LIG    1       26.802 -21.152   5.715  0.00  0.00    -0.166 F 
ATOM     23  F   LIG    1       24.965 -21.566   4.625  0.00  0.00    -0.166 F 
ENDBRANCH  17  20
ENDBRANCH  13  14
ENDBRANCH   1  13
TORSDOF 7
ENDMDL
