MODEL 1
REMARK VINA RESULT:       1.8      0.000      0.000
REMARK  Name = *****
REMARK                            x       y       z     vdW  Elec       q    Type
REMARK                         _______ _______ _______ _____ _____    ______ ____
ROOT
ATOM      1  N   LIG    1       25.019 -14.278   4.093  0.00  0.00    -0.344 NA
ATOM      2  C   LIG    1       25.138 -15.692   4.007  0.00  0.00    +0.090 C 
ATOM      3  C   LIG    1       26.435 -16.249   3.935  0.00  0.00    +0.052 C 
ATOM      4  C   LIG    1       26.648 -17.624   3.827  0.00  0.00    +0.054 C 
ATOM      5  C   LIG    1       25.565 -18.483   3.757  0.00  0.00    +0.148 C 
ATOM      6  C   LIG    1       24.240 -18.023   3.811  0.00  0.00    +0.103 C 
ATOM      7  F   LIG    1       25.848 -19.791   3.661  0.00  0.00    -0.203 F 
ATOM      8  C   LIG    1       27.633 -15.378   3.972  0.00  0.00    +0.203 C 
ATOM      9  O   LIG    1       28.770 -15.848   3.967  0.00  0.00    -0.286 OA
ATOM     10  C   LIG    1       27.438 -13.922   4.008  0.00  0.00    +0.122 C 
ATOM     11  C   LIG    1       24.062 -16.618   3.969  0.00  0.00    +0.171 C 
ATOM     12  F   LIG    1       22.797 -16.171   4.057  0.00  0.00    -0.201 F 
ATOM     13  C   LIG    1       26.171 -13.492   4.057  0.00  0.00    +0.105 C 
ENDROOT
BRANCH   6  14
ATOM     14  N   LIG    1       23.107 -18.877   3.697  0.00  0.00    -0.323 NA
ATOM     15  C   LIG    1       21.867 -18.129   3.364  0.00  0.00    +0.123 C 
ATOM     16  C   LIG    1       20.645 -19.089   3.208  0.00  0.00    +0.068 C 
ATOM     17  C   LIG    1       19.352 -18.288   3.057  0.00  0.00    +0.025 C 
ATOM     18  N   LIG    1       20.467 -20.025   4.344  0.00  0.00    -0.310 NA
ATOM     19  H   LIG    1       20.296 -19.477   5.189  0.00  0.00    +0.122 HD
ATOM     20  C   LIG    1       21.721 -20.778   4.531  0.00  0.00    +0.100 C 
ATOM     21  C   LIG    1       22.919 -19.849   4.801  0.00  0.00    +0.120 C 
ENDBRANCH   6  14
BRANCH   1  23
ATOM     22  C   LIG    1       23.811 -12.116   4.339  0.00  0.00    +0.027 C 
ATOM     23  C   LIG    1       23.700 -13.632   4.258  0.00  0.00    +0.118 C 
ENDBRANCH   1  23
BRANCH  10  24
ATOM     24  C   LIG    1       28.550 -12.946   4.010  0.00  0.00    +0.342 C 
ATOM     25  O   LIG    1       28.704 -12.109   4.881  0.00  0.00    -0.245 OA
BRANCH  24  26
ATOM     26  O   LIG    1       29.399 -13.059   2.961  0.00  0.00    -0.477 OA
ATOM     27  H   LIG    1       29.673 -13.987   2.762  0.00  0.00    +0.295 HD
ENDBRANCH  24  26
ENDBRANCH  10  24
TORSDOF 4
ENDMDL
MODEL 2
REMARK VINA RESULT:       2.0      3.407      6.916
REMARK  Name = *****
REMARK                            x       y       z     vdW  Elec       q    Type
REMARK                         _______ _______ _______ _____ _____    ______ ____
ROOT
ATOM      1  N   LIG    1       22.657 -17.420   4.562  0.00  0.00    -0.344 NA
ATOM      2  C   LIG    1       23.997 -17.297   4.107  0.00  0.00    +0.090 C 
ATOM      3  C   LIG    1       24.802 -18.458   4.080  0.00  0.00    +0.052 C 
ATOM      4  C   LIG    1       26.135 -18.429   3.669  0.00  0.00    +0.054 C 
ATOM      5  C   LIG    1       26.714 -17.227   3.300  0.00  0.00    +0.148 C 
ATOM      6  C   LIG    1       25.998 -16.020   3.303  0.00  0.00    +0.103 C 
ATOM      7  F   LIG    1       27.996 -17.279   2.910  0.00  0.00    -0.203 F 
ATOM      8  C   LIG    1       24.249 -19.769   4.494  0.00  0.00    +0.203 C 
ATOM      9  O   LIG    1       24.916 -20.800   4.424  0.00  0.00    -0.286 OA
ATOM     10  C   LIG    1       22.871 -19.817   5.005  0.00  0.00    +0.122 C 
ATOM     11  C   LIG    1       24.627 -16.096   3.684  0.00  0.00    +0.171 C 
ATOM     12  F   LIG    1       23.924 -14.950   3.656  0.00  0.00    -0.201 F 
ATOM     13  C   LIG    1       22.198 -18.659   5.007  0.00  0.00    +0.105 C 
ENDROOT
BRANCH   6  14
ATOM     14  N   LIG    1       26.577 -14.763   2.972  0.00  0.00    -0.323 NA
ATOM     15  C   LIG    1       27.498 -14.270   4.028  0.00  0.00    +0.123 C 
ATOM     16  C   LIG    1       28.150 -12.908   3.629  0.00  0.00    +0.068 C 
ATOM     17  C   LIG    1       28.938 -12.327   4.803  0.00  0.00    +0.025 C 
ATOM     18  N   LIG    1       27.176 -11.882   3.188  0.00  0.00    -0.310 NA
ATOM     19  H   LIG    1       26.544 -11.681   3.966  0.00  0.00    +0.122 HD
ATOM     20  C   LIG    1       26.377 -12.440   2.080  0.00  0.00    +0.100 C 
ATOM     21  C   LIG    1       25.633 -13.724   2.494  0.00  0.00    +0.120 C 
ENDBRANCH   6  14
BRANCH   1  23
ATOM     22  C   LIG    1       21.667 -15.555   5.880  0.00  0.00    +0.027 C 
ATOM     23  C   LIG    1       21.733 -16.266   4.537  0.00  0.00    +0.118 C 
ENDBRANCH   1  23
BRANCH  10  24
ATOM     24  C   LIG    1       22.217 -21.054   5.483  0.00  0.00    +0.342 C 
ATOM     25  O   LIG    1       22.468 -21.571   6.556  0.00  0.00    -0.245 OA
BRANCH  24  26
ATOM     26  O   LIG    1       21.301 -21.571   4.631  0.00  0.00    -0.477 OA
ATOM     27  H   LIG    1       20.571 -20.948   4.396  0.00  0.00    +0.295 HD
ENDBRANCH  24  26
ENDBRANCH  10  24
TORSDOF 4
ENDMDL
MODEL 3
REMARK VINA RESULT:       3.3      1.819      3.430
REMARK  Name = *****
REMARK                            x       y       z     vdW  Elec       q    Type
REMARK                         _______ _______ _______ _____ _____    ______ ____
ROOT
ATOM      1  N   LIG    1       27.444 -16.153   3.982  0.00  0.00    -0.344 NA
ATOM      2  C   LIG    1       26.025 -16.221   4.017  0.00  0.00    +0.090 C 
ATOM      3  C   LIG    1       25.299 -15.010   4.072  0.00  0.00    +0.052 C 
ATOM      4  C   LIG    1       23.905 -14.981   4.131  0.00  0.00    +0.054 C 
ATOM      5  C   LIG    1       23.194 -16.168   4.166  0.00  0.00    +0.148 C 
ATOM      6  C   LIG    1       23.827 -17.420   4.124  0.00  0.00    +0.103 C 
ATOM      7  F   LIG    1       21.858 -16.060   4.215  0.00  0.00    -0.203 F 
ATOM      8  C   LIG    1       26.005 -13.708   4.071  0.00  0.00    +0.203 C 
ATOM      9  O   LIG    1       25.390 -12.642   4.062  0.00  0.00    -0.286 OA
ATOM     10  C   LIG    1       27.475 -13.709   4.087  0.00  0.00    +0.122 C 
ATOM     11  C   LIG    1       25.248 -17.410   4.018  0.00  0.00    +0.171 C 
ATOM     12  F   LIG    1       25.860 -18.605   3.942  0.00  0.00    -0.201 F 
ATOM     13  C   LIG    1       28.069 -14.908   4.051  0.00  0.00    +0.105 C 
ENDROOT
BRANCH   6  14
ATOM     14  N   LIG    1       23.126 -18.657   4.204  0.00  0.00    -0.323 NA
ATOM     15  C   LIG    1       23.273 -19.305   5.533  0.00  0.00    +0.123 C 
ATOM     16  C   LIG    1       22.467 -20.640   5.610  0.00  0.00    +0.068 C 
ATOM     17  C   LIG    1       22.786 -21.383   6.908  0.00  0.00    +0.025 C 
ATOM     18  N   LIG    1       22.731 -21.567   4.484  0.00  0.00    -0.310 NA
ATOM     19  H   LIG    1       23.719 -21.826   4.504  0.00  0.00    +0.122 HD
ATOM     20  C   LIG    1       22.469 -20.854   3.219  0.00  0.00    +0.100 C 
ATOM     21  C   LIG    1       23.342 -19.593   3.075  0.00  0.00    +0.120 C 
ENDBRANCH   6  14
BRANCH   1  23
ATOM     22  C   LIG    1       28.864 -17.822   5.162  0.00  0.00    +0.027 C 
ATOM     23  C   LIG    1       28.264 -17.374   3.837  0.00  0.00    +0.118 C 
ENDBRANCH   1  23
BRANCH  10  24
ATOM     24  C   LIG    1       28.295 -12.478   4.123  0.00  0.00    +0.342 C 
ATOM     25  O   LIG    1       28.778 -11.966   3.130  0.00  0.00    -0.245 OA
BRANCH  24  26
ATOM     26  O   LIG    1       28.463 -11.952   5.360  0.00  0.00    -0.477 OA
ATOM     27  H   LIG    1       27.697 -12.092   5.967  0.00  0.00    +0.295 HD
ENDBRANCH  24  26
ENDBRANCH  10  24
TORSDOF 4
ENDMDL
MODEL 4
REMARK VINA RESULT:       3.9      1.451      3.045
REMARK  Name = *****
REMARK                            x       y       z     vdW  Elec       q    Type
REMARK                         _______ _______ _______ _____ _____    ______ ____
ROOT
ATOM      1  N   LIG    1       27.389 -16.202   3.930  0.00  0.00    -0.344 NA
ATOM      2  C   LIG    1       25.970 -16.273   3.952  0.00  0.00    +0.090 C 
ATOM      3  C   LIG    1       25.244 -15.068   4.083  0.00  0.00    +0.052 C 
ATOM      4  C   LIG    1       23.849 -15.043   4.135  0.00  0.00    +0.054 C 
ATOM      5  C   LIG    1       23.139 -16.230   4.088  0.00  0.00    +0.148 C 
ATOM      6  C   LIG    1       23.772 -17.477   3.968  0.00  0.00    +0.103 C 
ATOM      7  F   LIG    1       21.802 -16.126   4.136  0.00  0.00    -0.203 F 
ATOM      8  C   LIG    1       25.948 -13.768   4.171  0.00  0.00    +0.203 C 
ATOM      9  O   LIG    1       25.333 -12.705   4.228  0.00  0.00    -0.286 OA
ATOM     10  C   LIG    1       27.418 -13.770   4.195  0.00  0.00    +0.122 C 
ATOM     11  C   LIG    1       25.194 -17.459   3.871  0.00  0.00    +0.171 C 
ATOM     12  F   LIG    1       25.807 -18.647   3.721  0.00  0.00    -0.201 F 
ATOM     13  C   LIG    1       28.013 -14.964   4.084  0.00  0.00    +0.105 C 
ENDROOT
BRANCH   6  14
ATOM     14  N   LIG    1       23.072 -18.716   3.962  0.00  0.00    -0.323 NA
ATOM     15  C   LIG    1       21.610 -18.537   3.773  0.00  0.00    +0.123 C 
ATOM     16  C   LIG    1       20.865 -19.909   3.733  0.00  0.00    +0.068 C 
ATOM     17  C   LIG    1       19.351 -19.697   3.732  0.00  0.00    +0.025 C 
ATOM     18  N   LIG    1       21.195 -20.804   4.868  0.00  0.00    -0.310 NA
ATOM     19  H   LIG    1       20.907 -20.346   5.734  0.00  0.00    +0.122 HD
ATOM     20  C   LIG    1       22.658 -20.987   4.911  0.00  0.00    +0.100 C 
ATOM     21  C   LIG    1       23.404 -19.648   5.066  0.00  0.00    +0.120 C 
ENDBRANCH   6  14
BRANCH   1  23
ATOM     22  C   LIG    1       28.845 -17.915   4.999  0.00  0.00    +0.027 C 
ATOM     23  C   LIG    1       28.211 -17.411   3.710  0.00  0.00    +0.118 C 
ENDBRANCH   1  23
BRANCH  10  24
ATOM     24  C   LIG    1       28.237 -12.544   4.317  0.00  0.00    +0.342 C 
ATOM     25  O   LIG    1       28.623 -11.899   3.360  0.00  0.00    -0.245 OA
BRANCH  24  26
ATOM     26  O   LIG    1       28.523 -12.184   5.591  0.00  0.00    -0.477 OA
ATOM     27  H   LIG    1       27.812 -12.402   6.242  0.00  0.00    +0.295 HD
ENDBRANCH  24  26
ENDBRANCH  10  24
TORSDOF 4
ENDMDL
