MODEL 1
REMARK VINA RESULT:      -5.1      0.000      0.000
REMARK  Name = *****
REMARK                            x       y       z     vdW  Elec       q    Type
REMARK                         _______ _______ _______ _____ _____    ______ ____
ROOT
ATOM      1  N   LIG    1       24.504 -19.771   5.238  0.00  0.00    -0.291 NA
ENDROOT
BRANCH   1   3
ATOM      2  C   LIG    1       25.042 -19.758   2.754  0.00  0.00    +0.028 C 
ATOM      3  C   LIG    1       24.150 -19.209   3.895  0.00  0.00    +0.091 C 
BRANCH   3   4
ATOM      4  C   LIG    1       24.279 -17.656   3.810  0.00  0.00    +0.247 C 
BRANCH   4   5
ATOM      5  O   LIG    1       25.476 -17.218   3.162  0.00  0.00    -0.490 OA
BRANCH   5   6
ATOM      6  C   LIG    1       25.871 -15.931   3.429  0.00  0.00    +0.121 A 
ATOM      7  C   LIG    1       27.242 -15.720   3.571  0.00  0.00    +0.045 A 
ATOM      8  C   LIG    1       27.730 -14.447   3.893  0.00  0.00    +0.004 A 
ATOM      9  C   LIG    1       26.839 -13.382   4.080  0.00  0.00    +0.000 A 
ATOM     10  C   LIG    1       25.478 -13.587   3.933  0.00  0.00    +0.004 A 
ATOM     11  C   LIG    1       24.992 -14.852   3.609  0.00  0.00    +0.045 A 
ENDBRANCH   5   6
ENDBRANCH   4   5
ENDBRANCH   3   4
ENDBRANCH   1   3
BRANCH   1  12
ATOM     12  C   LIG    1       25.545 -20.823   5.159  0.00  0.00    +0.120 C 
BRANCH  12  13
ATOM     13  C   LIG    1       26.921 -20.412   5.647  0.00  0.00    -0.033 A 
ATOM     14  C   LIG    1       27.545 -19.260   5.143  0.00  0.00    +0.005 A 
ATOM     15  C   LIG    1       28.809 -18.881   5.599  0.00  0.00    +0.000 A 
ATOM     16  C   LIG    1       29.464 -19.649   6.559  0.00  0.00    +0.000 A 
ATOM     17  C   LIG    1       28.859 -20.799   7.061  0.00  0.00    +0.000 A 
ATOM     18  C   LIG    1       27.598 -21.183   6.604  0.00  0.00    +0.005 A 
ENDBRANCH  12  13
ENDBRANCH   1  12
BRANCH   1  19
ATOM     19  C   LIG    1       23.309 -20.234   5.998  0.00  0.00    +0.101 C 
BRANCH  19  20
ATOM     20  C   LIG    1       22.661 -21.554   5.555  0.00  0.00    +0.124 C 
ATOM     21 CL   LIG    1       21.249 -21.244   4.508  0.00  0.00    -0.124 Cl
ENDBRANCH  19  20
ENDBRANCH   1  19
TORSDOF 8
ENDMDL
MODEL 2
REMARK VINA RESULT:      -4.8      0.867      1.357
REMARK  Name = *****
REMARK                            x       y       z     vdW  Elec       q    Type
REMARK                         _______ _______ _______ _____ _____    ______ ____
ROOT
ATOM      1  N   LIG    1       24.505 -19.760   5.158  0.00  0.00    -0.291 NA
ENDROOT
BRANCH   1   3
ATOM      2  C   LIG    1       24.794 -20.386   2.712  0.00  0.00    +0.028 C 
ATOM      3  C   LIG    1       24.405 -19.293   3.738  0.00  0.00    +0.091 C 
BRANCH   3   4
ATOM      4  C   LIG    1       25.324 -18.074   3.411  0.00  0.00    +0.247 C 
BRANCH   4   5
ATOM      5  O   LIG    1       24.653 -16.814   3.504  0.00  0.00    -0.490 OA
BRANCH   5   6
ATOM      6  C   LIG    1       25.458 -15.710   3.637  0.00  0.00    +0.121 A 
ATOM      7  C   LIG    1       24.809 -14.485   3.791  0.00  0.00    +0.045 A 
ATOM      8  C   LIG    1       25.553 -13.301   3.885  0.00  0.00    +0.004 A 
ATOM      9  C   LIG    1       26.951 -13.344   3.817  0.00  0.00    +0.000 A 
ATOM     10  C   LIG    1       27.597 -14.560   3.670  0.00  0.00    +0.004 A 
ATOM     11  C   LIG    1       26.860 -15.738   3.582  0.00  0.00    +0.045 A 
ENDBRANCH   5   6
ENDBRANCH   4   5
ENDBRANCH   3   4
ENDBRANCH   1   3
BRANCH   1  12
ATOM     12  C   LIG    1       25.454 -20.885   5.323  0.00  0.00    +0.120 C 
BRANCH  12  13
ATOM     13  C   LIG    1       26.859 -20.493   5.741  0.00  0.00    -0.033 A 
ATOM     14  C   LIG    1       27.475 -19.354   5.198  0.00  0.00    +0.005 A 
ATOM     15  C   LIG    1       28.766 -18.992   5.589  0.00  0.00    +0.000 A 
ATOM     16  C   LIG    1       29.455 -19.764   6.522  0.00  0.00    +0.000 A 
ATOM     17  C   LIG    1       28.857 -20.901   7.062  0.00  0.00    +0.000 A 
ATOM     18  C   LIG    1       27.569 -21.267   6.669  0.00  0.00    +0.005 A 
ENDBRANCH  12  13
ENDBRANCH   1  12
BRANCH   1  19
ATOM     19  C   LIG    1       23.174 -20.069   5.753  0.00  0.00    +0.101 C 
BRANCH  19  20
ATOM     20  C   LIG    1       21.959 -20.035   4.814  0.00  0.00    +0.124 C 
ATOM     21 CL   LIG    1       21.594 -18.360   4.314  0.00  0.00    -0.124 Cl
ENDBRANCH  19  20
ENDBRANCH   1  19
TORSDOF 8
ENDMDL
MODEL 3
REMARK VINA RESULT:      -4.4      3.690      6.749
REMARK  Name = *****
REMARK                            x       y       z     vdW  Elec       q    Type
REMARK                         _______ _______ _______ _____ _____    ______ ____
ROOT
ATOM      1  N   LIG    1       24.102 -14.416   3.688  0.00  0.00    -0.291 NA
ENDROOT
BRANCH   1   3
ATOM      2  C   LIG    1       22.643 -15.254   5.592  0.00  0.00    +0.028 C 
ATOM      3  C   LIG    1       22.975 -15.321   4.081  0.00  0.00    +0.091 C 
BRANCH   3   4
ATOM      4  C   LIG    1       23.247 -16.829   3.783  0.00  0.00    +0.247 C 
BRANCH   4   5
ATOM      5  O   LIG    1       22.467 -17.719   4.586  0.00  0.00    -0.490 OA
BRANCH   5   6
ATOM      6  C   LIG    1       22.974 -18.983   4.755  0.00  0.00    +0.121 A 
ATOM      7  C   LIG    1       23.953 -19.384   3.847  0.00  0.00    +0.045 A 
ATOM      8  C   LIG    1       24.490 -20.677   3.915  0.00  0.00    +0.004 A 
ATOM      9  C   LIG    1       24.039 -21.572   4.894  0.00  0.00    +0.000 A 
ATOM     10  C   LIG    1       23.072 -21.173   5.801  0.00  0.00    +0.004 A 
ATOM     11  C   LIG    1       22.540 -19.887   5.736  0.00  0.00    +0.045 A 
ENDBRANCH   5   6
ENDBRANCH   4   5
ENDBRANCH   3   4
ENDBRANCH   1   3
BRANCH   1  12
ATOM     12  C   LIG    1       25.422 -15.082   3.765  0.00  0.00    +0.120 C 
BRANCH  12  13
ATOM     13  C   LIG    1       26.598 -14.163   4.039  0.00  0.00    -0.033 A 
ATOM     14  C   LIG    1       27.484 -13.806   3.010  0.00  0.00    +0.005 A 
ATOM     15  C   LIG    1       28.561 -12.956   3.264  0.00  0.00    +0.000 A 
ATOM     16  C   LIG    1       28.767 -12.455   4.548  0.00  0.00    +0.000 A 
ATOM     17  C   LIG    1       27.900 -12.808   5.580  0.00  0.00    +0.000 A 
ATOM     18  C   LIG    1       26.825 -13.662   5.329  0.00  0.00    +0.005 A 
ENDBRANCH  12  13
ENDBRANCH   1  12
BRANCH   1  19
ATOM     19  C   LIG    1       24.089 -13.128   4.437  0.00  0.00    +0.101 C 
BRANCH  19  20
ATOM     20  C   LIG    1       23.814 -11.849   3.632  0.00  0.00    +0.124 C 
ATOM     21 CL   LIG    1       24.573 -11.943   2.019  0.00  0.00    -0.124 Cl
ENDBRANCH  19  20
ENDBRANCH   1  19
TORSDOF 8
ENDMDL
MODEL 4
REMARK VINA RESULT:      -3.9      2.455      6.739
REMARK  Name = *****
REMARK                            x       y       z     vdW  Elec       q    Type
REMARK                         _______ _______ _______ _____ _____    ______ ____
ROOT
ATOM      1  N   LIG    1       26.803 -16.540   4.062  0.00  0.00    -0.291 NA
ENDROOT
BRANCH   1   3
ATOM      2  C   LIG    1       24.264 -16.593   3.990  0.00  0.00    +0.028 C 
ATOM      3  C   LIG    1       25.593 -17.002   3.309  0.00  0.00    +0.091 C 
BRANCH   3   4
ATOM      4  C   LIG    1       25.512 -18.552   3.140  0.00  0.00    +0.247 C 
BRANCH   4   5
ATOM      5  O   LIG    1       24.274 -19.110   3.589  0.00  0.00    -0.490 OA
BRANCH   5   6
ATOM      6  C   LIG    1       24.341 -19.907   4.704  0.00  0.00    +0.121 A 
ATOM      7  C   LIG    1       23.148 -20.104   5.398  0.00  0.00    +0.045 A 
ATOM      8  C   LIG    1       23.134 -20.864   6.575  0.00  0.00    +0.004 A 
ATOM      9  C   LIG    1       24.322 -21.423   7.062  0.00  0.00    +0.000 A 
ATOM     10  C   LIG    1       25.507 -21.235   6.371  0.00  0.00    +0.004 A 
ATOM     11  C   LIG    1       25.522 -20.483   5.199  0.00  0.00    +0.045 A 
ENDBRANCH   5   6
ENDBRANCH   4   5
ENDBRANCH   3   4
ENDBRANCH   1   3
BRANCH   1  12
ATOM     12  C   LIG    1       27.262 -15.198   3.635  0.00  0.00    +0.120 C 
BRANCH  12  13
ATOM     13  C   LIG    1       26.168 -14.156   3.485  0.00  0.00    -0.033 A 
ATOM     14  C   LIG    1       25.507 -13.645   4.613  0.00  0.00    +0.005 A 
ATOM     15  C   LIG    1       24.505 -12.683   4.472  0.00  0.00    +0.000 A 
ATOM     16  C   LIG    1       24.153 -12.222   3.205  0.00  0.00    +0.000 A 
ATOM     17  C   LIG    1       24.797 -12.727   2.077  0.00  0.00    +0.000 A 
ATOM     18  C   LIG    1       25.794 -13.692   2.215  0.00  0.00    +0.005 A 
ENDBRANCH  12  13
ENDBRANCH   1  12
BRANCH   1  19
ATOM     19  C   LIG    1       27.911 -17.536   4.032  0.00  0.00    +0.101 C 
BRANCH  19  20
ATOM     20  C   LIG    1       28.764 -17.677   5.303  0.00  0.00    +0.124 C 
ATOM     21 CL   LIG    1       28.750 -19.364   5.889  0.00  0.00    -0.124 Cl
ENDBRANCH  19  20
ENDBRANCH   1  19
TORSDOF 8
ENDMDL
MODEL 5
REMARK VINA RESULT:      -3.7      2.247      4.350
REMARK  Name = *****
REMARK                            x       y       z     vdW  Elec       q    Type
REMARK                         _______ _______ _______ _____ _____    ______ ____
ROOT
ATOM      1  N   LIG    1       26.821 -19.646   4.314  0.00  0.00    -0.291 NA
ENDROOT
BRANCH   1   3
ATOM      2  C   LIG    1       28.363 -17.772   5.068  0.00  0.00    +0.028 C 
ATOM      3  C   LIG    1       27.447 -18.333   3.953  0.00  0.00    +0.091 C 
BRANCH   3   4
ATOM      4  C   LIG    1       26.412 -17.203   3.659  0.00  0.00    +0.247 C 
BRANCH   4   5
ATOM      5  O   LIG    1       27.007 -15.912   3.502  0.00  0.00    -0.490 OA
BRANCH   5   6
ATOM      6  C   LIG    1       26.140 -14.866   3.309  0.00  0.00    +0.121 A 
ATOM      7  C   LIG    1       24.929 -14.930   3.996  0.00  0.00    +0.045 A 
ATOM      8  C   LIG    1       23.964 -13.929   3.819  0.00  0.00    +0.004 A 
ATOM      9  C   LIG    1       24.213 -12.864   2.944  0.00  0.00    +0.000 A 
ATOM     10  C   LIG    1       25.418 -12.795   2.265  0.00  0.00    +0.004 A 
ATOM     11  C   LIG    1       26.379 -13.787   2.444  0.00  0.00    +0.045 A 
ENDBRANCH   5   6
ENDBRANCH   4   5
ENDBRANCH   3   4
ENDBRANCH   1   3
BRANCH   1  12
ATOM     12  C   LIG    1       25.723 -20.026   3.394  0.00  0.00    +0.120 C 
BRANCH  12  13
ATOM     13  C   LIG    1       24.327 -19.944   3.982  0.00  0.00    -0.033 A 
ATOM     14  C   LIG    1       23.767 -21.042   4.655  0.00  0.00    +0.005 A 
ATOM     15  C   LIG    1       22.484 -20.961   5.199  0.00  0.00    +0.000 A 
ATOM     16  C   LIG    1       21.746 -19.786   5.076  0.00  0.00    +0.000 A 
ATOM     17  C   LIG    1       22.288 -18.691   4.404  0.00  0.00    +0.000 A 
ATOM     18  C   LIG    1       23.567 -18.771   3.854  0.00  0.00    +0.005 A 
ENDBRANCH  12  13
ENDBRANCH   1  12
BRANCH   1  19
ATOM     19  C   LIG    1       26.391 -19.702   5.740  0.00  0.00    +0.101 C 
BRANCH  19  20
ATOM     20  C   LIG    1       26.951 -20.847   6.598  0.00  0.00    +0.124 C 
ATOM     21 CL   LIG    1       28.736 -20.848   6.561  0.00  0.00    -0.124 Cl
ENDBRANCH  19  20
ENDBRANCH   1  19
TORSDOF 8
ENDMDL
MODEL 6
REMARK VINA RESULT:      -3.4      3.222      4.439
REMARK  Name = *****
REMARK                            x       y       z     vdW  Elec       q    Type
REMARK                         _______ _______ _______ _____ _____    ______ ____
ROOT
ATOM      1  N   LIG    1       23.553 -16.855   3.686  0.00  0.00    -0.291 NA
ENDROOT
BRANCH   1   3
ATOM      2  C   LIG    1       22.328 -15.611   5.532  0.00  0.00    +0.028 C 
ATOM      3  C   LIG    1       23.484 -15.601   4.502  0.00  0.00    +0.091 C 
BRANCH   3   4
ATOM      4  C   LIG    1       23.270 -14.309   3.653  0.00  0.00    +0.247 C 
BRANCH   4   5
ATOM      5  O   LIG    1       23.966 -13.169   4.164  0.00  0.00    -0.490 OA
BRANCH   5   6
ATOM      6  C   LIG    1       25.337 -13.231   4.126  0.00  0.00    +0.121 A 
ATOM      7  C   LIG    1       25.923 -13.213   2.861  0.00  0.00    +0.045 A 
ATOM      8  C   LIG    1       27.314 -13.321   2.727  0.00  0.00    +0.004 A 
ATOM      9  C   LIG    1       28.119 -13.456   3.865  0.00  0.00    +0.000 A 
ATOM     10  C   LIG    1       27.540 -13.467   5.123  0.00  0.00    +0.004 A 
ATOM     11  C   LIG    1       26.158 -13.355   5.258  0.00  0.00    +0.045 A 
ENDBRANCH   5   6
ENDBRANCH   4   5
ENDBRANCH   3   4
ENDBRANCH   1   3
BRANCH   1  12
ATOM     12  C   LIG    1       22.502 -17.833   4.053  0.00  0.00    +0.120 C 
BRANCH  12  13
ATOM     13  C   LIG    1       23.007 -19.146   4.621  0.00  0.00    -0.033 A 
ATOM     14  C   LIG    1       23.795 -20.007   3.841  0.00  0.00    +0.005 A 
ATOM     15  C   LIG    1       24.263 -21.212   4.368  0.00  0.00    +0.000 A 
ATOM     16  C   LIG    1       23.947 -21.571   5.676  0.00  0.00    +0.000 A 
ATOM     17  C   LIG    1       23.160 -20.729   6.458  0.00  0.00    +0.000 A 
ATOM     18  C   LIG    1       22.686 -19.527   5.932  0.00  0.00    +0.005 A 
ENDBRANCH  12  13
ENDBRANCH   1  12
BRANCH   1  19
ATOM     19  C   LIG    1       24.909 -17.473   3.699  0.00  0.00    +0.101 C 
BRANCH  19  20
ATOM     20  C   LIG    1       26.092 -16.579   3.297  0.00  0.00    +0.124 C 
ATOM     21 CL   LIG    1       27.596 -17.129   4.087  0.00  0.00    -0.124 Cl
ENDBRANCH  19  20
ENDBRANCH   1  19
TORSDOF 8
ENDMDL
MODEL 7
REMARK VINA RESULT:      -3.2      2.370      4.227
REMARK  Name = *****
REMARK                            x       y       z     vdW  Elec       q    Type
REMARK                         _______ _______ _______ _____ _____    ______ ____
ROOT
ATOM      1  N   LIG    1       27.335 -19.178   4.698  0.00  0.00    -0.291 NA
ENDROOT
BRANCH   1   3
ATOM      2  C   LIG    1       25.503 -18.300   3.172  0.00  0.00    +0.028 C 
ATOM      3  C   LIG    1       26.538 -17.981   4.279  0.00  0.00    +0.091 C 
BRANCH   3   4
ATOM      4  C   LIG    1       27.405 -16.815   3.712  0.00  0.00    +0.247 C 
BRANCH   4   5
ATOM      5  O   LIG    1       27.177 -15.564   4.367  0.00  0.00    -0.490 OA
BRANCH   5   6
ATOM      6  C   LIG    1       26.235 -14.746   3.796  0.00  0.00    +0.121 A 
ATOM      7  C   LIG    1       26.635 -14.032   2.668  0.00  0.00    +0.045 A 
ATOM      8  C   LIG    1       25.752 -13.136   2.050  0.00  0.00    +0.004 A 
ATOM      9  C   LIG    1       24.465 -12.951   2.570  0.00  0.00    +0.000 A 
ATOM     10  C   LIG    1       24.062 -13.664   3.687  0.00  0.00    +0.004 A 
ATOM     11  C   LIG    1       24.938 -14.558   4.299  0.00  0.00    +0.045 A 
ENDBRANCH   5   6
ENDBRANCH   4   5
ENDBRANCH   3   4
ENDBRANCH   1   3
BRANCH   1  12
ATOM     12  C   LIG    1       26.677 -19.954   5.775  0.00  0.00    +0.120 C 
BRANCH  12  13
ATOM     13  C   LIG    1       25.254 -20.393   5.481  0.00  0.00    -0.033 A 
ATOM     14  C   LIG    1       24.225 -20.154   6.406  0.00  0.00    +0.005 A 
ATOM     15  C   LIG    1       22.917 -20.554   6.130  0.00  0.00    +0.000 A 
ATOM     16  C   LIG    1       22.622 -21.199   4.931  0.00  0.00    +0.000 A 
ATOM     17  C   LIG    1       23.635 -21.449   4.008  0.00  0.00    +0.000 A 
ATOM     18  C   LIG    1       24.945 -21.055   4.284  0.00  0.00    +0.005 A 
ENDBRANCH  12  13
ENDBRANCH   1  12
BRANCH   1  19
ATOM     19  C   LIG    1       28.743 -18.835   5.047  0.00  0.00    +0.101 C 
BRANCH  19  20
ATOM     20  C   LIG    1       29.160 -18.993   6.517  0.00  0.00    +0.124 C 
ATOM     21 CL   LIG    1       29.473 -20.707   6.905  0.00  0.00    -0.124 Cl
ENDBRANCH  19  20
ENDBRANCH   1  19
TORSDOF 8
ENDMDL
MODEL 8
REMARK VINA RESULT:      -3.1      3.106      6.324
REMARK  Name = *****
REMARK                            x       y       z     vdW  Elec       q    Type
REMARK                         _______ _______ _______ _____ _____    ______ ____
ROOT
ATOM      1  N   LIG    1       24.003 -15.679   4.338  0.00  0.00    -0.291 NA
ENDROOT
BRANCH   1   3
ATOM      2  C   LIG    1       22.012 -15.951   5.892  0.00  0.00    +0.028 C 
ATOM      3  C   LIG    1       22.557 -16.054   4.446  0.00  0.00    +0.091 C 
BRANCH   3   4
ATOM      4  C   LIG    1       22.250 -17.516   3.991  0.00  0.00    +0.247 C 
BRANCH   4   5
ATOM      5  O   LIG    1       22.072 -18.426   5.080  0.00  0.00    -0.490 OA
BRANCH   5   6
ATOM      6  C   LIG    1       22.951 -19.478   5.138  0.00  0.00    +0.121 A 
ATOM      7  C   LIG    1       23.140 -20.059   6.391  0.00  0.00    +0.045 A 
ATOM      8  C   LIG    1       24.057 -21.107   6.551  0.00  0.00    +0.004 A 
ATOM      9  C   LIG    1       24.791 -21.569   5.451  0.00  0.00    +0.000 A 
ATOM     10  C   LIG    1       24.600 -20.998   4.204  0.00  0.00    +0.004 A 
ATOM     11  C   LIG    1       23.686 -19.959   4.043  0.00  0.00    +0.045 A 
ENDBRANCH   5   6
ENDBRANCH   4   5
ENDBRANCH   3   4
ENDBRANCH   1   3
BRANCH   1  12
ATOM     12  C   LIG    1       24.206 -14.216   4.227  0.00  0.00    +0.120 C 
BRANCH  12  13
ATOM     13  C   LIG    1       25.653 -13.765   4.156  0.00  0.00    -0.033 A 
ATOM     14  C   LIG    1       26.242 -13.438   2.924  0.00  0.00    +0.005 A 
ATOM     15  C   LIG    1       27.572 -13.018   2.863  0.00  0.00    +0.000 A 
ATOM     16  C   LIG    1       28.327 -12.921   4.030  0.00  0.00    +0.000 A 
ATOM     17  C   LIG    1       27.756 -13.249   5.258  0.00  0.00    +0.000 A 
ATOM     18  C   LIG    1       26.429 -13.674   5.321  0.00  0.00    +0.005 A 
ENDBRANCH  12  13
ENDBRANCH   1  12
BRANCH   1  19
ATOM     19  C   LIG    1       24.706 -16.417   3.250  0.00  0.00    +0.101 C 
BRANCH  19  20
ATOM     20  C   LIG    1       25.774 -17.439   3.671  0.00  0.00    +0.124 C 
ATOM     21 CL   LIG    1       27.400 -16.703   3.638  0.00  0.00    -0.124 Cl
ENDBRANCH  19  20
ENDBRANCH   1  19
TORSDOF 8
ENDMDL
MODEL 9
REMARK VINA RESULT:      -2.9      2.870      6.315
REMARK  Name = *****
REMARK                            x       y       z     vdW  Elec       q    Type
REMARK                         _______ _______ _______ _____ _____    ______ ____
ROOT
ATOM      1  N   LIG    1       25.763 -14.728   4.430  0.00  0.00    -0.291 NA
ENDROOT
BRANCH   1   3
ATOM      2  C   LIG    1       27.990 -14.042   3.418  0.00  0.00    +0.028 C 
ATOM      3  C   LIG    1       27.236 -14.994   4.379  0.00  0.00    +0.091 C 
BRANCH   3   4
ATOM      4  C   LIG    1       27.599 -16.435   3.903  0.00  0.00    +0.247 C 
BRANCH   4   5
ATOM      5  O   LIG    1       28.727 -16.993   4.581  0.00  0.00    -0.490 OA
BRANCH   5   6
ATOM      6  C   LIG    1       28.516 -18.186   5.226  0.00  0.00    +0.121 A 
ATOM      7  C   LIG    1       29.475 -18.560   6.167  0.00  0.00    +0.045 A 
ATOM      8  C   LIG    1       29.364 -19.786   6.836  0.00  0.00    +0.004 A 
ATOM      9  C   LIG    1       28.292 -20.643   6.556  0.00  0.00    +0.000 A 
ATOM     10  C   LIG    1       27.335 -20.270   5.626  0.00  0.00    +0.004 A 
ATOM     11  C   LIG    1       27.442 -19.050   4.964  0.00  0.00    +0.045 A 
ENDBRANCH   5   6
ENDBRANCH   4   5
ENDBRANCH   3   4
ENDBRANCH   1   3
BRANCH   1  12
ATOM     12  C   LIG    1       25.021 -15.416   3.348  0.00  0.00    +0.120 C 
BRANCH  12  13
ATOM     13  C   LIG    1       24.105 -16.537   3.800  0.00  0.00    -0.033 A 
ATOM     14  C   LIG    1       22.875 -16.253   4.416  0.00  0.00    +0.005 A 
ATOM     15  C   LIG    1       22.032 -17.286   4.826  0.00  0.00    +0.000 A 
ATOM     16  C   LIG    1       22.406 -18.614   4.629  0.00  0.00    +0.000 A 
ATOM     17  C   LIG    1       23.627 -18.909   4.026  0.00  0.00    +0.000 A 
ATOM     18  C   LIG    1       24.475 -17.878   3.620  0.00  0.00    +0.005 A 
ENDBRANCH  12  13
ENDBRANCH   1  12
BRANCH   1  19
ATOM     19  C   LIG    1       25.445 -13.273   4.478  0.00  0.00    +0.101 C 
BRANCH  19  20
ATOM     20  C   LIG    1       24.174 -12.807   3.751  0.00  0.00    +0.124 C 
ATOM     21 CL   LIG    1       24.586 -12.013   2.206  0.00  0.00    -0.124 Cl
ENDBRANCH  19  20
ENDBRANCH   1  19
TORSDOF 8
ENDMDL
