MODEL 1
REMARK VINA RESULT:      -7.3      0.000      0.000
REMARK  Name = *****
REMARK                            x       y       z     vdW  Elec       q    Type
REMARK                         _______ _______ _______ _____ _____    ______ ____
ROOT
ATOM      1  C   LIG    1       26.700 -21.682   8.416  0.00  0.00    +0.027 C 
ENDROOT
BRANCH   1   3
ATOM      2  C   LIG    1       25.934 -23.719   6.975  0.00  0.00    -0.031 C 
ATOM      3  C   LIG    1       25.744 -22.585   7.678  0.00  0.00    -0.031 C 
BRANCH   2   4
ATOM      4  C   LIG    1       24.737 -24.365   6.294  0.00  0.00    +0.027 C 
BRANCH   4   5
ATOM      5  C   LIG    1       23.278 -24.181   6.776  0.00  0.00    +0.004 C 
BRANCH   5   6
ATOM      6  C   LIG    1       22.483 -22.866   6.539  0.00  0.00    +0.000 C 
BRANCH   6   7
ATOM      7  C   LIG    1       22.985 -21.876   5.466  0.00  0.00    +0.000 C 
BRANCH   7   8
ATOM      8  C   LIG    1       23.165 -20.398   5.939  0.00  0.00    -0.000 C 
BRANCH   8   9
ATOM      9  C   LIG    1       22.476 -19.238   5.184  0.00  0.00    -0.000 C 
BRANCH   9  11
ATOM     10  C   LIG    1       24.612 -19.388   3.734  0.00  0.00    +0.004 C 
ATOM     11  C   LIG    1       23.203 -18.822   3.872  0.00  0.00    -0.003 C 
ENDBRANCH   9  11
ENDBRANCH   8   9
ENDBRANCH   7   8
ENDBRANCH   6   7
ENDBRANCH   5   6
ENDBRANCH   4   5
ENDBRANCH   2   4
ENDBRANCH   1   3
BRANCH   1  12
ATOM     12  C   LIG    1       26.699 -20.338   7.684  0.00  0.00    +0.004 C 
BRANCH  12  13
ATOM     13  C   LIG    1       27.072 -20.377   6.208  0.00  0.00    +0.000 C 
BRANCH  13  14
ATOM     14  C   LIG    1       28.458 -19.822   5.893  0.00  0.00    +0.000 C 
BRANCH  14  15
ATOM     15  C   LIG    1       29.130 -19.201   7.122  0.00  0.00    +0.000 C 
BRANCH  15  16
ATOM     16  C   LIG    1       30.448 -19.891   7.498  0.00  0.00    +0.011 C 
BRANCH  16  17
ATOM     17  C   LIG    1       30.246 -21.302   8.073  0.00  0.00    +0.120 C 
BRANCH  17  18
ATOM     18  C   LIG    1       31.124 -21.557   9.263  0.00  0.00    +0.305 C 
ATOM     19  O   LIG    1       30.849 -22.412  10.145  0.00  0.00    -0.251 OA
BRANCH  18  20
ATOM     20  O   LIG    1       32.236 -20.840   9.322  0.00  0.00    -0.481 OA
ATOM     21  H   LIG    1       32.588 -20.592   8.437  0.00  0.00    +0.295 HD
ENDBRANCH  18  20
ENDBRANCH  17  18
ENDBRANCH  16  17
ENDBRANCH  15  16
ENDBRANCH  14  15
ENDBRANCH  13  14
ENDBRANCH  12  13
ENDBRANCH   1  12
TORSDOF 16
ENDMDL
MODEL 2
REMARK VINA RESULT:      -7.3      1.957      2.298
REMARK  Name = *****
REMARK                            x       y       z     vdW  Elec       q    Type
REMARK                         _______ _______ _______ _____ _____    ______ ____
ROOT
ATOM      1  C   LIG    1       26.845 -20.352   8.044  0.00  0.00    +0.027 C 
ENDROOT
BRANCH   1   3
ATOM      2  C   LIG    1       26.459 -22.722   7.018  0.00  0.00    -0.031 C 
ATOM      3  C   LIG    1       26.224 -21.718   7.886  0.00  0.00    -0.031 C 
BRANCH   2   4
ATOM      4  C   LIG    1       25.598 -23.971   7.097  0.00  0.00    +0.027 C 
BRANCH   4   5
ATOM      5  C   LIG    1       24.220 -24.106   6.405  0.00  0.00    +0.004 C 
BRANCH   5   6
ATOM      6  C   LIG    1       22.967 -23.322   6.885  0.00  0.00    +0.000 C 
BRANCH   6   7
ATOM      7  C   LIG    1       22.413 -22.188   5.996  0.00  0.00    +0.000 C 
BRANCH   7   8
ATOM      8  C   LIG    1       23.046 -20.778   6.222  0.00  0.00    -0.000 C 
BRANCH   8   9
ATOM      9  C   LIG    1       22.994 -19.703   5.113  0.00  0.00    -0.000 C 
BRANCH   9  11
ATOM     10  C   LIG    1       25.440 -20.072   4.358  0.00  0.00    +0.004 C 
ATOM     11  C   LIG    1       23.979 -19.964   3.936  0.00  0.00    -0.003 C 
ENDBRANCH   9  11
ENDBRANCH   8   9
ENDBRANCH   7   8
ENDBRANCH   6   7
ENDBRANCH   5   6
ENDBRANCH   4   5
ENDBRANCH   2   4
ENDBRANCH   1   3
BRANCH   1  12
ATOM     12  C   LIG    1       28.295 -20.464   7.572  0.00  0.00    +0.004 C 
BRANCH  12  13
ATOM     13  C   LIG    1       28.683 -19.599   6.379  0.00  0.00    +0.000 C 
BRANCH  13  14
ATOM     14  C   LIG    1       30.145 -19.164   6.364  0.00  0.00    +0.000 C 
BRANCH  14  15
ATOM     15  C   LIG    1       30.885 -19.561   7.646  0.00  0.00    +0.000 C 
BRANCH  15  16
ATOM     16  C   LIG    1       31.441 -18.354   8.414  0.00  0.00    +0.011 C 
BRANCH  16  17
ATOM     17  C   LIG    1       30.346 -17.511   9.086  0.00  0.00    +0.120 C 
BRANCH  17  18
ATOM     18  C   LIG    1       30.431 -17.565  10.583  0.00  0.00    +0.305 C 
ATOM     19  O   LIG    1       30.734 -18.611  11.215  0.00  0.00    -0.251 OA
BRANCH  18  20
ATOM     20  O   LIG    1       30.191 -16.425  11.214  0.00  0.00    -0.481 OA
ATOM     21  H   LIG    1       29.631 -15.802  10.695  0.00  0.00    +0.295 HD
ENDBRANCH  18  20
ENDBRANCH  17  18
ENDBRANCH  16  17
ENDBRANCH  15  16
ENDBRANCH  14  15
ENDBRANCH  13  14
ENDBRANCH  12  13
ENDBRANCH   1  12
TORSDOF 16
ENDMDL
MODEL 3
REMARK VINA RESULT:      -7.2      1.705      3.897
REMARK  Name = *****
REMARK                            x       y       z     vdW  Elec       q    Type
REMARK                         _______ _______ _______ _____ _____    ______ ____
ROOT
ATOM      1  C   LIG    1       27.198 -20.008   5.335  0.00  0.00    +0.027 C 
ENDROOT
BRANCH   1   3
ATOM      2  C   LIG    1       25.246 -19.223   3.789  0.00  0.00    -0.031 C 
ATOM      3  C   LIG    1       25.793 -19.940   4.791  0.00  0.00    -0.031 C 
BRANCH   2   4
ATOM      4  C   LIG    1       23.753 -19.349   3.533  0.00  0.00    +0.027 C 
BRANCH   4   5
ATOM      5  C   LIG    1       22.699 -19.461   4.660  0.00  0.00    +0.004 C 
BRANCH   5   6
ATOM      6  C   LIG    1       22.586 -20.714   5.573  0.00  0.00    +0.000 C 
BRANCH   6   7
ATOM      7  C   LIG    1       23.241 -20.677   6.971  0.00  0.00    +0.000 C 
BRANCH   7   8
ATOM      8  C   LIG    1       23.810 -22.037   7.489  0.00  0.00    -0.000 C 
BRANCH   8   9
ATOM      9  C   LIG    1       23.653 -23.328   6.653  0.00  0.00    -0.000 C 
BRANCH   9  11
ATOM     10  C   LIG    1       25.822 -24.736   6.662  0.00  0.00    +0.004 C 
ATOM     11  C   LIG    1       24.947 -23.750   5.897  0.00  0.00    -0.003 C 
ENDBRANCH   9  11
ENDBRANCH   8   9
ENDBRANCH   7   8
ENDBRANCH   6   7
ENDBRANCH   5   6
ENDBRANCH   4   5
ENDBRANCH   2   4
ENDBRANCH   1   3
BRANCH   1  12
ATOM     12  C   LIG    1       27.144 -20.854   6.608  0.00  0.00    +0.004 C 
BRANCH  12  13
ATOM     13  C   LIG    1       27.932 -20.326   7.800  0.00  0.00    +0.000 C 
BRANCH  13  14
ATOM     14  C   LIG    1       29.362 -20.850   7.893  0.00  0.00    +0.000 C 
BRANCH  14  15
ATOM     15  C   LIG    1       30.378 -19.884   7.276  0.00  0.00    +0.000 C 
BRANCH  15  16
ATOM     16  C   LIG    1       30.032 -18.410   7.527  0.00  0.00    +0.011 C 
BRANCH  16  17
ATOM     17  C   LIG    1       30.273 -17.975   8.981  0.00  0.00    +0.120 C 
BRANCH  17  18
ATOM     18  C   LIG    1       31.721 -17.691   9.253  0.00  0.00    +0.305 C 
ATOM     19  O   LIG    1       32.291 -18.011  10.330  0.00  0.00    -0.251 OA
BRANCH  18  20
ATOM     20  O   LIG    1       32.385 -17.097   8.273  0.00  0.00    -0.481 OA
ATOM     21  H   LIG    1       31.824 -16.894   7.489  0.00  0.00    +0.295 HD
ENDBRANCH  18  20
ENDBRANCH  17  18
ENDBRANCH  16  17
ENDBRANCH  15  16
ENDBRANCH  14  15
ENDBRANCH  13  14
ENDBRANCH  12  13
ENDBRANCH   1  12
TORSDOF 16
ENDMDL
MODEL 4
REMARK VINA RESULT:      -7.1      3.766      6.849
REMARK  Name = *****
REMARK                            x       y       z     vdW  Elec       q    Type
REMARK                         _______ _______ _______ _____ _____    ______ ____
ROOT
ATOM      1  C   LIG    1       23.159 -22.019   7.447  0.00  0.00    +0.027 C 
ENDROOT
BRANCH   1   3
ATOM      2  C   LIG    1       22.431 -20.505   5.448  0.00  0.00    -0.031 C 
ATOM      3  C   LIG    1       23.210 -20.852   6.492  0.00  0.00    -0.031 C 
BRANCH   2   4
ATOM      4  C   LIG    1       22.801 -19.270   4.642  0.00  0.00    +0.027 C 
BRANCH   4   5
ATOM      5  C   LIG    1       23.912 -19.253   3.565  0.00  0.00    +0.004 C 
BRANCH   5   6
ATOM      6  C   LIG    1       25.422 -19.194   3.929  0.00  0.00    +0.000 C 
BRANCH   6   7
ATOM      7  C   LIG    1       26.011 -20.291   4.841  0.00  0.00    +0.000 C 
BRANCH   7   8
ATOM      8  C   LIG    1       27.272 -19.881   5.667  0.00  0.00    -0.000 C 
BRANCH   8   9
ATOM      9  C   LIG    1       27.929 -20.875   6.652  0.00  0.00    -0.000 C 
BRANCH   9  11
ATOM     10  C   LIG    1       26.242 -20.541   8.584  0.00  0.00    +0.004 C 
ATOM     11  C   LIG    1       26.927 -21.530   7.647  0.00  0.00    -0.003 C 
ENDBRANCH   9  11
ENDBRANCH   8   9
ENDBRANCH   7   8
ENDBRANCH   6   7
ENDBRANCH   5   6
ENDBRANCH   4   5
ENDBRANCH   2   4
ENDBRANCH   1   3
BRANCH   1  12
ATOM     12  C   LIG    1       22.707 -23.237   6.639  0.00  0.00    +0.004 C 
BRANCH  12  13
ATOM     13  C   LIG    1       23.641 -24.439   6.657  0.00  0.00    +0.000 C 
BRANCH  13  14
ATOM     14  C   LIG    1       24.929 -24.250   5.862  0.00  0.00    +0.000 C 
BRANCH  14  15
ATOM     15  C   LIG    1       25.924 -25.395   6.082  0.00  0.00    +0.000 C 
BRANCH  15  16
ATOM     16  C   LIG    1       25.253 -26.683   6.579  0.00  0.00    +0.011 C 
BRANCH  16  17
ATOM     17  C   LIG    1       24.709 -27.558   5.439  0.00  0.00    +0.120 C 
BRANCH  17  18
ATOM     18  C   LIG    1       24.325 -28.928   5.913  0.00  0.00    +0.305 C 
ATOM     19  O   LIG    1       24.998 -29.574   6.759  0.00  0.00    -0.251 OA
BRANCH  18  20
ATOM     20  O   LIG    1       23.206 -29.421   5.402  0.00  0.00    -0.481 OA
ATOM     21  H   LIG    1       22.956 -30.294   5.782  0.00  0.00    +0.295 HD
ENDBRANCH  18  20
ENDBRANCH  17  18
ENDBRANCH  16  17
ENDBRANCH  15  16
ENDBRANCH  14  15
ENDBRANCH  13  14
ENDBRANCH  12  13
ENDBRANCH   1  12
TORSDOF 16
ENDMDL
MODEL 5
REMARK VINA RESULT:      -7.1      2.177      3.822
REMARK  Name = *****
REMARK                            x       y       z     vdW  Elec       q    Type
REMARK                         _______ _______ _______ _____ _____    ______ ____
ROOT
ATOM      1  C   LIG    1       27.267 -20.340   7.665  0.00  0.00    +0.027 C 
ENDROOT
BRANCH   1   3
ATOM      2  C   LIG    1       26.519 -19.894   5.204  0.00  0.00    -0.031 C 
ATOM      3  C   LIG    1       26.460 -20.508   6.402  0.00  0.00    -0.031 C 
BRANCH   2   4
ATOM      4  C   LIG    1       25.500 -20.269   4.140  0.00  0.00    +0.027 C 
BRANCH   4   5
ATOM      5  C   LIG    1       24.309 -19.366   3.741  0.00  0.00    +0.004 C 
BRANCH   5   6
ATOM      6  C   LIG    1       22.953 -19.392   4.501  0.00  0.00    +0.000 C 
BRANCH   6   7
ATOM      7  C   LIG    1       22.574 -20.655   5.304  0.00  0.00    +0.000 C 
BRANCH   7   8
ATOM      8  C   LIG    1       23.068 -20.688   6.786  0.00  0.00    -0.000 C 
BRANCH   8   9
ATOM      9  C   LIG    1       23.404 -22.030   7.476  0.00  0.00    -0.000 C 
BRANCH   9  11
ATOM     10  C   LIG    1       25.046 -23.918   6.820  0.00  0.00    +0.004 C 
ATOM     11  C   LIG    1       23.755 -23.178   6.485  0.00  0.00    -0.003 C 
ENDBRANCH   9  11
ENDBRANCH   8   9
ENDBRANCH   7   8
ENDBRANCH   6   7
ENDBRANCH   5   6
ENDBRANCH   4   5
ENDBRANCH   2   4
ENDBRANCH   1   3
BRANCH   1  12
ATOM     12  C   LIG    1       28.372 -21.396   7.633  0.00  0.00    +0.004 C 
BRANCH  12  13
ATOM     13  C   LIG    1       29.800 -20.881   7.763  0.00  0.00    +0.000 C 
BRANCH  13  14
ATOM     14  C   LIG    1       30.119 -19.677   6.882  0.00  0.00    +0.000 C 
BRANCH  14  15
ATOM     15  C   LIG    1       30.132 -18.364   7.672  0.00  0.00    +0.000 C 
BRANCH  15  16
ATOM     16  C   LIG    1       31.319 -18.258   8.638  0.00  0.00    +0.011 C 
BRANCH  16  17
ATOM     17  C   LIG    1       31.312 -16.961   9.461  0.00  0.00    +0.120 C 
BRANCH  17  18
ATOM     18  C   LIG    1       30.896 -17.196  10.883  0.00  0.00    +0.305 C 
ATOM     19  O   LIG    1       30.781 -16.267  11.726  0.00  0.00    -0.251 OA
BRANCH  18  20
ATOM     20  O   LIG    1       30.628 -18.453  11.204  0.00  0.00    -0.481 OA
ATOM     21  H   LIG    1       31.434 -19.009  11.308  0.00  0.00    +0.295 HD
ENDBRANCH  18  20
ENDBRANCH  17  18
ENDBRANCH  16  17
ENDBRANCH  15  16
ENDBRANCH  14  15
ENDBRANCH  13  14
ENDBRANCH  12  13
ENDBRANCH   1  12
TORSDOF 16
ENDMDL
MODEL 6
REMARK VINA RESULT:      -7.1      4.017      6.930
REMARK  Name = *****
REMARK                            x       y       z     vdW  Elec       q    Type
REMARK                         _______ _______ _______ _____ _____    ______ ____
ROOT
ATOM      1  C   LIG    1       23.350 -22.978   6.919  0.00  0.00    +0.027 C 
ENDROOT
BRANCH   1   3
ATOM      2  C   LIG    1       23.098 -20.449   6.319  0.00  0.00    -0.031 C 
ATOM      3  C   LIG    1       22.909 -21.770   6.130  0.00  0.00    -0.031 C 
BRANCH   2   4
ATOM      4  C   LIG    1       22.456 -19.474   5.346  0.00  0.00    +0.027 C 
BRANCH   4   5
ATOM      5  C   LIG    1       23.166 -18.935   4.081  0.00  0.00    +0.004 C 
BRANCH   5   6
ATOM      6  C   LIG    1       24.406 -19.638   3.460  0.00  0.00    +0.000 C 
BRANCH   6   7
ATOM      7  C   LIG    1       25.795 -19.388   4.086  0.00  0.00    +0.000 C 
BRANCH   7   8
ATOM      8  C   LIG    1       26.301 -20.487   5.074  0.00  0.00    -0.000 C 
BRANCH   8   9
ATOM      9  C   LIG    1       27.128 -20.107   6.322  0.00  0.00    -0.000 C 
BRANCH   9  11
ATOM     10  C   LIG    1       26.072 -20.594   8.632  0.00  0.00    +0.004 C 
ATOM     11  C   LIG    1       26.970 -21.101   7.510  0.00  0.00    -0.003 C 
ENDBRANCH   9  11
ENDBRANCH   8   9
ENDBRANCH   7   8
ENDBRANCH   6   7
ENDBRANCH   5   6
ENDBRANCH   4   5
ENDBRANCH   2   4
ENDBRANCH   1   3
BRANCH   1  12
ATOM     12  C   LIG    1       24.514 -23.610   6.153  0.00  0.00    +0.004 C 
BRANCH  12  13
ATOM     13  C   LIG    1       25.616 -24.233   6.999  0.00  0.00    +0.000 C 
BRANCH  13  14
ATOM     14  C   LIG    1       26.071 -25.611   6.528  0.00  0.00    +0.000 C 
BRANCH  14  15
ATOM     15  C   LIG    1       25.461 -25.995   5.176  0.00  0.00    +0.000 C 
BRANCH  15  16
ATOM     16  C   LIG    1       24.504 -27.191   5.269  0.00  0.00    +0.011 C 
BRANCH  16  17
ATOM     17  C   LIG    1       25.086 -28.368   6.068  0.00  0.00    +0.120 C 
BRANCH  17  18
ATOM     18  C   LIG    1       24.032 -29.361   6.459  0.00  0.00    +0.305 C 
ATOM     19  O   LIG    1       23.906 -29.798   7.634  0.00  0.00    -0.251 OA
BRANCH  18  20
ATOM     20  O   LIG    1       23.212 -29.742   5.491  0.00  0.00    -0.481 OA
ATOM     21  H   LIG    1       22.912 -28.998   4.920  0.00  0.00    +0.295 HD
ENDBRANCH  18  20
ENDBRANCH  17  18
ENDBRANCH  16  17
ENDBRANCH  15  16
ENDBRANCH  14  15
ENDBRANCH  13  14
ENDBRANCH  12  13
ENDBRANCH   1  12
TORSDOF 16
ENDMDL
MODEL 7
REMARK VINA RESULT:      -7.0      1.982      4.410
REMARK  Name = *****
REMARK                            x       y       z     vdW  Elec       q    Type
REMARK                         _______ _______ _______ _____ _____    ______ ____
ROOT
ATOM      1  C   LIG    1       25.634 -20.685   8.523  0.00  0.00    +0.027 C 
ENDROOT
BRANCH   1   3
ATOM      2  C   LIG    1       23.442 -21.518   7.375  0.00  0.00    -0.031 C 
ATOM      3  C   LIG    1       24.719 -21.635   7.790  0.00  0.00    -0.031 C 
BRANCH   2   4
ATOM      4  C   LIG    1       22.783 -22.711   6.701  0.00  0.00    +0.027 C 
BRANCH   4   5
ATOM      5  C   LIG    1       23.374 -24.141   6.724  0.00  0.00    +0.004 C 
BRANCH   5   6
ATOM      6  C   LIG    1       24.628 -24.536   5.894  0.00  0.00    +0.000 C 
BRANCH   6   7
ATOM      7  C   LIG    1       25.880 -25.050   6.638  0.00  0.00    +0.000 C 
BRANCH   7   8
ATOM      8  C   LIG    1       26.298 -26.522   6.323  0.00  0.00    -0.000 C 
BRANCH   8   9
ATOM      9  C   LIG    1       25.788 -27.233   5.049  0.00  0.00    -0.000 C 
BRANCH   9  11
ATOM     10  C   LIG    1       24.506 -28.705   6.746  0.00  0.00    +0.004 C 
ATOM     11  C   LIG    1       24.607 -28.214   5.306  0.00  0.00    -0.003 C 
ENDBRANCH   9  11
ENDBRANCH   8   9
ENDBRANCH   7   8
ENDBRANCH   6   7
ENDBRANCH   5   6
ENDBRANCH   4   5
ENDBRANCH   2   4
ENDBRANCH   1   3
BRANCH   1  12
ATOM     12  C   LIG    1       27.032 -20.865   7.929  0.00  0.00    +0.004 C 
BRANCH  12  13
ATOM     13  C   LIG    1       27.168 -20.591   6.437  0.00  0.00    +0.000 C 
BRANCH  13  14
ATOM     14  C   LIG    1       28.473 -19.908   6.037  0.00  0.00    +0.000 C 
BRANCH  14  15
ATOM     15  C   LIG    1       29.544 -20.016   7.128  0.00  0.00    +0.000 C 
BRANCH  15  16
ATOM     16  C   LIG    1       30.836 -19.266   6.775  0.00  0.00    +0.011 C 
BRANCH  16  17
ATOM     17  C   LIG    1       31.465 -18.550   7.980  0.00  0.00    +0.120 C 
BRANCH  17  18
ATOM     18  C   LIG    1       31.513 -19.426   9.196  0.00  0.00    +0.305 C 
ATOM     19  O   LIG    1       32.184 -20.490   9.247  0.00  0.00    -0.251 OA
BRANCH  18  20
ATOM     20  O   LIG    1       30.820 -18.998  10.241  0.00  0.00    -0.481 OA
ATOM     21  H   LIG    1       30.046 -19.568  10.454  0.00  0.00    +0.295 HD
ENDBRANCH  18  20
ENDBRANCH  17  18
ENDBRANCH  16  17
ENDBRANCH  15  16
ENDBRANCH  14  15
ENDBRANCH  13  14
ENDBRANCH  12  13
ENDBRANCH   1  12
TORSDOF 16
ENDMDL
MODEL 8
REMARK VINA RESULT:      -6.9      4.088      6.580
REMARK  Name = *****
REMARK                            x       y       z     vdW  Elec       q    Type
REMARK                         _______ _______ _______ _____ _____    ______ ____
ROOT
ATOM      1  C   LIG    1       23.049 -22.119   7.702  0.00  0.00    +0.027 C 
ENDROOT
BRANCH   1   3
ATOM      2  C   LIG    1       25.153 -20.644   8.167  0.00  0.00    -0.031 C 
ATOM      3  C   LIG    1       24.507 -21.732   7.703  0.00  0.00    -0.031 C 
BRANCH   2   4
ATOM      4  C   LIG    1       26.654 -20.539   7.952  0.00  0.00    +0.027 C 
BRANCH   4   5
ATOM      5  C   LIG    1       27.347 -20.833   6.600  0.00  0.00    +0.004 C 
BRANCH   5   6
ATOM      6  C   LIG    1       27.379 -19.800   5.439  0.00  0.00    +0.000 C 
BRANCH   6   7
ATOM      7  C   LIG    1       26.117 -19.622   4.566  0.00  0.00    +0.000 C 
BRANCH   7   8
ATOM      8  C   LIG    1       25.144 -20.843   4.526  0.00  0.00    -0.000 C 
BRANCH   8   9
ATOM      9  C   LIG    1       23.654 -20.653   4.161  0.00  0.00    -0.000 C 
BRANCH   9  11
ATOM     10  C   LIG    1       22.254 -18.494   4.417  0.00  0.00    +0.004 C 
ATOM     11  C   LIG    1       22.890 -19.690   5.116  0.00  0.00    -0.003 C 
ENDBRANCH   9  11
ENDBRANCH   8   9
ENDBRANCH   7   8
ENDBRANCH   6   7
ENDBRANCH   5   6
ENDBRANCH   4   5
ENDBRANCH   2   4
ENDBRANCH   1   3
BRANCH   1  12
ATOM     12  C   LIG    1       22.897 -23.283   6.721  0.00  0.00    +0.004 C 
BRANCH  12  13
ATOM     13  C   LIG    1       24.176 -24.022   6.351  0.00  0.00    +0.000 C 
BRANCH  13  14
ATOM     14  C   LIG    1       23.988 -25.511   6.079  0.00  0.00    +0.000 C 
BRANCH  14  15
ATOM     15  C   LIG    1       25.189 -26.126   5.352  0.00  0.00    +0.000 C 
BRANCH  15  16
ATOM     16  C   LIG    1       25.879 -27.231   6.163  0.00  0.00    +0.011 C 
BRANCH  16  17
ATOM     17  C   LIG    1       24.894 -28.265   6.731  0.00  0.00    +0.120 C 
BRANCH  17  18
ATOM     18  C   LIG    1       24.515 -29.302   5.717  0.00  0.00    +0.305 C 
ATOM     19  O   LIG    1       25.347 -30.100   5.209  0.00  0.00    -0.251 OA
BRANCH  18  20
ATOM     20  O   LIG    1       23.230 -29.351   5.395  0.00  0.00    -0.481 OA
ATOM     21  H   LIG    1       22.724 -28.561   5.695  0.00  0.00    +0.295 HD
ENDBRANCH  18  20
ENDBRANCH  17  18
ENDBRANCH  16  17
ENDBRANCH  15  16
ENDBRANCH  14  15
ENDBRANCH  13  14
ENDBRANCH  12  13
ENDBRANCH   1  12
TORSDOF 16
ENDMDL
MODEL 9
REMARK VINA RESULT:      -6.7      3.308      7.344
REMARK  Name = *****
REMARK                            x       y       z     vdW  Elec       q    Type
REMARK                         _______ _______ _______ _____ _____    ______ ____
ROOT
ATOM      1  C   LIG    1       24.347 -19.955   3.942  0.00  0.00    +0.027 C 
ENDROOT
BRANCH   1   3
ATOM      2  C   LIG    1       26.194 -20.497   5.706  0.00  0.00    -0.031 C 
ATOM      3  C   LIG    1       25.690 -19.871   4.624  0.00  0.00    -0.031 C 
BRANCH   2   4
ATOM      4  C   LIG    1       27.595 -20.133   6.172  0.00  0.00    +0.027 C 
BRANCH   4   5
ATOM      5  C   LIG    1       28.240 -20.698   7.460  0.00  0.00    +0.004 C 
BRANCH   5   6
ATOM      6  C   LIG    1       29.755 -20.538   7.771  0.00  0.00    +0.000 C 
BRANCH   6   7
ATOM      7  C   LIG    1       30.484 -19.267   7.284  0.00  0.00    +0.000 C 
BRANCH   7   8
ATOM      8  C   LIG    1       31.067 -18.348   8.404  0.00  0.00    -0.000 C 
BRANCH   8   9
ATOM      9  C   LIG    1       30.130 -17.519   9.312  0.00  0.00    -0.000 C 
BRANCH   9  11
ATOM     10  C   LIG    1       31.960 -16.962  11.053  0.00  0.00    +0.004 C 
ATOM     11  C   LIG    1       30.556 -17.503  10.809  0.00  0.00    -0.003 C 
ENDBRANCH   9  11
ENDBRANCH   8   9
ENDBRANCH   7   8
ENDBRANCH   6   7
ENDBRANCH   5   6
ENDBRANCH   4   5
ENDBRANCH   2   4
ENDBRANCH   1   3
BRANCH   1  12
ATOM     12  C   LIG    1       23.284 -19.752   5.024  0.00  0.00    +0.004 C 
BRANCH  12  13
ATOM     13  C   LIG    1       22.559 -21.005   5.498  0.00  0.00    +0.000 C 
BRANCH  13  14
ATOM     14  C   LIG    1       23.050 -21.550   6.835  0.00  0.00    +0.000 C 
BRANCH  14  15
ATOM     15  C   LIG    1       23.094 -23.082   6.859  0.00  0.00    +0.000 C 
BRANCH  15  16
ATOM     16  C   LIG    1       24.523 -23.640   6.833  0.00  0.00    +0.011 C 
BRANCH  16  17
ATOM     17  C   LIG    1       25.007 -23.992   5.417  0.00  0.00    +0.120 C 
BRANCH  17  18
ATOM     18  C   LIG    1       25.031 -25.472   5.180  0.00  0.00    +0.305 C 
ATOM     19  O   LIG    1       26.097 -26.124   5.023  0.00  0.00    -0.251 OA
BRANCH  18  20
ATOM     20  O   LIG    1       23.850 -26.072   5.168  0.00  0.00    -0.481 OA
ATOM     21  H   LIG    1       23.542 -26.346   6.062  0.00  0.00    +0.295 HD
ENDBRANCH  18  20
ENDBRANCH  17  18
ENDBRANCH  16  17
ENDBRANCH  15  16
ENDBRANCH  14  15
ENDBRANCH  13  14
ENDBRANCH  12  13
ENDBRANCH   1  12
TORSDOF 16
ENDMDL
