MODEL 1
REMARK VINA RESULT:       0.0      0.000      0.000
REMARK  Name = *****
REMARK                            x       y       z     vdW  Elec       q    Type
REMARK                         _______ _______ _______ _____ _____    ______ ____
ROOT
ATOM      1  C   LIG    1       25.588 -20.251   4.701  0.00  0.00    +0.006 C 
ATOM      2  C   LIG    1       26.693 -19.602   3.893  0.00  0.00    +0.107 C 
ATOM      3  S   LIG    1       26.511 -17.814   3.715  0.00  0.00    -0.131 S 
ATOM      4  C   LIG    1       24.801 -17.960   3.152  0.00  0.00    +0.169 C 
ATOM      5  N   LIG    1       24.026 -18.544   4.233  0.00  0.00    -0.249 N 
ATOM      6  C   LIG    1       23.071 -17.602   4.279  0.00  0.00    +0.244 C 
ATOM      7  O   LIG    1       22.052 -17.559   4.895  0.00  0.00    -0.273 OA
ATOM      8  CA  LIG    1       23.887 -16.706   3.292  0.00  0.00    +0.191 C 
ATOM      9  CA  LIG    1       24.348 -19.704   4.877  0.00  0.00    +0.125 C 
ENDROOT
BRANCH   8  10
ATOM     10  N   LIG    1       24.472 -15.470   3.878  0.00  0.00    -0.300 N 
ATOM     11  H   LIG    1       25.452 -15.433   4.137  0.00  0.00    +0.150 HD
ATOM     12  C   LIG    1       23.776 -14.274   3.767  0.00  0.00    +0.235 C 
ATOM     13  O   LIG    1       22.697 -14.253   3.179  0.00  0.00    -0.274 OA
BRANCH  12  14
ATOM     14  CA  LIG    1       24.459 -13.067   4.479  0.00  0.00    +0.168 C 
BRANCH  14  15
ATOM     15  C   LIG    1       25.977 -13.002   4.349  0.00  0.00    -0.022 A 
ATOM     16  C   LIG    1       26.620 -13.028   3.101  0.00  0.00    +0.006 A 
ATOM     17  C   LIG    1       28.010 -12.982   2.996  0.00  0.00    +0.000 A 
ATOM     18  C   LIG    1       28.791 -12.866   4.139  0.00  0.00    +0.000 A 
ATOM     19  C   LIG    1       28.178 -12.797   5.388  0.00  0.00    +0.000 A 
ATOM     20  C   LIG    1       26.781 -12.860   5.495  0.00  0.00    +0.006 A 
ENDBRANCH  14  15
BRANCH  14  21
ATOM     21  N   LIG    1       23.852 -11.817   3.970  0.00  0.00    -0.316 NA
ATOM     22  H1  LIG    1       23.461 -11.282   4.740  0.00  0.00    +0.119 HD
ATOM     23  H2  LIG    1       23.055 -12.076   3.387  0.00  0.00    +0.119 HD
ENDBRANCH  14  21
ENDBRANCH  12  14
ENDBRANCH   8  10
BRANCH   9  24
ATOM     24  C   LIG    1       23.375 -20.341   5.846  0.00  0.00    +0.351 C 
ATOM     25  O   LIG    1       23.449 -20.213   7.059  0.00  0.00    -0.244 OA
BRANCH  24  26
ATOM     26  OXT LIG    1       22.428 -21.123   5.292  0.00  0.00    -0.476 OA
ATOM     27  HXT LIG    1       22.617 -21.464   4.393  0.00  0.00    +0.295 HD
ENDBRANCH  24  26
ENDBRANCH   9  24
BRANCH   1  28
ATOM     28  C   LIG    1       26.013 -21.572   5.318  0.00  0.00    +0.266 C 
BRANCH  28  29
ATOM     29  O   LIG    1       26.386 -21.462   6.703  0.00  0.00    -0.460 OA
BRANCH  29  31
ATOM     30  C   LIG    1       28.694 -21.572   7.010  0.00  0.00    +0.136 C 
ATOM     31  C   LIG    1       27.479 -20.698   6.961  0.00  0.00    +0.304 C 
ATOM     32  O   LIG    1       27.489 -19.480   7.058  0.00  0.00    -0.251 OA
ENDBRANCH  29  31
ENDBRANCH  28  29
ENDBRANCH   1  28
TORSDOF 9
ENDMDL
MODEL 2
REMARK VINA RESULT:       0.3      2.849      7.946
REMARK  Name = *****
REMARK                            x       y       z     vdW  Elec       q    Type
REMARK                         _______ _______ _______ _____ _____    ______ ____
ROOT
ATOM      1  C   LIG    1       24.644 -13.934   4.288  0.00  0.00    +0.006 C 
ATOM      2  C   LIG    1       23.521 -14.854   3.858  0.00  0.00    +0.107 C 
ATOM      3  S   LIG    1       23.896 -16.609   4.065  0.00  0.00    -0.131 S 
ATOM      4  C   LIG    1       25.470 -16.459   3.191  0.00  0.00    +0.169 C 
ATOM      5  N   LIG    1       26.320 -15.564   3.955  0.00  0.00    -0.249 N 
ATOM      6  C   LIG    1       27.381 -16.379   4.046  0.00  0.00    +0.244 C 
ATOM      7  O   LIG    1       28.479 -16.181   4.466  0.00  0.00    -0.273 OA
ATOM      8  CA  LIG    1       26.545 -17.558   3.451  0.00  0.00    +0.191 C 
ATOM      9  CA  LIG    1       25.955 -14.312   4.363  0.00  0.00    +0.125 C 
ENDROOT
BRANCH   8  10
ATOM     10  N   LIG    1       26.215 -18.656   4.398  0.00  0.00    -0.300 N 
ATOM     11  H   LIG    1       25.310 -19.114   4.366  0.00  0.00    +0.150 HD
ATOM     12  C   LIG    1       27.241 -19.276   5.097  0.00  0.00    +0.235 C 
ATOM     13  O   LIG    1       28.403 -18.918   4.916  0.00  0.00    -0.274 OA
BRANCH  12  14
ATOM     14  CA  LIG    1       26.761 -20.364   6.108  0.00  0.00    +0.168 C 
BRANCH  14  15
ATOM     15  C   LIG    1       25.304 -20.788   5.971  0.00  0.00    -0.022 A 
ATOM     16  C   LIG    1       24.418 -20.779   7.061  0.00  0.00    +0.006 A 
ATOM     17  C   LIG    1       23.090 -21.182   6.925  0.00  0.00    +0.000 A 
ATOM     18  C   LIG    1       22.603 -21.568   5.683  0.00  0.00    +0.000 A 
ATOM     19  C   LIG    1       23.449 -21.548   4.575  0.00  0.00    +0.000 A 
ATOM     20  C   LIG    1       24.788 -21.157   4.715  0.00  0.00    +0.006 A 
ENDBRANCH  14  15
BRANCH  14  21
ATOM     21  N   LIG    1       27.648 -21.543   5.984  0.00  0.00    -0.316 NA
ATOM     22  H1  LIG    1       27.093 -22.394   5.960  0.00  0.00    +0.119 HD
ATOM     23  H2  LIG    1       28.202 -21.603   6.839  0.00  0.00    +0.119 HD
ENDBRANCH  14  21
ENDBRANCH  12  14
ENDBRANCH   8  10
BRANCH   9  24
ATOM     24  C   LIG    1       26.976 -13.375   4.973  0.00  0.00    +0.351 C 
ATOM     25  O   LIG    1       27.806 -12.762   4.320  0.00  0.00    -0.244 OA
BRANCH  24  26
ATOM     26  OXT LIG    1       26.959 -13.292   6.318  0.00  0.00    -0.476 OA
ATOM     27  HXT LIG    1       27.723 -12.842   6.735  0.00  0.00    +0.295 HD
ENDBRANCH  24  26
ENDBRANCH   9  24
BRANCH   1  28
ATOM     28  C   LIG    1       24.154 -12.543   4.651  0.00  0.00    +0.266 C 
BRANCH  28  29
ATOM     29  O   LIG    1       24.275 -11.596   3.575  0.00  0.00    -0.460 OA
BRANCH  29  31
ATOM     30  C   LIG    1       23.688 -13.026   1.830  0.00  0.00    +0.136 C 
ATOM     31  C   LIG    1       24.719 -12.098   2.393  0.00  0.00    +0.304 C 
ATOM     32  O   LIG    1       25.758 -11.784   1.833  0.00  0.00    -0.251 OA
ENDBRANCH  29  31
ENDBRANCH  28  29
ENDBRANCH   1  28
TORSDOF 9
ENDMDL
MODEL 3
REMARK VINA RESULT:       2.9      2.311      3.574
REMARK  Name = *****
REMARK                            x       y       z     vdW  Elec       q    Type
REMARK                         _______ _______ _______ _____ _____    ______ ____
ROOT
ATOM      1  C   LIG    1       26.383 -20.314   5.502  0.00  0.00    +0.006 C 
ATOM      2  C   LIG    1       27.569 -19.923   6.359  0.00  0.00    +0.107 C 
ATOM      3  S   LIG    1       27.998 -18.172   6.257  0.00  0.00    -0.131 S 
ATOM      4  C   LIG    1       28.022 -18.198   4.451  0.00  0.00    +0.169 C 
ATOM      5  N   LIG    1       26.683 -18.522   3.993  0.00  0.00    -0.249 N 
ATOM      6  C   LIG    1       26.534 -17.479   3.163  0.00  0.00    +0.244 C 
ATOM      7  O   LIG    1       25.673 -17.228   2.377  0.00  0.00    -0.273 OA
ATOM      8  CA  LIG    1       27.851 -16.839   3.708  0.00  0.00    +0.191 C 
ATOM      9  CA  LIG    1       25.963 -19.606   4.411  0.00  0.00    +0.125 C 
ENDROOT
BRANCH   8  10
ATOM     10  N   LIG    1       27.678 -15.607   4.525  0.00  0.00    -0.300 N 
ATOM     11  H   LIG    1       27.927 -15.598   5.508  0.00  0.00    +0.150 HD
ATOM     12  C   LIG    1       27.492 -14.391   3.882  0.00  0.00    +0.235 C 
ATOM     13  O   LIG    1       27.484 -14.349   2.654  0.00  0.00    -0.274 OA
BRANCH  12  14
ATOM     14  CA  LIG    1       27.254 -13.188   4.845  0.00  0.00    +0.168 C 
BRANCH  14  15
ATOM     15  C   LIG    1       25.859 -12.576   4.800  0.00  0.00    -0.022 A 
ATOM     16  C   LIG    1       25.073 -12.596   3.635  0.00  0.00    +0.006 A 
ATOM     17  C   LIG    1       23.803 -12.022   3.602  0.00  0.00    +0.000 A 
ATOM     18  C   LIG    1       23.269 -11.447   4.749  0.00  0.00    +0.000 A 
ATOM     19  C   LIG    1       24.010 -11.449   5.929  0.00  0.00    +0.000 A 
ATOM     20  C   LIG    1       25.293 -12.012   5.958  0.00  0.00    +0.006 A 
ENDBRANCH  14  15
BRANCH  14  21
ATOM     21  N   LIG    1       27.574 -13.622   6.224  0.00  0.00    -0.316 NA
ATOM     22  H1  LIG    1       28.259 -14.372   6.202  0.00  0.00    +0.119 HD
ATOM     23  H2  LIG    1       26.729 -14.036   6.621  0.00  0.00    +0.119 HD
ENDBRANCH  14  21
ENDBRANCH  12  14
ENDBRANCH   8  10
BRANCH   9  24
ATOM     24  C   LIG    1       24.664 -19.975   3.728  0.00  0.00    +0.351 C 
ATOM     25  O   LIG    1       24.507 -21.003   3.086  0.00  0.00    -0.244 OA
BRANCH  24  26
ATOM     26  OXT LIG    1       23.677 -19.062   3.819  0.00  0.00    -0.476 OA
ATOM     27  HXT LIG    1       22.781 -19.408   4.012  0.00  0.00    +0.295 HD
ENDBRANCH  24  26
ENDBRANCH   9  24
BRANCH   1  28
ATOM     28  C   LIG    1       25.691 -21.570   5.999  0.00  0.00    +0.266 C 
BRANCH  28  29
ATOM     29  O   LIG    1       24.703 -21.316   7.013  0.00  0.00    -0.460 OA
BRANCH  29  31
ATOM     30  C   LIG    1       23.184 -19.548   7.060  0.00  0.00    +0.136 C 
ATOM     31  C   LIG    1       23.481 -20.928   6.563  0.00  0.00    +0.304 C 
ATOM     32  O   LIG    1       22.768 -21.568   5.805  0.00  0.00    -0.251 OA
ENDBRANCH  29  31
ENDBRANCH  28  29
ENDBRANCH   1  28
TORSDOF 9
ENDMDL
