MODEL 1
REMARK VINA RESULT:       1.9      0.000      0.000
REMARK  Name = *****
REMARK                            x       y       z     vdW  Elec       q    Type
REMARK                         _______ _______ _______ _____ _____    ______ ____
ROOT
ATOM      1  O   LIG    1       24.976 -16.679   3.921  0.00  0.00    -0.252 OA
ATOM      2  C   LIG    1       24.117 -15.853   4.186  0.00  0.00    +0.308 C 
ATOM      3  N   LIG    1       22.770 -16.141   4.371  0.00  0.00    -0.269 N 
ATOM      4  H   LIG    1       22.174 -15.364   4.612  0.00  0.00    +0.156 HD
ATOM      5  N   LIG    1       24.342 -14.491   4.348  0.00  0.00    -0.269 N 
ATOM      6  H   LIG    1       23.536 -13.918   4.532  0.00  0.00    +0.156 HD
ENDROOT
BRANCH   3   7
ATOM      7  C   LIG    1       22.138 -17.402   4.313  0.00  0.00    +0.036 A 
ATOM      8  C   LIG    1       22.789 -18.469   4.943  0.00  0.00    +0.044 A 
ATOM      9  C   LIG    1       22.253 -19.763   4.904  0.00  0.00    +0.061 A 
ATOM     10 CL   LIG    1       23.131 -21.018   5.704  0.00  0.00    -0.082 Cl
ATOM     11  C   LIG    1       21.053 -19.999   4.230  0.00  0.00    +0.059 A 
ATOM     12 CL   LIG    1       20.347 -21.571   4.114  0.00  0.00    -0.082 Cl
ATOM     13  C   LIG    1       20.389 -18.936   3.617  0.00  0.00    +0.023 A 
ATOM     14  C   LIG    1       20.927 -17.644   3.662  0.00  0.00    +0.025 A 
ENDBRANCH   3   7
BRANCH   5  15
ATOM     15  C   LIG    1       25.568 -13.800   4.250  0.00  0.00    +0.035 A 
ATOM     16  C   LIG    1       26.240 -13.524   5.450  0.00  0.00    +0.025 A 
ATOM     17  C   LIG    1       27.450 -12.824   5.449  0.00  0.00    +0.022 A 
ATOM     18  C   LIG    1       27.997 -12.395   4.243  0.00  0.00    +0.041 A 
ATOM     19 CL   LIG    1       29.475 -11.515   4.239  0.00  0.00    -0.084 Cl
ATOM     20  C   LIG    1       27.349 -12.672   3.044  0.00  0.00    +0.022 A 
ATOM     21  C   LIG    1       26.139 -13.376   3.047  0.00  0.00    +0.025 A 
ENDBRANCH   5  15
TORSDOF 2
ENDMDL
MODEL 2
REMARK VINA RESULT:       2.3      1.876      2.392
REMARK  Name = *****
REMARK                            x       y       z     vdW  Elec       q    Type
REMARK                         _______ _______ _______ _____ _____    ______ ____
ROOT
ATOM      1  O   LIG    1       24.351 -16.438   4.329  0.00  0.00    -0.252 OA
ATOM      2  C   LIG    1       25.156 -17.173   3.778  0.00  0.00    +0.308 C 
ATOM      3  N   LIG    1       24.953 -18.525   3.526  0.00  0.00    -0.269 N 
ATOM      4  H   LIG    1       25.693 -19.006   3.039  0.00  0.00    +0.156 HD
ATOM      5  N   LIG    1       26.405 -16.781   3.312  0.00  0.00    -0.269 N 
ATOM      6  H   LIG    1       26.982 -17.499   2.907  0.00  0.00    +0.156 HD
ENDROOT
BRANCH   3   7
ATOM      7  C   LIG    1       23.811 -19.299   3.825  0.00  0.00    +0.036 A 
ATOM      8  C   LIG    1       22.567 -18.760   3.473  0.00  0.00    +0.044 A 
ATOM      9  C   LIG    1       21.380 -19.443   3.765  0.00  0.00    +0.061 A 
ATOM     10 CL   LIG    1       19.892 -18.696   3.300  0.00  0.00    -0.082 Cl
ATOM     11  C   LIG    1       21.428 -20.679   4.413  0.00  0.00    +0.059 A 
ATOM     12 CL   LIG    1       20.006 -21.565   4.832  0.00  0.00    -0.082 Cl
ATOM     13  C   LIG    1       22.665 -21.231   4.748  0.00  0.00    +0.023 A 
ATOM     14  C   LIG    1       23.850 -20.546   4.451  0.00  0.00    +0.025 A 
ENDBRANCH   3   7
BRANCH   5  15
ATOM     15  C   LIG    1       26.985 -15.496   3.368  0.00  0.00    +0.035 A 
ATOM     16  C   LIG    1       27.985 -15.292   4.330  0.00  0.00    +0.025 A 
ATOM     17  C   LIG    1       28.599 -14.044   4.472  0.00  0.00    +0.022 A 
ATOM     18  C   LIG    1       28.215 -12.989   3.648  0.00  0.00    +0.041 A 
ATOM     19 CL   LIG    1       28.953 -11.447   3.833  0.00  0.00    -0.084 Cl
ATOM     20  C   LIG    1       27.234 -13.180   2.681  0.00  0.00    +0.022 A 
ATOM     21  C   LIG    1       26.622 -14.431   2.539  0.00  0.00    +0.025 A 
ENDBRANCH   5  15
TORSDOF 2
ENDMDL
MODEL 3
REMARK VINA RESULT:       3.2      2.024      8.331
REMARK  Name = *****
REMARK                            x       y       z     vdW  Elec       q    Type
REMARK                         _______ _______ _______ _____ _____    ______ ____
ROOT
ATOM      1  O   LIG    1       24.211 -16.505   4.289  0.00  0.00    -0.252 OA
ATOM      2  C   LIG    1       25.015 -17.255   3.759  0.00  0.00    +0.308 C 
ATOM      3  N   LIG    1       26.275 -16.877   3.309  0.00  0.00    -0.269 N 
ATOM      4  H   LIG    1       26.847 -17.606   2.913  0.00  0.00    +0.156 HD
ATOM      5  N   LIG    1       24.807 -18.608   3.518  0.00  0.00    -0.269 N 
ATOM      6  H   LIG    1       25.543 -19.101   3.042  0.00  0.00    +0.156 HD
ENDROOT
BRANCH   3   7
ATOM      7  C   LIG    1       26.874 -15.600   3.384  0.00  0.00    +0.036 A 
ATOM      8  C   LIG    1       26.228 -14.554   2.713  0.00  0.00    +0.044 A 
ATOM      9  C   LIG    1       26.771 -13.263   2.703  0.00  0.00    +0.061 A 
ATOM     10 CL   LIG    1       25.907 -12.038   1.842  0.00  0.00    -0.082 Cl
ATOM     11  C   LIG    1       27.971 -13.007   3.370  0.00  0.00    +0.059 A 
ATOM     12 CL   LIG    1       28.715 -11.449   3.376  0.00  0.00    -0.082 Cl
ATOM     13  C   LIG    1       28.609 -14.040   4.056  0.00  0.00    +0.023 A 
ATOM     14  C   LIG    1       28.061 -15.329   4.067  0.00  0.00    +0.025 A 
ENDBRANCH   3   7
BRANCH   5  15
ATOM     15  C   LIG    1       23.665 -19.376   3.830  0.00  0.00    +0.035 A 
ATOM     16  C   LIG    1       22.423 -18.729   3.750  0.00  0.00    +0.025 A 
ATOM     17  C   LIG    1       21.241 -19.407   4.063  0.00  0.00    +0.022 A 
ATOM     18  C   LIG    1       21.295 -20.740   4.458  0.00  0.00    +0.041 A 
ATOM     19 CL   LIG    1       19.846 -21.572   4.864  0.00  0.00    -0.084 Cl
ATOM     20  C   LIG    1       22.518 -21.398   4.531  0.00  0.00    +0.022 A 
ATOM     21  C   LIG    1       23.701 -20.718   4.214  0.00  0.00    +0.025 A 
ENDBRANCH   5  15
TORSDOF 2
ENDMDL
MODEL 4
REMARK VINA RESULT:       4.2      0.883      1.704
REMARK  Name = *****
REMARK                            x       y       z     vdW  Elec       q    Type
REMARK                         _______ _______ _______ _____ _____    ______ ____
ROOT
ATOM      1  O   LIG    1       25.041 -16.742   3.576  0.00  0.00    -0.252 OA
ATOM      2  C   LIG    1       24.330 -16.060   4.297  0.00  0.00    +0.308 C 
ATOM      3  N   LIG    1       23.103 -16.464   4.812  0.00  0.00    -0.269 N 
ATOM      4  H   LIG    1       22.633 -15.808   5.415  0.00  0.00    +0.156 HD
ATOM      5  N   LIG    1       24.627 -14.771   4.722  0.00  0.00    -0.269 N 
ATOM      6  H   LIG    1       23.933 -14.310   5.288  0.00  0.00    +0.156 HD
ENDROOT
BRANCH   3   7
ATOM      7  C   LIG    1       22.455 -17.706   4.632  0.00  0.00    +0.036 A 
ATOM      8  C   LIG    1       21.384 -17.740   3.731  0.00  0.00    +0.044 A 
ATOM      9  C   LIG    1       20.661 -18.920   3.519  0.00  0.00    +0.061 A 
ATOM     10 CL   LIG    1       19.350 -18.864   2.393  0.00  0.00    -0.082 Cl
ATOM     11  C   LIG    1       21.007 -20.083   4.210  0.00  0.00    +0.059 A 
ATOM     12 CL   LIG    1       20.143 -21.567   4.023  0.00  0.00    -0.082 Cl
ATOM     13  C   LIG    1       22.085 -20.060   5.095  0.00  0.00    +0.023 A 
ATOM     14  C   LIG    1       22.808 -18.879   5.301  0.00  0.00    +0.025 A 
ENDBRANCH   3   7
BRANCH   5  15
ATOM     15  C   LIG    1       25.775 -14.006   4.428  0.00  0.00    +0.035 A 
ATOM     16  C   LIG    1       26.604 -13.664   5.506  0.00  0.00    +0.025 A 
ATOM     17  C   LIG    1       27.751 -12.889   5.310  0.00  0.00    +0.022 A 
ATOM     18  C   LIG    1       28.076 -12.451   4.030  0.00  0.00    +0.041 A 
ATOM     19 CL   LIG    1       29.475 -11.480   3.787  0.00  0.00    -0.084 Cl
ATOM     20  C   LIG    1       27.271 -12.793   2.949  0.00  0.00    +0.022 A 
ATOM     21  C   LIG    1       26.124 -13.571   3.147  0.00  0.00    +0.025 A 
ENDBRANCH   5  15
TORSDOF 2
ENDMDL
MODEL 5
REMARK VINA RESULT:       4.5      0.943      8.133
REMARK  Name = *****
REMARK                            x       y       z     vdW  Elec       q    Type
REMARK                         _______ _______ _______ _____ _____    ______ ____
ROOT
ATOM      1  O   LIG    1       24.960 -16.856   3.512  0.00  0.00    -0.252 OA
ATOM      2  C   LIG    1       24.174 -16.092   4.050  0.00  0.00    +0.308 C 
ATOM      3  N   LIG    1       24.426 -14.751   4.314  0.00  0.00    -0.269 N 
ATOM      4  H   LIG    1       23.676 -14.230   4.741  0.00  0.00    +0.156 HD
ATOM      5  N   LIG    1       22.900 -16.435   4.486  0.00  0.00    -0.269 N 
ATOM      6  H   LIG    1       22.369 -15.714   4.945  0.00  0.00    +0.156 HD
ENDROOT
BRANCH   3   7
ATOM      7  C   LIG    1       25.591 -14.013   4.012  0.00  0.00    +0.036 A 
ATOM      8  C   LIG    1       26.454 -13.722   5.076  0.00  0.00    +0.044 A 
ATOM      9  C   LIG    1       27.614 -12.963   4.873  0.00  0.00    +0.061 A 
ATOM     10 CL   LIG    1       28.614 -12.649   6.247  0.00  0.00    -0.082 Cl
ATOM     11  C   LIG    1       27.921 -12.487   3.596  0.00  0.00    +0.059 A 
ATOM     12 CL   LIG    1       29.316 -11.521   3.276  0.00  0.00    -0.082 Cl
ATOM     13  C   LIG    1       27.075 -12.791   2.529  0.00  0.00    +0.023 A 
ATOM     14  C   LIG    1       25.919 -13.553   2.735  0.00  0.00    +0.025 A 
ENDBRANCH   3   7
BRANCH   5  15
ATOM     15  C   LIG    1       22.264 -17.692   4.397  0.00  0.00    +0.035 A 
ATOM     16  C   LIG    1       21.054 -17.742   3.691  0.00  0.00    +0.025 A 
ATOM     17  C   LIG    1       20.344 -18.941   3.571  0.00  0.00    +0.022 A 
ATOM     18  C   LIG    1       20.843 -20.100   4.158  0.00  0.00    +0.041 A 
ATOM     19 CL   LIG    1       19.963 -21.571   4.031  0.00  0.00    -0.084 Cl
ATOM     20  C   LIG    1       22.049 -20.068   4.851  0.00  0.00    +0.022 A 
ATOM     21  C   LIG    1       22.760 -18.867   4.967  0.00  0.00    +0.025 A 
ENDBRANCH   5  15
TORSDOF 2
ENDMDL
