MODEL 1
REMARK VINA RESULT:      -8.6      0.000      0.000
REMARK  Name = *****
REMARK                            x       y       z     vdW  Elec       q    Type
REMARK                         _______ _______ _______ _____ _____    ______ ____
ROOT
ATOM      1  C   LIG    1       29.710 -19.877   6.849  0.00  0.00    +0.134 A 
ATOM      2  C   LIG    1       28.734 -20.622   7.503  0.00  0.00    +0.052 A 
ATOM      3  C   LIG    1       27.439 -20.593   7.002  0.00  0.00    -0.014 A 
ATOM      4  C   LIG    1       26.238 -21.304   7.529  0.00  0.00    +0.028 C 
ATOM      5  C   LIG    1       25.115 -20.889   6.515  0.00  0.00    +0.154 C 
ATOM      6  N   LIG    1       25.736 -19.980   5.516  0.00  0.00    -0.316 N 
ATOM      7  C   LIG    1       25.456 -20.230   4.110  0.00  0.00    +0.131 C 
ATOM      8  N   LIG    1       24.479 -22.162   6.104  0.00  0.00    -0.287 NA
ATOM      9  C   LIG    1       23.028 -22.061   6.023  0.00  0.00    +0.106 C 
ATOM     10  C   LIG    1       24.897 -23.200   7.047  0.00  0.00    +0.087 C 
ATOM     11  C   LIG    1       26.325 -22.821   7.379  0.00  0.00    +0.030 C 
ATOM     12  C   LIG    1       25.917 -20.883   8.968  0.00  0.00    +0.019 C 
ATOM     13  C   LIG    1       27.099 -19.880   5.855  0.00  0.00    +0.035 A 
ATOM     14  C   LIG    1       28.080 -19.150   5.195  0.00  0.00    +0.027 A 
ATOM     15  C   LIG    1       29.393 -19.152   5.692  0.00  0.00    +0.048 A 
ENDROOT
BRANCH   1  16
ATOM     16  O   LIG    1       31.070 -19.909   7.229  0.00  0.00    -0.411 OA
BRANCH  16  20
ATOM     17  C   LIG    1       32.057 -17.207   9.376  0.00  0.00    +0.131 C 
ATOM     18  N   LIG    1       31.321 -18.021   8.444  0.00  0.00    -0.284 N 
ATOM     19  H   LIG    1       31.009 -17.622   7.571  0.00  0.00    +0.152 HD
ATOM     20  C   LIG    1       31.467 -19.387   8.458  0.00  0.00    +0.405 C 
ATOM     21  O   LIG    1       31.935 -20.017   9.392  0.00  0.00    -0.226 OA
ENDBRANCH  16  20
ENDBRANCH   1  16
TORSDOF 2
ENDMDL
MODEL 2
REMARK VINA RESULT:      -8.1      1.072      1.395
REMARK  Name = *****
REMARK                            x       y       z     vdW  Elec       q    Type
REMARK                         _______ _______ _______ _____ _____    ______ ____
ROOT
ATOM      1  C   LIG    1       29.677 -19.569   6.729  0.00  0.00    +0.134 A 
ATOM      2  C   LIG    1       28.744 -20.331   7.426  0.00  0.00    +0.052 A 
ATOM      3  C   LIG    1       27.449 -20.397   6.931  0.00  0.00    -0.014 A 
ATOM      4  C   LIG    1       26.289 -21.143   7.502  0.00  0.00    +0.028 C 
ATOM      5  C   LIG    1       25.142 -20.841   6.474  0.00  0.00    +0.154 C 
ATOM      6  N   LIG    1       25.710 -19.953   5.426  0.00  0.00    -0.316 N 
ATOM      7  C   LIG    1       25.440 -20.291   4.036  0.00  0.00    +0.131 C 
ATOM      8  N   LIG    1       24.574 -22.167   6.132  0.00  0.00    -0.287 NA
ATOM      9  C   LIG    1       23.120 -22.148   6.055  0.00  0.00    +0.106 C 
ATOM     10  C   LIG    1       25.051 -23.130   7.125  0.00  0.00    +0.087 C 
ATOM     11  C   LIG    1       26.457 -22.659   7.429  0.00  0.00    +0.030 C 
ATOM     12  C   LIG    1       25.950 -20.666   8.918  0.00  0.00    +0.019 C 
ATOM     13  C   LIG    1       27.067 -19.763   5.751  0.00  0.00    +0.035 A 
ATOM     14  C   LIG    1       28.005 -19.017   5.050  0.00  0.00    +0.027 A 
ATOM     15  C   LIG    1       29.318 -18.924   5.538  0.00  0.00    +0.048 A 
ENDROOT
BRANCH   1  16
ATOM     16  O   LIG    1       31.038 -19.509   7.102  0.00  0.00    -0.411 OA
BRANCH  16  20
ATOM     17  C   LIG    1       31.238 -22.202   9.465  0.00  0.00    +0.131 C 
ATOM     18  N   LIG    1       31.312 -21.435   8.250  0.00  0.00    -0.284 N 
ATOM     19  H   LIG    1       30.895 -21.797   7.405  0.00  0.00    +0.152 HD
ATOM     20  C   LIG    1       31.461 -20.071   8.304  0.00  0.00    +0.405 C 
ATOM     21  O   LIG    1       31.845 -19.462   9.290  0.00  0.00    -0.226 OA
ENDBRANCH  16  20
ENDBRANCH   1  16
TORSDOF 2
ENDMDL
MODEL 3
REMARK VINA RESULT:      -7.0      4.027      6.873
REMARK  Name = *****
REMARK                            x       y       z     vdW  Elec       q    Type
REMARK                         _______ _______ _______ _____ _____    ______ ____
ROOT
ATOM      1  C   LIG    1       24.763 -24.344   6.584  0.00  0.00    +0.134 A 
ATOM      2  C   LIG    1       24.071 -23.470   5.751  0.00  0.00    +0.052 A 
ATOM      3  C   LIG    1       24.551 -22.174   5.615  0.00  0.00    -0.014 A 
ATOM      4  C   LIG    1       23.982 -21.072   4.786  0.00  0.00    +0.028 C 
ATOM      5  C   LIG    1       24.988 -19.894   5.038  0.00  0.00    +0.154 C 
ATOM      6  N   LIG    1       26.024 -20.391   5.982  0.00  0.00    -0.316 N 
ATOM      7  C   LIG    1       27.417 -20.122   5.658  0.00  0.00    +0.131 C 
ATOM      8  N   LIG    1       25.352 -19.404   3.687  0.00  0.00    -0.287 NA
ATOM      9  C   LIG    1       25.410 -17.951   3.617  0.00  0.00    +0.106 C 
ATOM     10  C   LIG    1       24.387 -19.953   2.734  0.00  0.00    +0.087 C 
ATOM     11  C   LIG    1       24.090 -21.332   3.286  0.00  0.00    +0.030 C 
ATOM     12  C   LIG    1       22.551 -20.723   5.211  0.00  0.00    +0.019 C 
ATOM     13  C   LIG    1       25.712 -21.737   6.249  0.00  0.00    +0.035 A 
ATOM     14  C   LIG    1       26.408 -22.617   7.067  0.00  0.00    +0.027 A 
ATOM     15  C   LIG    1       25.935 -23.929   7.231  0.00  0.00    +0.048 A 
ENDROOT
BRANCH   1  16
ATOM     16  O   LIG    1       24.406 -25.704   6.721  0.00  0.00    -0.411 OA
BRANCH  16  20
ATOM     17  C   LIG    1       24.575 -29.029   5.381  0.00  0.00    +0.131 C 
ATOM     18  N   LIG    1       24.078 -27.792   5.924  0.00  0.00    -0.284 N 
ATOM     19  H   LIG    1       23.451 -27.810   6.715  0.00  0.00    +0.152 HD
ATOM     20  C   LIG    1       24.791 -26.630   5.755  0.00  0.00    +0.405 C 
ATOM     21  O   LIG    1       25.667 -26.479   4.919  0.00  0.00    -0.226 OA
ENDBRANCH  16  20
ENDBRANCH   1  16
TORSDOF 2
ENDMDL
MODEL 4
REMARK VINA RESULT:      -6.9      1.829      3.484
REMARK  Name = *****
REMARK                            x       y       z     vdW  Elec       q    Type
REMARK                         _______ _______ _______ _____ _____    ______ ____
ROOT
ATOM      1  C   LIG    1       27.881 -20.319   6.355  0.00  0.00    +0.134 A 
ATOM      2  C   LIG    1       26.949 -19.878   5.421  0.00  0.00    +0.052 A 
ATOM      3  C   LIG    1       25.729 -20.539   5.350  0.00  0.00    -0.014 A 
ATOM      4  C   LIG    1       24.585 -20.249   4.438  0.00  0.00    +0.028 C 
ATOM      5  C   LIG    1       23.516 -21.313   4.873  0.00  0.00    +0.154 C 
ATOM      6  N   LIG    1       24.118 -22.124   5.964  0.00  0.00    -0.316 N 
ATOM      7  C   LIG    1       23.310 -22.366   7.149  0.00  0.00    +0.131 C 
ATOM      8  N   LIG    1       22.270 -20.540   5.089  0.00  0.00    -0.287 NA
ATOM      9  C   LIG    1       21.093 -21.219   4.565  0.00  0.00    +0.106 C 
ATOM     10  C   LIG    1       22.448 -19.220   4.481  0.00  0.00    +0.087 C 
ATOM     11  C   LIG    1       23.909 -18.911   4.729  0.00  0.00    +0.030 C 
ATOM     12  C   LIG    1       24.985 -20.387   2.965  0.00  0.00    +0.019 C 
ATOM     13  C   LIG    1       25.400 -21.592   6.200  0.00  0.00    +0.035 A 
ATOM     14  C   LIG    1       26.328 -22.018   7.142  0.00  0.00    +0.027 A 
ATOM     15  C   LIG    1       27.574 -21.375   7.223  0.00  0.00    +0.048 A 
ENDROOT
BRANCH   1  16
ATOM     16  O   LIG    1       29.114 -19.661   6.564  0.00  0.00    -0.411 OA
BRANCH  16  20
ATOM     17  C   LIG    1       31.240 -21.240   8.987  0.00  0.00    +0.131 C 
ATOM     18  N   LIG    1       30.747 -20.657   7.767  0.00  0.00    -0.284 N 
ATOM     19  H   LIG    1       30.841 -21.163   6.898  0.00  0.00    +0.152 HD
ATOM     20  C   LIG    1       29.740 -19.724   7.807  0.00  0.00    +0.405 C 
ATOM     21  O   LIG    1       29.420 -19.104   8.808  0.00  0.00    -0.226 OA
ENDBRANCH  16  20
ENDBRANCH   1  16
TORSDOF 2
ENDMDL
MODEL 5
REMARK VINA RESULT:      -6.6      7.148      9.650
REMARK  Name = *****
REMARK                            x       y       z     vdW  Elec       q    Type
REMARK                         _______ _______ _______ _____ _____    ______ ____
ROOT
ATOM      1  C   LIG    1       25.349 -26.916   6.471  0.00  0.00    +0.134 A 
ATOM      2  C   LIG    1       25.375 -27.775   7.565  0.00  0.00    +0.052 A 
ATOM      3  C   LIG    1       25.199 -29.133   7.337  0.00  0.00    -0.014 A 
ATOM      4  C   LIG    1       25.188 -30.235   8.343  0.00  0.00    +0.028 C 
ATOM      5  C   LIG    1       24.979 -31.513   7.456  0.00  0.00    +0.154 C 
ATOM      6  N   LIG    1       24.872 -31.059   6.044  0.00  0.00    -0.316 N 
ATOM      7  C   LIG    1       25.651 -31.773   5.045  0.00  0.00    +0.131 C 
ATOM      8  N   LIG    1       26.043 -32.453   7.881  0.00  0.00    -0.287 NA
ATOM      9  C   LIG    1       25.564 -33.824   7.993  0.00  0.00    +0.106 C 
ATOM     10  C   LIG    1       26.593 -31.968   9.147  0.00  0.00    +0.087 C 
ATOM     11  C   LIG    1       26.548 -30.463   8.998  0.00  0.00    +0.030 C 
ATOM     12  C   LIG    1       24.072 -30.048   9.377  0.00  0.00    +0.019 C 
ATOM     13  C   LIG    1       25.036 -29.661   6.058  0.00  0.00    +0.035 A 
ATOM     14  C   LIG    1       25.027 -28.801   4.967  0.00  0.00    +0.027 A 
ATOM     15  C   LIG    1       25.190 -27.421   5.174  0.00  0.00    +0.048 A 
ENDROOT
BRANCH   1  16
ATOM     16  O   LIG    1       25.604 -25.531   6.589  0.00  0.00    -0.411 OA
BRANCH  16  20
ATOM     17  C   LIG    1       24.504 -22.314   5.439  0.00  0.00    +0.131 C 
ATOM     18  N   LIG    1       25.168 -23.588   5.521  0.00  0.00    -0.284 N 
ATOM     19  H   LIG    1       26.166 -23.641   5.379  0.00  0.00    +0.152 HD
ATOM     20  C   LIG    1       24.616 -24.606   6.259  0.00  0.00    +0.405 C 
ATOM     21  O   LIG    1       23.449 -24.640   6.615  0.00  0.00    -0.226 OA
ENDBRANCH  16  20
ENDBRANCH   1  16
TORSDOF 2
ENDMDL
MODEL 6
REMARK VINA RESULT:      -6.3      1.491      2.634
REMARK  Name = *****
REMARK                            x       y       z     vdW  Elec       q    Type
REMARK                         _______ _______ _______ _____ _____    ______ ____
ROOT
ATOM      1  C   LIG    1       28.761 -19.681   6.610  0.00  0.00    +0.134 A 
ATOM      2  C   LIG    1       27.473 -19.628   6.087  0.00  0.00    +0.052 A 
ATOM      3  C   LIG    1       26.668 -20.752   6.209  0.00  0.00    -0.014 A 
ATOM      4  C   LIG    1       25.266 -20.929   5.731  0.00  0.00    +0.028 C 
ATOM      5  C   LIG    1       24.920 -22.387   6.197  0.00  0.00    +0.154 C 
ATOM      6  N   LIG    1       26.126 -22.931   6.877  0.00  0.00    -0.316 N 
ATOM      7  C   LIG    1       25.936 -23.599   8.155  0.00  0.00    +0.131 C 
ATOM      8  N   LIG    1       23.627 -22.266   6.909  0.00  0.00    -0.287 NA
ATOM      9  C   LIG    1       22.711 -23.353   6.591  0.00  0.00    +0.106 C 
ATOM     10  C   LIG    1       23.052 -20.961   6.580  0.00  0.00    +0.087 C 
ATOM     11  C   LIG    1       24.262 -20.057   6.481  0.00  0.00    +0.030 C 
ATOM     12  C   LIG    1       25.159 -20.757   4.211  0.00  0.00    +0.019 C 
ATOM     13  C   LIG    1       27.091 -21.906   6.865  0.00  0.00    +0.035 A 
ATOM     14  C   LIG    1       28.372 -21.950   7.399  0.00  0.00    +0.027 A 
ATOM     15  C   LIG    1       29.210 -20.829   7.276  0.00  0.00    +0.048 A 
ENDROOT
BRANCH   1  16
ATOM     16  O   LIG    1       29.626 -18.564   6.614  0.00  0.00    -0.411 OA
BRANCH  16  20
ATOM     17  C   LIG    1       30.865 -17.184   9.687  0.00  0.00    +0.131 C 
ATOM     18  N   LIG    1       30.030 -17.841   8.715  0.00  0.00    -0.284 N 
ATOM     19  H   LIG    1       29.062 -17.569   8.624  0.00  0.00    +0.152 HD
ATOM     20  C   LIG    1       30.591 -18.428   7.608  0.00  0.00    +0.405 C 
ATOM     21  O   LIG    1       31.773 -18.717   7.511  0.00  0.00    -0.226 OA
ENDBRANCH  16  20
ENDBRANCH   1  16
TORSDOF 2
ENDMDL
MODEL 7
REMARK VINA RESULT:      -6.3      7.278      9.941
REMARK  Name = *****
REMARK                            x       y       z     vdW  Elec       q    Type
REMARK                         _______ _______ _______ _____ _____    ______ ____
ROOT
ATOM      1  C   LIG    1       25.391 -27.308   6.482  0.00  0.00    +0.134 A 
ATOM      2  C   LIG    1       25.722 -28.038   7.619  0.00  0.00    +0.052 A 
ATOM      3  C   LIG    1       25.155 -29.295   7.779  0.00  0.00    -0.014 A 
ATOM      4  C   LIG    1       25.358 -30.253   8.905  0.00  0.00    +0.028 C 
ATOM      5  C   LIG    1       24.478 -31.481   8.481  0.00  0.00    +0.154 C 
ATOM      6  N   LIG    1       23.838 -31.138   7.183  0.00  0.00    -0.316 N 
ATOM      7  C   LIG    1       23.882 -32.136   6.125  0.00  0.00    +0.131 C 
ATOM      8  N   LIG    1       25.371 -32.656   8.610  0.00  0.00    -0.287 NA
ATOM      9  C   LIG    1       24.699 -33.806   9.200  0.00  0.00    +0.106 C 
ATOM     10  C   LIG    1       26.538 -32.251   9.395  0.00  0.00    +0.087 C 
ATOM     11  C   LIG    1       26.774 -30.820   8.963  0.00  0.00    +0.030 C 
ATOM     12  C   LIG    1       24.921 -29.652  10.246  0.00  0.00    +0.019 C 
ATOM     13  C   LIG    1       24.305 -29.858   6.830  0.00  0.00    +0.035 A 
ATOM     14  C   LIG    1       23.990 -29.132   5.688  0.00  0.00    +0.027 A 
ATOM     15  C   LIG    1       24.541 -27.852   5.511  0.00  0.00    +0.048 A 
ENDROOT
BRANCH   1  16
ATOM     16  O   LIG    1       25.981 -26.058   6.185  0.00  0.00    -0.411 OA
BRANCH  16  20
ATOM     17  C   LIG    1       23.317 -23.707   6.692  0.00  0.00    +0.131 C 
ATOM     18  N   LIG    1       24.512 -24.488   6.877  0.00  0.00    -0.284 N 
ATOM     19  H   LIG    1       24.654 -24.984   7.745  0.00  0.00    +0.152 HD
ATOM     20  C   LIG    1       25.185 -24.985   5.789  0.00  0.00    +0.405 C 
ATOM     21  O   LIG    1       25.043 -24.574   4.649  0.00  0.00    -0.226 OA
ENDBRANCH  16  20
ENDBRANCH   1  16
TORSDOF 2
ENDMDL
MODEL 8
REMARK VINA RESULT:      -6.0      7.306     10.015
REMARK  Name = *****
REMARK                            x       y       z     vdW  Elec       q    Type
REMARK                         _______ _______ _______ _____ _____    ______ ____
ROOT
ATOM      1  C   LIG    1       24.876 -27.615   6.543  0.00  0.00    +0.134 A 
ATOM      2  C   LIG    1       24.271 -28.793   6.968  0.00  0.00    +0.052 A 
ATOM      3  C   LIG    1       24.841 -29.476   8.034  0.00  0.00    -0.014 A 
ATOM      4  C   LIG    1       24.374 -30.748   8.660  0.00  0.00    +0.028 C 
ATOM      5  C   LIG    1       25.413 -30.968   9.816  0.00  0.00    +0.154 C 
ATOM      6  N   LIG    1       26.383 -29.843   9.758  0.00  0.00    -0.316 N 
ATOM      7  C   LIG    1       26.712 -29.171  11.006  0.00  0.00    +0.131 C 
ATOM      8  N   LIG    1       24.594 -31.215  11.026  0.00  0.00    -0.287 NA
ATOM      9  C   LIG    1       25.132 -32.284  11.855  0.00  0.00    +0.106 C 
ATOM     10  C   LIG    1       23.226 -31.502  10.593  0.00  0.00    +0.087 C 
ATOM     11  C   LIG    1       23.040 -30.604   9.388  0.00  0.00    +0.030 C 
ATOM     12  C   LIG    1       24.362 -31.903   7.653  0.00  0.00    +0.019 C 
ATOM     13  C   LIG    1       25.964 -29.003   8.709  0.00  0.00    +0.035 A 
ATOM     14  C   LIG    1       26.555 -27.818   8.291  0.00  0.00    +0.027 A 
ATOM     15  C   LIG    1       26.005 -27.117   7.206  0.00  0.00    +0.048 A 
ENDROOT
BRANCH   1  16
ATOM     16  O   LIG    1       24.325 -26.804   5.525  0.00  0.00    -0.411 OA
BRANCH  16  20
ATOM     17  C   LIG    1       24.989 -23.284   5.303  0.00  0.00    +0.131 C 
ATOM     18  N   LIG    1       24.766 -24.663   4.955  0.00  0.00    -0.284 N 
ATOM     19  H   LIG    1       25.422 -25.138   4.354  0.00  0.00    +0.152 HD
ATOM     20  C   LIG    1       24.020 -25.469   5.780  0.00  0.00    +0.405 C 
ATOM     21  O   LIG    1       23.262 -25.054   6.642  0.00  0.00    -0.226 OA
ENDBRANCH  16  20
ENDBRANCH   1  16
TORSDOF 2
ENDMDL
MODEL 9
REMARK VINA RESULT:      -5.9      7.428     10.058
REMARK  Name = *****
REMARK                            x       y       z     vdW  Elec       q    Type
REMARK                         _______ _______ _______ _____ _____    ______ ____
ROOT
ATOM      1  C   LIG    1       25.457 -27.365   5.935  0.00  0.00    +0.134 A 
ATOM      2  C   LIG    1       25.181 -28.676   5.559  0.00  0.00    +0.052 A 
ATOM      3  C   LIG    1       25.366 -29.681   6.499  0.00  0.00    -0.014 A 
ATOM      4  C   LIG    1       25.138 -31.146   6.328  0.00  0.00    +0.028 C 
ATOM      5  C   LIG    1       25.494 -31.721   7.744  0.00  0.00    +0.154 C 
ATOM      6  N   LIG    1       25.906 -30.574   8.596  0.00  0.00    -0.316 N 
ATOM      7  C   LIG    1       25.334 -30.486   9.931  0.00  0.00    +0.131 C 
ATOM      8  N   LIG    1       24.341 -32.576   8.112  0.00  0.00    -0.287 NA
ATOM      9  C   LIG    1       24.751 -33.825   8.740  0.00  0.00    +0.106 C 
ATOM     10  C   LIG    1       23.551 -32.812   6.903  0.00  0.00    +0.087 C 
ATOM     11  C   LIG    1       23.665 -31.507   6.146  0.00  0.00    +0.030 C 
ATOM     12  C   LIG    1       26.018 -31.731   5.217  0.00  0.00    +0.019 C 
ATOM     13  C   LIG    1       25.778 -29.418   7.803  0.00  0.00    +0.035 A 
ATOM     14  C   LIG    1       26.037 -28.106   8.179  0.00  0.00    +0.027 A 
ATOM     15  C   LIG    1       25.871 -27.073   7.242  0.00  0.00    +0.048 A 
ENDROOT
BRANCH   1  16
ATOM     16  O   LIG    1       25.219 -26.265   5.081  0.00  0.00    -0.411 OA
BRANCH  16  20
ATOM     17  C   LIG    1       24.759 -22.756   5.678  0.00  0.00    +0.131 C 
ATOM     18  N   LIG    1       25.023 -24.015   5.032  0.00  0.00    -0.284 N 
ATOM     19  H   LIG    1       25.860 -24.126   4.478  0.00  0.00    +0.152 HD
ATOM     20  C   LIG    1       24.482 -25.173   5.534  0.00  0.00    +0.405 C 
ATOM     21  O   LIG    1       23.539 -25.210   6.308  0.00  0.00    -0.226 OA
ENDBRANCH  16  20
ENDBRANCH   1  16
TORSDOF 2
ENDMDL
