MODEL 1
REMARK VINA RESULT:      -8.4      0.000      0.000
REMARK  Name = *****
REMARK                            x       y       z     vdW  Elec       q    Type
REMARK                         _______ _______ _______ _____ _____    ______ ____
ROOT
ATOM      1  C   LIG    1       25.353 -22.735   7.219  0.00  0.00    +0.080 A 
ATOM      2  C   LIG    1       23.971 -22.519   7.062  0.00  0.00    +0.132 A 
ATOM      3  C   LIG    1       23.157 -23.620   6.734  0.00  0.00    +0.048 A 
ATOM      4  C   LIG    1       23.683 -24.898   6.524  0.00  0.00    +0.030 A 
ATOM      5  C   LIG    1       25.055 -25.081   6.641  0.00  0.00    +0.089 A 
ATOM      6  C   LIG    1       25.882 -24.026   7.022  0.00  0.00    +0.043 A 
ENDROOT
BRANCH   1   9
ATOM      7  N   LIG    1       27.049 -21.150   6.544  0.00  0.00    -0.310 N 
ATOM      8  H   LIG    1       26.854 -21.438   5.595  0.00  0.00    +0.149 HD
ATOM      9  C   LIG    1       26.361 -21.717   7.601  0.00  0.00    +0.248 C 
ATOM     10  O   LIG    1       26.588 -21.448   8.772  0.00  0.00    -0.270 OA
BRANCH   7  11
ATOM     11  C   LIG    1       28.026 -20.093   6.752  0.00  0.00    +0.120 C 
BRANCH  11  12
ATOM     12  C   LIG    1       29.395 -20.614   7.249  0.00  0.00    +0.103 C 
BRANCH  12  13
ATOM     13  N   LIG    1       29.912 -19.964   8.483  0.00  0.00    -0.301 NA
BRANCH  13  15
ATOM     14  C   LIG    1       31.197 -22.027   9.220  0.00  0.00    +0.020 C 
ATOM     15  C   LIG    1       31.229 -20.544   8.847  0.00  0.00    +0.081 C 
ENDBRANCH  13  15
BRANCH  13  16
ATOM     16  C   LIG    1       30.047 -18.501   8.290  0.00  0.00    +0.081 C 
ATOM     17  C   LIG    1       30.204 -17.679   9.567  0.00  0.00    +0.020 C 
ENDBRANCH  13  16
ENDBRANCH  12  13
ENDBRANCH  11  12
ENDBRANCH   7  11
ENDBRANCH   1   9
BRANCH   5  18
ATOM     18  S   LIG    1       25.786 -26.658   6.292  0.00  0.00    -0.006 S 
ATOM     19  O   LIG    1       26.146 -27.267   7.559  0.00  0.00    -0.170 OA
ATOM     20  O   LIG    1       26.771 -26.456   5.245  0.00  0.00    -0.170 OA
ATOM     21  C   LIG    1       24.426 -27.567   5.597  0.00  0.00    +0.200 C 
ENDBRANCH   5  18
BRANCH   2  22
ATOM     22  O   LIG    1       23.231 -21.374   7.136  0.00  0.00    -0.494 OA
ATOM     23  C   LIG    1       23.129 -20.510   6.018  0.00  0.00    +0.277 C 
ENDBRANCH   2  22
TORSDOF 8
ENDMDL
MODEL 2
REMARK VINA RESULT:      -7.7      3.399      7.479
REMARK  Name = *****
REMARK                            x       y       z     vdW  Elec       q    Type
REMARK                         _______ _______ _______ _____ _____    ______ ____
ROOT
ATOM      1  C   LIG    1       28.089 -20.275   7.288  0.00  0.00    +0.080 A 
ATOM      2  C   LIG    1       28.062 -19.819   5.957  0.00  0.00    +0.132 A 
ATOM      3  C   LIG    1       29.108 -18.987   5.515  0.00  0.00    +0.048 A 
ATOM      4  C   LIG    1       30.138 -18.574   6.364  0.00  0.00    +0.030 A 
ATOM      5  C   LIG    1       30.123 -18.999   7.686  0.00  0.00    +0.089 A 
ATOM      6  C   LIG    1       29.135 -19.870   8.140  0.00  0.00    +0.043 A 
ENDROOT
BRANCH   1   9
ATOM      7  N   LIG    1       26.868 -22.361   7.235  0.00  0.00    -0.310 N 
ATOM      8  H   LIG    1       27.345 -22.548   6.364  0.00  0.00    +0.149 HD
ATOM      9  C   LIG    1       27.105 -21.185   7.924  0.00  0.00    +0.248 C 
ATOM     10  O   LIG    1       26.523 -20.880   8.954  0.00  0.00    -0.270 OA
BRANCH   7  11
ATOM     11  C   LIG    1       25.977 -23.383   7.762  0.00  0.00    +0.120 C 
BRANCH  11  12
ATOM     12  C   LIG    1       25.825 -24.603   6.823  0.00  0.00    +0.103 C 
BRANCH  12  13
ATOM     13  N   LIG    1       24.663 -24.549   5.896  0.00  0.00    -0.301 NA
BRANCH  13  15
ATOM     14  C   LIG    1       24.435 -27.078   5.828  0.00  0.00    +0.020 C 
ATOM     15  C   LIG    1       24.628 -25.772   5.055  0.00  0.00    +0.081 C 
ENDBRANCH  13  15
BRANCH  13  16
ATOM     16  C   LIG    1       23.393 -24.426   6.649  0.00  0.00    +0.081 C 
ATOM     17  C   LIG    1       22.759 -23.037   6.653  0.00  0.00    +0.020 C 
ENDBRANCH  13  16
ENDBRANCH  12  13
ENDBRANCH  11  12
ENDBRANCH   7  11
ENDBRANCH   1   9
BRANCH   5  18
ATOM     18  S   LIG    1       31.352 -18.427   8.830  0.00  0.00    -0.006 S 
ATOM     19  O   LIG    1       32.054 -17.322   8.205  0.00  0.00    -0.170 OA
ATOM     20  O   LIG    1       32.065 -19.594   9.317  0.00  0.00    -0.170 OA
ATOM     21  C   LIG    1       30.369 -17.788  10.165  0.00  0.00    +0.200 C 
ENDBRANCH   5  18
BRANCH   2  22
ATOM     22  O   LIG    1       27.144 -20.013   4.964  0.00  0.00    -0.494 OA
ATOM     23  C   LIG    1       25.757 -19.975   5.249  0.00  0.00    +0.277 C 
ENDBRANCH   2  22
TORSDOF 8
ENDMDL
MODEL 3
REMARK VINA RESULT:      -7.3      3.430      7.222
REMARK  Name = *****
REMARK                            x       y       z     vdW  Elec       q    Type
REMARK                         _______ _______ _______ _____ _____    ______ ____
ROOT
ATOM      1  C   LIG    1       28.030 -20.060   7.292  0.00  0.00    +0.080 A 
ATOM      2  C   LIG    1       28.076 -19.650   5.947  0.00  0.00    +0.132 A 
ATOM      3  C   LIG    1       29.197 -18.918   5.510  0.00  0.00    +0.048 A 
ATOM      4  C   LIG    1       30.233 -18.558   6.376  0.00  0.00    +0.030 A 
ATOM      5  C   LIG    1       30.147 -18.935   7.711  0.00  0.00    +0.089 A 
ATOM      6  C   LIG    1       29.081 -19.709   8.162  0.00  0.00    +0.043 A 
ENDROOT
BRANCH   1   9
ATOM      7  N   LIG    1       25.677 -20.578   7.499  0.00  0.00    -0.310 N 
ATOM      8  H   LIG    1       25.520 -19.858   6.807  0.00  0.00    +0.149 HD
ATOM      9  C   LIG    1       26.960 -20.868   7.926  0.00  0.00    +0.248 C 
ATOM     10  O   LIG    1       27.209 -21.691   8.796  0.00  0.00    -0.270 OA
BRANCH   7  11
ATOM     11  C   LIG    1       24.527 -21.327   7.981  0.00  0.00    +0.120 C 
BRANCH  11  12
ATOM     12  C   LIG    1       23.931 -22.282   6.921  0.00  0.00    +0.103 C 
BRANCH  12  13
ATOM     13  N   LIG    1       24.809 -22.561   5.752  0.00  0.00    -0.301 NA
BRANCH  13  15
ATOM     14  C   LIG    1       25.762 -24.750   6.619  0.00  0.00    +0.020 C 
ATOM     15  C   LIG    1       24.937 -24.026   5.554  0.00  0.00    +0.081 C 
ENDBRANCH  13  15
BRANCH  13  16
ATOM     16  C   LIG    1       24.266 -21.936   4.524  0.00  0.00    +0.081 C 
ATOM     17  C   LIG    1       23.200 -20.865   4.743  0.00  0.00    +0.020 C 
ENDBRANCH  13  16
ENDBRANCH  12  13
ENDBRANCH  11  12
ENDBRANCH   7  11
ENDBRANCH   1   9
BRANCH   5  18
ATOM     18  S   LIG    1       31.386 -18.423   8.872  0.00  0.00    -0.006 S 
ATOM     19  O   LIG    1       32.117 -17.320   8.278  0.00  0.00    -0.170 OA
ATOM     20  O   LIG    1       32.069 -19.619   9.332  0.00  0.00    -0.170 OA
ATOM     21  C   LIG    1       30.414 -17.794  10.220  0.00  0.00    +0.200 C 
ENDBRANCH   5  18
BRANCH   2  22
ATOM     22  O   LIG    1       27.174 -19.804   4.933  0.00  0.00    -0.494 OA
ATOM     23  C   LIG    1       26.699 -18.679   4.216  0.00  0.00    +0.277 C 
ENDBRANCH   2  22
TORSDOF 8
ENDMDL
MODEL 4
REMARK VINA RESULT:      -7.3      3.434      7.507
REMARK  Name = *****
REMARK                            x       y       z     vdW  Elec       q    Type
REMARK                         _______ _______ _______ _____ _____    ______ ____
ROOT
ATOM      1  C   LIG    1       28.034 -20.106   7.298  0.00  0.00    +0.080 A 
ATOM      2  C   LIG    1       28.069 -19.716   5.946  0.00  0.00    +0.132 A 
ATOM      3  C   LIG    1       29.185 -18.989   5.489  0.00  0.00    +0.048 A 
ATOM      4  C   LIG    1       30.228 -18.615   6.342  0.00  0.00    +0.030 A 
ATOM      5  C   LIG    1       30.154 -18.973   7.682  0.00  0.00    +0.089 A 
ATOM      6  C   LIG    1       29.092 -19.741   8.154  0.00  0.00    +0.043 A 
ENDROOT
BRANCH   1   9
ATOM      7  N   LIG    1       25.679 -20.555   7.606  0.00  0.00    -0.310 N 
ATOM      8  H   LIG    1       25.512 -19.800   6.955  0.00  0.00    +0.149 HD
ATOM      9  C   LIG    1       26.971 -20.906   7.953  0.00  0.00    +0.248 C 
ATOM     10  O   LIG    1       27.236 -21.774   8.772  0.00  0.00    -0.270 OA
BRANCH   7  11
ATOM     11  C   LIG    1       24.530 -21.287   8.117  0.00  0.00    +0.120 C 
BRANCH  11  12
ATOM     12  C   LIG    1       23.275 -21.154   7.223  0.00  0.00    +0.103 C 
BRANCH  12  13
ATOM     13  N   LIG    1       23.264 -22.019   6.012  0.00  0.00    -0.301 NA
BRANCH  13  15
ATOM     14  C   LIG    1       23.002 -19.828   4.753  0.00  0.00    +0.020 C 
ATOM     15  C   LIG    1       23.633 -21.220   4.816  0.00  0.00    +0.081 C 
ENDBRANCH  13  15
BRANCH  13  16
ATOM     16  C   LIG    1       24.206 -23.152   6.165  0.00  0.00    +0.081 C 
ATOM     17  C   LIG    1       23.572 -24.492   6.533  0.00  0.00    +0.020 C 
ENDBRANCH  13  16
ENDBRANCH  12  13
ENDBRANCH  11  12
ENDBRANCH   7  11
ENDBRANCH   1   9
BRANCH   5  18
ATOM     18  S   LIG    1       31.402 -18.442   8.825  0.00  0.00    -0.006 S 
ATOM     19  O   LIG    1       32.124 -17.345   8.210  0.00  0.00    -0.170 OA
ATOM     20  O   LIG    1       32.092 -19.630   9.294  0.00  0.00    -0.170 OA
ATOM     21  C   LIG    1       30.441 -17.798  10.174  0.00  0.00    +0.200 C 
ENDBRANCH   5  18
BRANCH   2  22
ATOM     22  O   LIG    1       27.159 -19.886   4.942  0.00  0.00    -0.494 OA
ATOM     23  C   LIG    1       26.629 -18.766   4.255  0.00  0.00    +0.277 C 
ENDBRANCH   2  22
TORSDOF 8
ENDMDL
MODEL 5
REMARK VINA RESULT:      -7.3      3.146      7.048
REMARK  Name = *****
REMARK                            x       y       z     vdW  Elec       q    Type
REMARK                         _______ _______ _______ _____ _____    ______ ____
ROOT
ATOM      1  C   LIG    1       26.840 -21.264   6.869  0.00  0.00    +0.080 A 
ATOM      2  C   LIG    1       26.571 -20.475   5.736  0.00  0.00    +0.132 A 
ATOM      3  C   LIG    1       27.561 -19.573   5.300  0.00  0.00    +0.048 A 
ATOM      4  C   LIG    1       28.772 -19.413   5.980  0.00  0.00    +0.030 A 
ATOM      5  C   LIG    1       28.999 -20.171   7.122  0.00  0.00    +0.089 A 
ATOM      6  C   LIG    1       28.066 -21.114   7.546  0.00  0.00    +0.043 A 
ENDROOT
BRANCH   1   9
ATOM      7  N   LIG    1       25.088 -22.901   6.553  0.00  0.00    -0.310 N 
ATOM      8  H   LIG    1       25.096 -22.632   5.579  0.00  0.00    +0.149 HD
ATOM      9  C   LIG    1       25.946 -22.294   7.453  0.00  0.00    +0.248 C 
ATOM     10  O   LIG    1       25.948 -22.539   8.650  0.00  0.00    -0.270 OA
BRANCH   7  11
ATOM     11  C   LIG    1       24.195 -23.974   6.961  0.00  0.00    +0.120 C 
BRANCH  11  12
ATOM     12  C   LIG    1       24.229 -25.193   6.009  0.00  0.00    +0.103 C 
BRANCH  12  13
ATOM     13  N   LIG    1       24.967 -26.378   6.523  0.00  0.00    -0.301 NA
BRANCH  13  15
ATOM     14  C   LIG    1       24.443 -28.821   6.978  0.00  0.00    +0.020 C 
ATOM     15  C   LIG    1       24.328 -27.625   6.033  0.00  0.00    +0.081 C 
ENDBRANCH  13  15
BRANCH  13  16
ATOM     16  C   LIG    1       26.385 -26.342   6.094  0.00  0.00    +0.081 C 
ATOM     17  C   LIG    1       26.708 -27.112   4.816  0.00  0.00    +0.020 C 
ENDBRANCH  13  16
ENDBRANCH  12  13
ENDBRANCH  11  12
ENDBRANCH   7  11
ENDBRANCH   1   9
BRANCH   5  18
ATOM     18  S   LIG    1       30.477 -19.940   8.075  0.00  0.00    -0.006 S 
ATOM     19  O   LIG    1       31.576 -19.756   7.146  0.00  0.00    -0.170 OA
ATOM     20  O   LIG    1       30.509 -20.984   9.084  0.00  0.00    -0.170 OA
ATOM     21  C   LIG    1       30.168 -18.394   8.895  0.00  0.00    +0.200 C 
ENDBRANCH   5  18
BRANCH   2  22
ATOM     22  O   LIG    1       25.456 -20.386   4.952  0.00  0.00    -0.494 OA
ATOM     23  C   LIG    1       25.400 -19.454   3.886  0.00  0.00    +0.277 C 
ENDBRANCH   2  22
TORSDOF 8
ENDMDL
MODEL 6
REMARK VINA RESULT:      -7.3      1.376      1.974
REMARK  Name = *****
REMARK                            x       y       z     vdW  Elec       q    Type
REMARK                         _______ _______ _______ _____ _____    ______ ____
ROOT
ATOM      1  C   LIG    1       25.164 -22.447   6.724  0.00  0.00    +0.080 A 
ATOM      2  C   LIG    1       23.785 -22.206   6.861  0.00  0.00    +0.132 A 
ATOM      3  C   LIG    1       22.904 -23.301   6.776  0.00  0.00    +0.048 A 
ATOM      4  C   LIG    1       23.354 -24.600   6.522  0.00  0.00    +0.030 A 
ATOM      5  C   LIG    1       24.717 -24.810   6.346  0.00  0.00    +0.089 A 
ATOM      6  C   LIG    1       25.620 -23.758   6.482  0.00  0.00    +0.043 A 
ENDROOT
BRANCH   1   9
ATOM      7  N   LIG    1       27.084 -21.584   7.913  0.00  0.00    -0.310 N 
ATOM      8  H   LIG    1       26.936 -22.334   8.574  0.00  0.00    +0.149 HD
ATOM      9  C   LIG    1       26.245 -21.437   6.823  0.00  0.00    +0.248 C 
ATOM     10  O   LIG    1       26.342 -20.521   6.019  0.00  0.00    -0.270 OA
BRANCH   7  11
ATOM     11  C   LIG    1       28.228 -20.709   8.115  0.00  0.00    +0.120 C 
BRANCH  11  12
ATOM     12  C   LIG    1       29.335 -20.895   7.050  0.00  0.00    +0.103 C 
BRANCH  12  13
ATOM     13  N   LIG    1       30.521 -20.011   7.206  0.00  0.00    -0.301 NA
BRANCH  13  15
ATOM     14  C   LIG    1       29.377 -18.460   5.552  0.00  0.00    +0.020 C 
ATOM     15  C   LIG    1       30.160 -18.614   6.856  0.00  0.00    +0.081 C 
ENDBRANCH  13  15
BRANCH  13  16
ATOM     16  C   LIG    1       31.036 -20.060   8.595  0.00  0.00    +0.081 C 
ATOM     17  C   LIG    1       31.396 -18.712   9.214  0.00  0.00    +0.020 C 
ENDBRANCH  13  16
ENDBRANCH  12  13
ENDBRANCH  11  12
ENDBRANCH   7  11
ENDBRANCH   1   9
BRANCH   5  18
ATOM     18  S   LIG    1       25.332 -26.419   5.927  0.00  0.00    -0.006 S 
ATOM     19  O   LIG    1       26.258 -26.263   4.822  0.00  0.00    -0.170 OA
ATOM     20  O   LIG    1       24.188 -27.308   5.831  0.00  0.00    -0.170 OA
ATOM     21  C   LIG    1       26.255 -26.868   7.377  0.00  0.00    +0.200 C 
ENDBRANCH   5  18
BRANCH   2  22
ATOM     22  O   LIG    1       23.093 -21.041   7.036  0.00  0.00    -0.494 OA
ATOM     23  C   LIG    1       22.794 -20.209   5.929  0.00  0.00    +0.277 C 
ENDBRANCH   2  22
TORSDOF 8
ENDMDL
MODEL 7
REMARK VINA RESULT:      -7.1      3.512      7.258
REMARK  Name = *****
REMARK                            x       y       z     vdW  Elec       q    Type
REMARK                         _______ _______ _______ _____ _____    ______ ____
ROOT
ATOM      1  C   LIG    1       27.850 -20.174   6.228  0.00  0.00    +0.080 A 
ATOM      2  C   LIG    1       27.366 -21.303   6.914  0.00  0.00    +0.132 A 
ATOM      3  C   LIG    1       28.097 -21.776   8.021  0.00  0.00    +0.048 A 
ATOM      4  C   LIG    1       29.298 -21.186   8.426  0.00  0.00    +0.030 A 
ATOM      5  C   LIG    1       29.781 -20.100   7.708  0.00  0.00    +0.089 A 
ATOM      6  C   LIG    1       29.053 -19.571   6.645  0.00  0.00    +0.043 A 
ENDROOT
BRANCH   1   9
ATOM      7  N   LIG    1       26.153 -20.205   4.506  0.00  0.00    -0.310 N 
ATOM      8  H   LIG    1       25.878 -21.104   4.878  0.00  0.00    +0.149 HD
ATOM      9  C   LIG    1       27.204 -19.507   5.072  0.00  0.00    +0.248 C 
ATOM     10  O   LIG    1       27.616 -18.441   4.636  0.00  0.00    -0.270 OA
BRANCH   7  11
ATOM     11  C   LIG    1       25.379 -19.653   3.405  0.00  0.00    +0.120 C 
BRANCH  11  12
ATOM     12  C   LIG    1       23.870 -19.978   3.496  0.00  0.00    +0.103 C 
BRANCH  12  13
ATOM     13  N   LIG    1       23.203 -19.549   4.755  0.00  0.00    -0.301 NA
BRANCH  13  15
ATOM     14  C   LIG    1       22.253 -17.197   4.620  0.00  0.00    +0.020 C 
ATOM     15  C   LIG    1       22.027 -18.699   4.441  0.00  0.00    +0.081 C 
ENDBRANCH  13  15
BRANCH  13  16
ATOM     16  C   LIG    1       22.772 -20.723   5.549  0.00  0.00    +0.081 C 
ATOM     17  C   LIG    1       23.266 -20.761   6.994  0.00  0.00    +0.020 C 
ENDBRANCH  13  16
ENDBRANCH  12  13
ENDBRANCH  11  12
ENDBRANCH   7  11
ENDBRANCH   1   9
BRANCH   5  18
ATOM     18  S   LIG    1       31.346 -19.374   8.120  0.00  0.00    -0.006 S 
ATOM     19  O   LIG    1       32.057 -19.127   6.879  0.00  0.00    -0.170 OA
ATOM     20  O   LIG    1       31.932 -20.180   9.176  0.00  0.00    -0.170 OA
ATOM     21  C   LIG    1       30.874 -17.811   8.819  0.00  0.00    +0.200 C 
ENDBRANCH   5  18
BRANCH   2  22
ATOM     22  O   LIG    1       26.278 -22.094   6.679  0.00  0.00    -0.494 OA
ATOM     23  C   LIG    1       26.120 -23.323   7.367  0.00  0.00    +0.277 C 
ENDBRANCH   2  22
TORSDOF 8
ENDMDL
MODEL 8
REMARK VINA RESULT:      -6.6      2.680      4.537
REMARK  Name = *****
REMARK                            x       y       z     vdW  Elec       q    Type
REMARK                         _______ _______ _______ _____ _____    ______ ____
ROOT
ATOM      1  C   LIG    1       26.213 -21.617   6.731  0.00  0.00    +0.080 A 
ATOM      2  C   LIG    1       25.718 -22.931   6.642  0.00  0.00    +0.132 A 
ATOM      3  C   LIG    1       24.803 -23.231   5.615  0.00  0.00    +0.048 A 
ATOM      4  C   LIG    1       24.347 -22.260   4.718  0.00  0.00    +0.030 A 
ATOM      5  C   LIG    1       24.814 -20.959   4.851  0.00  0.00    +0.089 A 
ATOM      6  C   LIG    1       25.765 -20.641   5.819  0.00  0.00    +0.043 A 
ENDROOT
BRANCH   1   9
ATOM      7  N   LIG    1       28.461 -21.700   7.619  0.00  0.00    -0.310 N 
ATOM      8  H   LIG    1       28.643 -22.412   6.924  0.00  0.00    +0.149 HD
ATOM      9  C   LIG    1       27.209 -21.120   7.712  0.00  0.00    +0.248 C 
ATOM     10  O   LIG    1       26.912 -20.293   8.562  0.00  0.00    -0.270 OA
BRANCH   7  11
ATOM     11  C   LIG    1       29.561 -21.274   8.470  0.00  0.00    +0.120 C 
BRANCH  11  12
ATOM     12  C   LIG    1       30.523 -20.283   7.774  0.00  0.00    +0.103 C 
BRANCH  12  13
ATOM     13  N   LIG    1       30.065 -18.868   7.747  0.00  0.00    -0.301 NA
BRANCH  13  15
ATOM     14  C   LIG    1       30.265 -17.345   9.771  0.00  0.00    +0.020 C 
ATOM     15  C   LIG    1       30.956 -18.032   8.591  0.00  0.00    +0.081 C 
ENDBRANCH  13  15
BRANCH  13  16
ATOM     16  C   LIG    1       30.055 -18.343   6.361  0.00  0.00    +0.081 C 
ATOM     17  C   LIG    1       28.908 -18.832   5.479  0.00  0.00    +0.020 C 
ENDBRANCH  13  16
ENDBRANCH  12  13
ENDBRANCH  11  12
ENDBRANCH   7  11
ENDBRANCH   1   9
BRANCH   5  18
ATOM     18  S   LIG    1       24.196 -19.669   3.802  0.00  0.00    -0.006 S 
ATOM     19  O   LIG    1       23.155 -18.970   4.531  0.00  0.00    -0.170 OA
ATOM     20  O   LIG    1       23.940 -20.257   2.500  0.00  0.00    -0.170 OA
ATOM     21  C   LIG    1       25.599 -18.590   3.650  0.00  0.00    +0.200 C 
ENDBRANCH   5  18
BRANCH   2  22
ATOM     22  O   LIG    1       25.942 -24.027   7.426  0.00  0.00    -0.494 OA
ATOM     23  C   LIG    1       25.837 -25.332   6.884  0.00  0.00    +0.277 C 
ENDBRANCH   2  22
TORSDOF 8
ENDMDL
MODEL 9
REMARK VINA RESULT:      -6.6      4.634      6.932
REMARK  Name = *****
REMARK                            x       y       z     vdW  Elec       q    Type
REMARK                         _______ _______ _______ _____ _____    ______ ____
ROOT
ATOM      1  C   LIG    1       26.858 -20.374   5.758  0.00  0.00    +0.080 A 
ATOM      2  C   LIG    1       26.455 -21.485   6.521  0.00  0.00    +0.132 A 
ATOM      3  C   LIG    1       27.287 -21.907   7.576  0.00  0.00    +0.048 A 
ATOM      4  C   LIG    1       28.507 -21.284   7.855  0.00  0.00    +0.030 A 
ATOM      5  C   LIG    1       28.907 -20.216   7.062  0.00  0.00    +0.089 A 
ATOM      6  C   LIG    1       28.080 -19.737   6.048  0.00  0.00    +0.043 A 
ENDROOT
BRANCH   1   9
ATOM      7  N   LIG    1       26.560 -18.516   4.239  0.00  0.00    -0.310 N 
ATOM      8  H   LIG    1       27.351 -18.090   4.702  0.00  0.00    +0.149 HD
ATOM      9  C   LIG    1       26.102 -19.758   4.640  0.00  0.00    +0.248 C 
ATOM     10  O   LIG    1       25.121 -20.302   4.154  0.00  0.00    -0.270 OA
BRANCH   7  11
ATOM     11  C   LIG    1       25.962 -17.812   3.115  0.00  0.00    +0.120 C 
BRANCH  11  12
ATOM     12  C   LIG    1       25.512 -16.374   3.465  0.00  0.00    +0.103 C 
BRANCH  12  13
ATOM     13  N   LIG    1       26.385 -15.291   2.939  0.00  0.00    -0.301 NA
BRANCH  13  15
ATOM     14  C   LIG    1       24.395 -13.891   3.667  0.00  0.00    +0.020 C 
ATOM     15  C   LIG    1       25.588 -14.057   2.725  0.00  0.00    +0.081 C 
ENDBRANCH  13  15
BRANCH  13  16
ATOM     16  C   LIG    1       27.498 -15.010   3.876  0.00  0.00    +0.081 C 
ATOM     17  C   LIG    1       28.158 -13.641   3.726  0.00  0.00    +0.020 C 
ENDBRANCH  13  16
ENDBRANCH  12  13
ENDBRANCH  11  12
ENDBRANCH   7  11
ENDBRANCH   1   9
BRANCH   5  18
ATOM     18  S   LIG    1       30.487 -19.452   7.311  0.00  0.00    -0.006 S 
ATOM     19  O   LIG    1       30.765 -18.625   6.153  0.00  0.00    -0.170 OA
ATOM     20  O   LIG    1       31.409 -20.491   7.733  0.00  0.00    -0.170 OA
ATOM     21  C   LIG    1       30.186 -18.389   8.703  0.00  0.00    +0.200 C 
ENDBRANCH   5  18
BRANCH   2  22
ATOM     22  O   LIG    1       25.366 -22.302   6.408  0.00  0.00    -0.494 OA
ATOM     23  C   LIG    1       25.513 -23.709   6.474  0.00  0.00    +0.277 C 
ENDBRANCH   2  22
TORSDOF 8
ENDMDL
