MODEL 1
REMARK VINA RESULT:      -9.8      0.000      0.000
REMARK  Name = *****
REMARK                            x       y       z     vdW  Elec       q    Type
REMARK                         _______ _______ _______ _____ _____    ______ ____
ROOT
ATOM      1  C   LIG    1       25.504 -21.848   6.908  0.00  0.00    +0.117 C 
ATOM      2  C   LIG    1       25.280 -21.369   8.367  0.00  0.00    +0.052 C 
ENDROOT
BRANCH   1   3
ATOM      3  C   LIG    1       24.546 -20.982   6.036  0.00  0.00    -0.012 A 
ATOM      4  C   LIG    1       24.881 -20.590   4.727  0.00  0.00    +0.008 A 
ATOM      5  C   LIG    1       24.045 -19.747   3.985  0.00  0.00    +0.020 A 
ATOM      6  C   LIG    1       22.858 -19.278   4.541  0.00  0.00    +0.041 A 
ATOM      7 CL   LIG    1       21.849 -18.214   3.638  0.00  0.00    -0.084 Cl
ATOM      8  C   LIG    1       22.490 -19.663   5.824  0.00  0.00    +0.020 A 
ATOM      9  C   LIG    1       23.319 -20.516   6.561  0.00  0.00    +0.008 A 
ENDBRANCH   1   3
BRANCH   1  10
ATOM     10  C   LIG    1       25.235 -23.353   6.701  0.00  0.00    -0.012 A 
ATOM     11  C   LIG    1       26.264 -24.309   6.646  0.00  0.00    +0.007 A 
ATOM     12  C   LIG    1       26.002 -25.665   6.442  0.00  0.00    +0.000 A 
ATOM     13  C   LIG    1       24.692 -26.107   6.293  0.00  0.00    +0.000 A 
ATOM     14  C   LIG    1       23.649 -25.187   6.345  0.00  0.00    +0.000 A 
ATOM     15  C   LIG    1       23.909 -23.829   6.542  0.00  0.00    +0.007 A 
ENDBRANCH   1  10
BRANCH   1  16
ATOM     16  O   LIG    1       26.870 -21.514   6.524  0.00  0.00    -0.364 OA
BRANCH  16  17
ATOM     17  C   LIG    1       27.477 -20.401   7.191  0.00  0.00    +0.163 C 
BRANCH  17  18
ATOM     18  C   LIG    1       28.702 -20.873   7.995  0.00  0.00    +0.047 C 
BRANCH  18  21
ATOM     19  C   LIG    1       31.511 -21.620   8.990  0.00  0.00    +0.105 C 
ATOM     20  N   LIG    1       31.217 -20.402   8.265  0.00  0.00    -0.302 NA
ATOM     21  C   LIG    1       30.043 -20.400   7.380  0.00  0.00    +0.059 C 
ATOM     22  C   LIG    1       30.057 -18.923   6.983  0.00  0.00    +0.020 C 
ATOM     23  C   LIG    1       30.408 -18.188   8.270  0.00  0.00    +0.017 C 
ATOM     24  C   LIG    1       31.132 -19.221   9.124  0.00  0.00    +0.084 C 
ENDBRANCH  18  21
ENDBRANCH  17  18
ENDBRANCH  16  17
ENDBRANCH   1  16
TORSDOF 6
ENDMDL
MODEL 2
REMARK VINA RESULT:      -9.6      0.321      1.423
REMARK  Name = *****
REMARK                            x       y       z     vdW  Elec       q    Type
REMARK                         _______ _______ _______ _____ _____    ______ ____
ROOT
ATOM      1  C   LIG    1       25.631 -22.183   7.052  0.00  0.00    +0.117 C 
ATOM      2  C   LIG    1       25.455 -21.821   8.550  0.00  0.00    +0.052 C 
ENDROOT
BRANCH   1   3
ATOM      3  C   LIG    1       24.700 -21.204   6.277  0.00  0.00    -0.012 A 
ATOM      4  C   LIG    1       23.571 -20.618   6.879  0.00  0.00    +0.008 A 
ATOM      5  C   LIG    1       22.700 -19.802   6.148  0.00  0.00    +0.020 A 
ATOM      6  C   LIG    1       22.939 -19.560   4.799  0.00  0.00    +0.041 A 
ATOM      7 CL   LIG    1       21.847 -18.583   3.894  0.00  0.00    -0.084 Cl
ATOM      8  C   LIG    1       24.056 -20.108   4.180  0.00  0.00    +0.020 A 
ATOM      9  C   LIG    1       24.935 -20.913   4.914  0.00  0.00    +0.008 A 
ENDBRANCH   1   3
BRANCH   1  10
ATOM     10  C   LIG    1       25.289 -23.651   6.724  0.00  0.00    -0.012 A 
ATOM     11  C   LIG    1       23.970 -24.104   6.550  0.00  0.00    +0.007 A 
ATOM     12  C   LIG    1       23.679 -25.441   6.269  0.00  0.00    +0.000 A 
ATOM     13  C   LIG    1       24.708 -26.368   6.149  0.00  0.00    +0.000 A 
ATOM     14  C   LIG    1       26.027 -25.953   6.314  0.00  0.00    +0.000 A 
ATOM     15  C   LIG    1       26.320 -24.617   6.600  0.00  0.00    +0.007 A 
ENDBRANCH   1  10
BRANCH   1  16
ATOM     16  O   LIG    1       27.005 -21.879   6.669  0.00  0.00    -0.364 OA
BRANCH  16  17
ATOM     17  C   LIG    1       27.489 -20.567   6.979  0.00  0.00    +0.163 C 
BRANCH  17  18
ATOM     18  C   LIG    1       28.644 -20.657   7.992  0.00  0.00    +0.047 C 
BRANCH  18  21
ATOM     19  C   LIG    1       31.380 -21.652   8.972  0.00  0.00    +0.105 C 
ATOM     20  N   LIG    1       31.192 -20.412   8.249  0.00  0.00    -0.302 NA
ATOM     21  C   LIG    1       30.018 -20.305   7.370  0.00  0.00    +0.059 C 
ATOM     22  C   LIG    1       30.162 -18.835   6.973  0.00  0.00    +0.020 C 
ATOM     23  C   LIG    1       30.583 -18.135   8.258  0.00  0.00    +0.017 C 
ATOM     24  C   LIG    1       31.218 -19.228   9.107  0.00  0.00    +0.084 C 
ENDBRANCH  18  21
ENDBRANCH  17  18
ENDBRANCH  16  17
ENDBRANCH   1  16
TORSDOF 6
ENDMDL
MODEL 3
REMARK VINA RESULT:      -9.1      3.054      6.727
REMARK  Name = *****
REMARK                            x       y       z     vdW  Elec       q    Type
REMARK                         _______ _______ _______ _____ _____    ______ ____
ROOT
ATOM      1  C   LIG    1       25.588 -21.588   6.686  0.00  0.00    +0.117 C 
ATOM      2  C   LIG    1       25.068 -21.676   8.146  0.00  0.00    +0.052 C 
ENDROOT
BRANCH   1   3
ATOM      3  C   LIG    1       27.009 -20.959   6.789  0.00  0.00    -0.012 A 
ATOM      4  C   LIG    1       27.467 -20.003   5.865  0.00  0.00    +0.008 A 
ATOM      5  C   LIG    1       28.775 -19.505   5.924  0.00  0.00    +0.020 A 
ATOM      6  C   LIG    1       29.648 -19.957   6.909  0.00  0.00    +0.041 A 
ATOM      7 CL   LIG    1       31.266 -19.367   6.959  0.00  0.00    -0.084 Cl
ATOM      8  C   LIG    1       29.219 -20.886   7.848  0.00  0.00    +0.020 A 
ATOM      9  C   LIG    1       27.909 -21.375   7.797  0.00  0.00    +0.008 A 
ENDBRANCH   1   3
BRANCH   1  10
ATOM     10  C   LIG    1       24.680 -20.760   5.754  0.00  0.00    -0.012 A 
ATOM     11  C   LIG    1       25.064 -20.383   4.456  0.00  0.00    +0.007 A 
ATOM     12  C   LIG    1       24.235 -19.619   3.632  0.00  0.00    +0.000 A 
ATOM     13  C   LIG    1       22.985 -19.211   4.087  0.00  0.00    +0.000 A 
ATOM     14  C   LIG    1       22.572 -19.569   5.367  0.00  0.00    +0.000 A 
ATOM     15  C   LIG    1       23.403 -20.328   6.194  0.00  0.00    +0.007 A 
ENDBRANCH   1  10
BRANCH   1  16
ATOM     16  O   LIG    1       25.743 -22.946   6.176  0.00  0.00    -0.364 OA
BRANCH  16  17
ATOM     17  C   LIG    1       25.745 -24.004   7.141  0.00  0.00    +0.163 C 
BRANCH  17  18
ATOM     18  C   LIG    1       25.092 -25.264   6.544  0.00  0.00    +0.047 C 
BRANCH  18  21
ATOM     19  C   LIG    1       25.773 -26.739   3.937  0.00  0.00    +0.105 C 
ATOM     20  N   LIG    1       25.885 -27.341   5.249  0.00  0.00    -0.302 NA
ATOM     21  C   LIG    1       26.085 -26.443   6.397  0.00  0.00    +0.059 C 
ATOM     22  C   LIG    1       25.988 -27.480   7.518  0.00  0.00    +0.020 C 
ATOM     23  C   LIG    1       24.855 -28.401   7.085  0.00  0.00    +0.017 C 
ATOM     24  C   LIG    1       24.779 -28.241   5.572  0.00  0.00    +0.084 C 
ENDBRANCH  18  21
ENDBRANCH  17  18
ENDBRANCH  16  17
ENDBRANCH   1  16
TORSDOF 6
ENDMDL
MODEL 4
REMARK VINA RESULT:      -8.0      2.218      4.459
REMARK  Name = *****
REMARK                            x       y       z     vdW  Elec       q    Type
REMARK                         _______ _______ _______ _____ _____    ______ ____
ROOT
ATOM      1  C   LIG    1       25.805 -21.130   6.130  0.00  0.00    +0.117 C 
ATOM      2  C   LIG    1       27.138 -20.951   5.355  0.00  0.00    +0.052 C 
ENDROOT
BRANCH   1   3
ATOM      3  C   LIG    1       25.534 -22.664   6.137  0.00  0.00    -0.012 A 
ATOM      4  C   LIG    1       25.932 -23.484   7.209  0.00  0.00    +0.008 A 
ATOM      5  C   LIG    1       25.751 -24.872   7.166  0.00  0.00    +0.020 A 
ATOM      6  C   LIG    1       25.172 -25.466   6.049  0.00  0.00    +0.041 A 
ATOM      7 CL   LIG    1       24.982 -27.176   5.986  0.00  0.00    -0.084 Cl
ATOM      8  C   LIG    1       24.751 -24.680   4.983  0.00  0.00    +0.020 A 
ATOM      9  C   LIG    1       24.919 -23.292   5.030  0.00  0.00    +0.008 A 
ENDBRANCH   1   3
BRANCH   1  10
ATOM     10  C   LIG    1       24.621 -20.360   5.511  0.00  0.00    -0.012 A 
ATOM     11  C   LIG    1       23.349 -20.313   6.108  0.00  0.00    +0.007 A 
ATOM     12  C   LIG    1       22.284 -19.623   5.526  0.00  0.00    +0.000 A 
ATOM     13  C   LIG    1       22.464 -18.951   4.322  0.00  0.00    +0.000 A 
ATOM     14  C   LIG    1       23.712 -18.975   3.704  0.00  0.00    +0.000 A 
ATOM     15  C   LIG    1       24.777 -19.669   4.283  0.00  0.00    +0.007 A 
ENDBRANCH   1  10
BRANCH   1  16
ATOM     16  O   LIG    1       26.022 -20.715   7.510  0.00  0.00    -0.364 OA
BRANCH  16  17
ATOM     17  C   LIG    1       27.208 -19.959   7.781  0.00  0.00    +0.163 C 
BRANCH  17  18
ATOM     18  C   LIG    1       28.346 -20.901   8.217  0.00  0.00    +0.047 C 
BRANCH  18  21
ATOM     19  C   LIG    1       31.121 -21.854   9.125  0.00  0.00    +0.105 C 
ATOM     20  N   LIG    1       30.902 -20.646   8.357  0.00  0.00    -0.302 NA
ATOM     21  C   LIG    1       29.692 -20.577   7.524  0.00  0.00    +0.059 C 
ATOM     22  C   LIG    1       29.818 -19.125   7.058  0.00  0.00    +0.020 C 
ATOM     23  C   LIG    1       30.291 -18.370   8.293  0.00  0.00    +0.017 C 
ATOM     24  C   LIG    1       30.961 -19.427   9.162  0.00  0.00    +0.084 C 
ENDBRANCH  18  21
ENDBRANCH  17  18
ENDBRANCH  16  17
ENDBRANCH   1  16
TORSDOF 6
ENDMDL
MODEL 5
REMARK VINA RESULT:      -7.4      3.335      6.582
REMARK  Name = *****
REMARK                            x       y       z     vdW  Elec       q    Type
REMARK                         _______ _______ _______ _____ _____    ______ ____
ROOT
ATOM      1  C   LIG    1       25.113 -22.369   6.555  0.00  0.00    +0.117 C 
ATOM      2  C   LIG    1       24.304 -22.365   7.879  0.00  0.00    +0.052 C 
ENDROOT
BRANCH   1   3
ATOM      3  C   LIG    1       25.327 -23.872   6.205  0.00  0.00    -0.012 A 
ATOM      4  C   LIG    1       25.019 -24.390   4.934  0.00  0.00    +0.008 A 
ATOM      5  C   LIG    1       25.142 -25.758   4.659  0.00  0.00    +0.020 A 
ATOM      6  C   LIG    1       25.574 -26.632   5.652  0.00  0.00    +0.041 A 
ATOM      7 CL   LIG    1       25.693 -28.318   5.320  0.00  0.00    -0.084 Cl
ATOM      8  C   LIG    1       25.905 -26.147   6.912  0.00  0.00    +0.020 A 
ATOM      9  C   LIG    1       25.794 -24.779   7.183  0.00  0.00    +0.008 A 
ENDBRANCH   1   3
BRANCH   1  10
ATOM     10  C   LIG    1       26.460 -21.624   6.650  0.00  0.00    -0.012 A 
ATOM     11  C   LIG    1       26.815 -20.579   5.778  0.00  0.00    +0.007 A 
ATOM     12  C   LIG    1       28.045 -19.926   5.869  0.00  0.00    +0.000 A 
ATOM     13  C   LIG    1       28.962 -20.300   6.846  0.00  0.00    +0.000 A 
ATOM     14  C   LIG    1       28.642 -21.329   7.728  0.00  0.00    +0.000 A 
ATOM     15  C   LIG    1       27.414 -21.987   7.634  0.00  0.00    +0.007 A 
ENDBRANCH   1  10
BRANCH   1  16
ATOM     16  O   LIG    1       24.278 -21.788   5.510  0.00  0.00    -0.364 OA
BRANCH  16  17
ATOM     17  C   LIG    1       22.956 -21.384   5.886  0.00  0.00    +0.163 C 
BRANCH  17  18
ATOM     18  C   LIG    1       22.818 -19.856   5.765  0.00  0.00    +0.047 C 
BRANCH  18  21
ATOM     19  C   LIG    1       24.883 -19.463   3.525  0.00  0.00    +0.105 C 
ATOM     20  N   LIG    1       23.618 -18.759   3.580  0.00  0.00    -0.302 NA
ATOM     21  C   LIG    1       22.516 -19.393   4.318  0.00  0.00    +0.059 C 
ATOM     22  C   LIG    1       21.498 -18.255   4.230  0.00  0.00    +0.020 C 
ATOM     23  C   LIG    1       22.320 -16.992   4.444  0.00  0.00    +0.017 C 
ATOM     24  C   LIG    1       23.740 -17.381   4.053  0.00  0.00    +0.084 C 
ENDBRANCH  18  21
ENDBRANCH  17  18
ENDBRANCH  16  17
ENDBRANCH   1  16
TORSDOF 6
ENDMDL
MODEL 6
REMARK VINA RESULT:      -7.3      3.355      6.590
REMARK  Name = *****
REMARK                            x       y       z     vdW  Elec       q    Type
REMARK                         _______ _______ _______ _____ _____    ______ ____
ROOT
ATOM      1  C   LIG    1       25.041 -22.388   6.542  0.00  0.00    +0.117 C 
ATOM      2  C   LIG    1       24.210 -22.344   7.851  0.00  0.00    +0.052 C 
ENDROOT
BRANCH   1   3
ATOM      3  C   LIG    1       25.225 -23.900   6.218  0.00  0.00    -0.012 A 
ATOM      4  C   LIG    1       25.695 -24.814   7.178  0.00  0.00    +0.008 A 
ATOM      5  C   LIG    1       25.929 -26.155   6.850  0.00  0.00    +0.020 A 
ATOM      6  C   LIG    1       25.701 -26.605   5.553  0.00  0.00    +0.041 A 
ATOM      7 CL   LIG    1       26.022 -28.247   5.144  0.00  0.00    -0.084 Cl
ATOM      8  C   LIG    1       25.218 -25.731   4.587  0.00  0.00    +0.020 A 
ATOM      9  C   LIG    1       24.971 -24.394   4.918  0.00  0.00    +0.008 A 
ENDBRANCH   1   3
BRANCH   1  10
ATOM     10  C   LIG    1       26.404 -21.673   6.649  0.00  0.00    -0.012 A 
ATOM     11  C   LIG    1       27.377 -22.031   7.598  0.00  0.00    +0.007 A 
ATOM     12  C   LIG    1       28.599 -21.362   7.692  0.00  0.00    +0.000 A 
ATOM     13  C   LIG    1       28.887 -20.311   6.827  0.00  0.00    +0.000 A 
ATOM     14  C   LIG    1       27.946 -19.932   5.874  0.00  0.00    +0.000 A 
ATOM     15  C   LIG    1       26.720 -20.596   5.783  0.00  0.00    +0.007 A 
ENDBRANCH   1  10
BRANCH   1  16
ATOM     16  O   LIG    1       24.239 -21.803   5.474  0.00  0.00    -0.364 OA
BRANCH  16  17
ATOM     17  C   LIG    1       22.915 -21.376   5.817  0.00  0.00    +0.163 C 
BRANCH  17  18
ATOM     18  C   LIG    1       22.813 -19.843   5.719  0.00  0.00    +0.047 C 
BRANCH  18  21
ATOM     19  C   LIG    1       24.883 -19.410   3.491  0.00  0.00    +0.105 C 
ATOM     20  N   LIG    1       23.620 -18.706   3.557  0.00  0.00    -0.302 NA
ATOM     21  C   LIG    1       22.515 -19.352   4.281  0.00  0.00    +0.059 C 
ATOM     22  C   LIG    1       21.498 -18.211   4.213  0.00  0.00    +0.020 C 
ATOM     23  C   LIG    1       22.323 -16.954   4.453  0.00  0.00    +0.017 C 
ATOM     24  C   LIG    1       23.742 -17.337   4.057  0.00  0.00    +0.084 C 
ENDBRANCH  18  21
ENDBRANCH  17  18
ENDBRANCH  16  17
ENDBRANCH   1  16
TORSDOF 6
ENDMDL
MODEL 7
REMARK VINA RESULT:      -7.2      2.255      4.473
REMARK  Name = *****
REMARK                            x       y       z     vdW  Elec       q    Type
REMARK                         _______ _______ _______ _____ _____    ______ ____
ROOT
ATOM      1  C   LIG    1       25.603 -21.175   6.425  0.00  0.00    +0.117 C 
ATOM      2  C   LIG    1       27.034 -21.110   5.829  0.00  0.00    +0.052 C 
ENDROOT
BRANCH   1   3
ATOM      3  C   LIG    1       25.252 -22.691   6.492  0.00  0.00    -0.012 A 
ATOM      4  C   LIG    1       26.248 -23.684   6.537  0.00  0.00    +0.008 A 
ATOM      5  C   LIG    1       25.917 -25.045   6.518  0.00  0.00    +0.020 A 
ATOM      6  C   LIG    1       24.584 -25.437   6.450  0.00  0.00    +0.041 A 
ATOM      7 CL   LIG    1       24.182 -27.111   6.392  0.00  0.00    -0.084 Cl
ATOM      8  C   LIG    1       23.577 -24.480   6.423  0.00  0.00    +0.020 A 
ATOM      9  C   LIG    1       23.906 -23.121   6.456  0.00  0.00    +0.008 A 
ENDBRANCH   1   3
BRANCH   1  10
ATOM     10  C   LIG    1       24.554 -20.397   5.605  0.00  0.00    -0.012 A 
ATOM     11  C   LIG    1       24.819 -19.884   4.323  0.00  0.00    +0.007 A 
ATOM     12  C   LIG    1       23.861 -19.168   3.602  0.00  0.00    +0.000 A 
ATOM     13  C   LIG    1       22.600 -18.949   4.145  0.00  0.00    +0.000 A 
ATOM     14  C   LIG    1       22.303 -19.446   5.411  0.00  0.00    +0.000 A 
ATOM     15  C   LIG    1       23.262 -20.157   6.137  0.00  0.00    +0.007 A 
ENDBRANCH   1  10
BRANCH   1  16
ATOM     16  O   LIG    1       25.658 -20.675   7.794  0.00  0.00    -0.364 OA
BRANCH  16  17
ATOM     17  C   LIG    1       26.866 -20.916   8.524  0.00  0.00    +0.163 C 
BRANCH  17  18
ATOM     18  C   LIG    1       27.805 -19.702   8.404  0.00  0.00    +0.047 C 
BRANCH  18  21
ATOM     19  C   LIG    1       29.857 -17.973   9.899  0.00  0.00    +0.105 C 
ATOM     20  N   LIG    1       30.215 -18.944   8.888  0.00  0.00    -0.302 NA
ATOM     21  C   LIG    1       29.289 -20.063   8.657  0.00  0.00    +0.059 C 
ATOM     22  C   LIG    1       29.989 -20.694   7.451  0.00  0.00    +0.020 C 
ATOM     23  C   LIG    1       30.438 -19.507   6.610  0.00  0.00    +0.017 C 
ATOM     24  C   LIG    1       30.526 -18.345   7.590  0.00  0.00    +0.084 C 
ENDBRANCH  18  21
ENDBRANCH  17  18
ENDBRANCH  16  17
ENDBRANCH   1  16
TORSDOF 6
ENDMDL
