MODEL 1
REMARK VINA RESULT:      -7.9      0.000      0.000
REMARK  Name = *****
REMARK                            x       y       z     vdW  Elec       q    Type
REMARK                         _______ _______ _______ _____ _____    ______ ____
ROOT
ATOM      1  C   LIG    1       27.759 -20.135   7.178  0.00  0.00    +0.034 A 
ATOM      2  C   LIG    1       27.087 -20.092   5.957  0.00  0.00    +0.038 A 
ATOM      3  C   LIG    1       25.707 -20.392   5.880  0.00  0.00    +0.060 A 
ATOM      4  C   LIG    1       24.994 -20.663   7.063  0.00  0.00    +0.131 A 
ATOM      5  C   LIG    1       25.678 -20.668   8.283  0.00  0.00    +0.048 A 
ATOM      6  C   LIG    1       27.050 -20.436   8.339  0.00  0.00    +0.027 A 
ENDROOT
BRANCH   1   8
ATOM      7  C   LIG    1       30.030 -20.591   7.996  0.00  0.00    +0.217 C 
ATOM      8  N   LIG    1       29.140 -19.856   7.237  0.00  0.00    -0.285 N 
ATOM      9  H   LIG    1       29.523 -19.268   6.495  0.00  0.00    +0.155 HD
ATOM     10  O   LIG    1       29.725 -21.562   8.715  0.00  0.00    -0.276 OA
BRANCH   7  11
ATOM     11  C   LIG    1       31.457 -20.097   7.897  0.00  0.00    +0.096 C 
BRANCH  11  13
ATOM     12  C   LIG    1       31.770 -18.043   9.323  0.00  0.00    +0.004 C 
ATOM     13  C   LIG    1       31.533 -18.571   7.920  0.00  0.00    +0.006 C 
ENDBRANCH  11  13
ENDBRANCH   7  11
ENDBRANCH   1   8
BRANCH   3  14
ATOM     14  C   LIG    1       25.117 -20.475   4.503  0.00  0.00    +0.164 C 
ATOM     15  O   LIG    1       24.720 -21.575   4.104  0.00  0.00    -0.292 OA
ATOM     16  C   LIG    1       25.083 -19.293   3.564  0.00  0.00    +0.091 C 
ENDBRANCH   3  14
BRANCH   4  17
ATOM     17  O   LIG    1       23.666 -20.949   6.964  0.00  0.00    -0.489 OA
BRANCH  17  18
ATOM     18  C   LIG    1       23.167 -22.142   7.566  0.00  0.00    +0.261 C 
BRANCH  18  19
ATOM     19  C   LIG    1       23.116 -23.261   6.515  0.00  0.00    +0.166 C 
BRANCH  19  20
ATOM     20  O   LIG    1       21.939 -24.052   6.689  0.00  0.00    -0.387 OA
ATOM     21  H   LIG    1       21.960 -24.379   7.605  0.00  0.00    +0.210 HD
ENDBRANCH  19  20
BRANCH  19  22
ATOM     22  C   LIG    1       24.368 -24.161   6.528  0.00  0.00    +0.115 C 
BRANCH  22  23
ATOM     23  N   LIG    1       24.826 -24.553   5.179  0.00  0.00    -0.311 NA
ATOM     24  H   LIG    1       25.599 -23.947   4.904  0.00  0.00    +0.122 HD
BRANCH  23  25
ATOM     25  C   LIG    1       25.317 -25.946   5.147  0.00  0.00    +0.048 C 
ATOM     26  C   LIG    1       24.204 -26.906   5.585  0.00  0.00    +0.024 C 
ATOM     27  C   LIG    1       26.536 -26.156   6.047  0.00  0.00    +0.024 C 
ENDBRANCH  23  25
ENDBRANCH  22  23
ENDBRANCH  19  22
ENDBRANCH  18  19
ENDBRANCH  17  18
ENDBRANCH   4  17
TORSDOF 11
ENDMDL
MODEL 2
REMARK VINA RESULT:      -7.9      2.549      4.187
REMARK  Name = *****
REMARK                            x       y       z     vdW  Elec       q    Type
REMARK                         _______ _______ _______ _____ _____    ______ ____
ROOT
ATOM      1  C   LIG    1       29.868 -19.002   7.498  0.00  0.00    +0.034 A 
ATOM      2  C   LIG    1       28.954 -19.880   8.079  0.00  0.00    +0.038 A 
ATOM      3  C   LIG    1       27.809 -20.308   7.369  0.00  0.00    +0.060 A 
ATOM      4  C   LIG    1       27.633 -19.898   6.035  0.00  0.00    +0.131 A 
ATOM      5  C   LIG    1       28.577 -19.044   5.456  0.00  0.00    +0.048 A 
ATOM      6  C   LIG    1       29.667 -18.577   6.186  0.00  0.00    +0.027 A 
ENDROOT
BRANCH   1   8
ATOM      7  C   LIG    1       30.950 -17.534   9.143  0.00  0.00    +0.217 C 
ATOM      8  N   LIG    1       30.993 -18.565   8.225  0.00  0.00    -0.285 N 
ATOM      9  H   LIG    1       31.790 -19.202   8.267  0.00  0.00    +0.155 HD
ATOM     10  O   LIG    1       29.934 -16.870   9.425  0.00  0.00    -0.276 OA
BRANCH   7  11
ATOM     11  C   LIG    1       32.287 -17.249   9.792  0.00  0.00    +0.096 C 
BRANCH  11  13
ATOM     12  C   LIG    1       32.038 -16.477  12.178  0.00  0.00    +0.004 C 
ATOM     13  C   LIG    1       32.217 -16.048  10.734  0.00  0.00    +0.006 C 
ENDBRANCH  11  13
ENDBRANCH   7  11
ENDBRANCH   1   8
BRANCH   3  14
ATOM     14  C   LIG    1       26.810 -21.121   8.138  0.00  0.00    +0.164 C 
ATOM     15  O   LIG    1       26.293 -20.615   9.140  0.00  0.00    -0.292 OA
ATOM     16  C   LIG    1       26.494 -22.557   7.790  0.00  0.00    +0.091 C 
ENDBRANCH   3  14
BRANCH   4  17
ATOM     17  O   LIG    1       26.522 -20.323   5.370  0.00  0.00    -0.489 OA
BRANCH  17  18
ATOM     18  C   LIG    1       26.005 -19.527   4.305  0.00  0.00    +0.261 C 
BRANCH  18  19
ATOM     19  C   LIG    1       24.769 -20.215   3.707  0.00  0.00    +0.166 C 
BRANCH  19  20
ATOM     20  O   LIG    1       23.672 -19.302   3.647  0.00  0.00    -0.387 OA
ATOM     21  H   LIG    1       23.627 -18.869   4.516  0.00  0.00    +0.210 HD
ENDBRANCH  19  20
BRANCH  19  22
ATOM     22  C   LIG    1       24.357 -21.490   4.470  0.00  0.00    +0.115 C 
BRANCH  22  23
ATOM     23  N   LIG    1       22.911 -21.558   4.767  0.00  0.00    -0.311 NA
ATOM     24  H   LIG    1       22.508 -22.349   4.265  0.00  0.00    +0.122 HD
BRANCH  23  25
ATOM     25  C   LIG    1       22.653 -21.765   6.207  0.00  0.00    +0.048 C 
ATOM     26  C   LIG    1       23.382 -20.696   7.029  0.00  0.00    +0.024 C 
ATOM     27  C   LIG    1       23.097 -23.148   6.686  0.00  0.00    +0.024 C 
ENDBRANCH  23  25
ENDBRANCH  22  23
ENDBRANCH  19  22
ENDBRANCH  18  19
ENDBRANCH  17  18
ENDBRANCH   4  17
TORSDOF 11
ENDMDL
MODEL 3
REMARK VINA RESULT:      -7.8      1.986      7.469
REMARK  Name = *****
REMARK                            x       y       z     vdW  Elec       q    Type
REMARK                         _______ _______ _______ _____ _____    ______ ____
ROOT
ATOM      1  C   LIG    1       24.884 -24.303   6.231  0.00  0.00    +0.034 A 
ATOM      2  C   LIG    1       24.482 -23.225   5.443  0.00  0.00    +0.038 A 
ATOM      3  C   LIG    1       24.951 -21.918   5.709  0.00  0.00    +0.060 A 
ATOM      4  C   LIG    1       25.894 -21.721   6.735  0.00  0.00    +0.131 A 
ATOM      5  C   LIG    1       26.313 -22.819   7.494  0.00  0.00    +0.048 A 
ATOM      6  C   LIG    1       25.793 -24.091   7.265  0.00  0.00    +0.027 A 
ENDROOT
BRANCH   1   8
ATOM      7  C   LIG    1       25.138 -26.587   5.365  0.00  0.00    +0.217 C 
ATOM      8  N   LIG    1       24.390 -25.596   5.969  0.00  0.00    -0.285 N 
ATOM      9  H   LIG    1       23.553 -25.881   6.480  0.00  0.00    +0.155 HD
ATOM     10  O   LIG    1       26.315 -26.457   4.974  0.00  0.00    -0.276 OA
BRANCH   7  11
ATOM     11  C   LIG    1       24.386 -27.888   5.190  0.00  0.00    +0.096 C 
BRANCH  11  13
ATOM     12  C   LIG    1       24.886 -29.000   7.396  0.00  0.00    +0.004 C 
ATOM     13  C   LIG    1       25.088 -29.049   5.892  0.00  0.00    +0.006 C 
ENDBRANCH  11  13
ENDBRANCH   7  11
ENDBRANCH   1   8
BRANCH   3  14
ATOM     14  C   LIG    1       24.335 -20.810   4.908  0.00  0.00    +0.164 C 
ATOM     15  O   LIG    1       24.929 -20.422   3.895  0.00  0.00    -0.292 OA
ATOM     16  C   LIG    1       23.080 -20.094   5.346  0.00  0.00    +0.091 C 
ENDBRANCH   3  14
BRANCH   4  17
ATOM     17  O   LIG    1       26.333 -20.453   6.974  0.00  0.00    -0.489 OA
BRANCH  17  18
ATOM     18  C   LIG    1       27.489 -20.262   7.785  0.00  0.00    +0.261 C 
BRANCH  18  19
ATOM     19  C   LIG    1       28.714 -20.041   6.885  0.00  0.00    +0.166 C 
BRANCH  19  20
ATOM     20  O   LIG    1       29.416 -21.271   6.691  0.00  0.00    -0.387 OA
ATOM     21  H   LIG    1       28.740 -21.968   6.641  0.00  0.00    +0.210 HD
ENDBRANCH  19  20
BRANCH  19  22
ATOM     22  C   LIG    1       29.675 -18.962   7.423  0.00  0.00    +0.115 C 
BRANCH  22  23
ATOM     23  N   LIG    1       29.635 -18.816   8.893  0.00  0.00    -0.311 NA
ATOM     24  H   LIG    1       30.064 -19.637   9.318  0.00  0.00    +0.122 HD
BRANCH  23  25
ATOM     25  C   LIG    1       30.388 -17.630   9.350  0.00  0.00    +0.048 C 
ATOM     26  C   LIG    1       31.849 -17.729   8.898  0.00  0.00    +0.024 C 
ATOM     27  C   LIG    1       30.348 -17.463  10.870  0.00  0.00    +0.024 C 
ENDBRANCH  23  25
ENDBRANCH  22  23
ENDBRANCH  19  22
ENDBRANCH  18  19
ENDBRANCH  17  18
ENDBRANCH   4  17
TORSDOF 11
ENDMDL
MODEL 4
REMARK VINA RESULT:      -7.8      1.797      2.288
REMARK  Name = *****
REMARK                            x       y       z     vdW  Elec       q    Type
REMARK                         _______ _______ _______ _____ _____    ______ ____
ROOT
ATOM      1  C   LIG    1       26.930 -20.677   7.578  0.00  0.00    +0.034 A 
ATOM      2  C   LIG    1       25.980 -20.321   6.622  0.00  0.00    +0.038 A 
ATOM      3  C   LIG    1       24.928 -21.203   6.283  0.00  0.00    +0.060 A 
ATOM      4  C   LIG    1       24.801 -22.421   6.975  0.00  0.00    +0.131 A 
ATOM      5  C   LIG    1       25.743 -22.747   7.956  0.00  0.00    +0.048 A 
ATOM      6  C   LIG    1       26.813 -21.900   8.235  0.00  0.00    +0.027 A 
ENDROOT
BRANCH   1   8
ATOM      7  C   LIG    1       29.139 -19.699   7.133  0.00  0.00    +0.217 C 
ATOM      8  N   LIG    1       27.987 -19.799   7.889  0.00  0.00    -0.285 N 
ATOM      9  H   LIG    1       27.776 -19.034   8.532  0.00  0.00    +0.155 HD
ATOM     10  O   LIG    1       29.384 -20.370   6.112  0.00  0.00    -0.276 OA
BRANCH   7  11
ATOM     11  C   LIG    1       30.127 -18.688   7.671  0.00  0.00    +0.096 C 
BRANCH  11  13
ATOM     12  C   LIG    1       30.423 -17.058   9.571  0.00  0.00    +0.004 C 
ATOM     13  C   LIG    1       29.925 -18.433   9.164  0.00  0.00    +0.006 C 
ENDBRANCH  11  13
ENDBRANCH   7  11
ENDBRANCH   1   8
BRANCH   3  14
ATOM     14  C   LIG    1       24.056 -20.793   5.132  0.00  0.00    +0.164 C 
ATOM     15  O   LIG    1       24.385 -21.150   3.996  0.00  0.00    -0.292 OA
ATOM     16  C   LIG    1       22.860 -19.888   5.305  0.00  0.00    +0.091 C 
ENDBRANCH   3  14
BRANCH   4  17
ATOM     17  O   LIG    1       23.779 -23.255   6.632  0.00  0.00    -0.489 OA
BRANCH  17  18
ATOM     18  C   LIG    1       24.032 -24.654   6.528  0.00  0.00    +0.261 C 
BRANCH  18  19
ATOM     19  C   LIG    1       25.065 -24.905   5.419  0.00  0.00    +0.166 C 
BRANCH  19  20
ATOM     20  O   LIG    1       24.723 -24.166   4.245  0.00  0.00    -0.387 OA
ATOM     21  H   LIG    1       25.129 -23.289   4.344  0.00  0.00    +0.210 HD
ENDBRANCH  19  20
BRANCH  19  22
ATOM     22  C   LIG    1       25.234 -26.399   5.076  0.00  0.00    +0.115 C 
BRANCH  22  23
ATOM     23  N   LIG    1       24.110 -27.241   5.536  0.00  0.00    -0.311 NA
ATOM     24  H   LIG    1       23.603 -27.587   4.722  0.00  0.00    +0.122 HD
BRANCH  23  25
ATOM     25  C   LIG    1       24.578 -28.413   6.304  0.00  0.00    +0.048 C 
ATOM     26  C   LIG    1       25.593 -27.974   7.366  0.00  0.00    +0.024 C 
ATOM     27  C   LIG    1       25.222 -29.476   5.411  0.00  0.00    +0.024 C 
ENDBRANCH  23  25
ENDBRANCH  22  23
ENDBRANCH  19  22
ENDBRANCH  18  19
ENDBRANCH  17  18
ENDBRANCH   4  17
TORSDOF 11
ENDMDL
MODEL 5
REMARK VINA RESULT:      -7.2      2.821      8.903
REMARK  Name = *****
REMARK                            x       y       z     vdW  Elec       q    Type
REMARK                         _______ _______ _______ _____ _____    ______ ____
ROOT
ATOM      1  C   LIG    1       28.100 -20.746   6.786  0.00  0.00    +0.034 A 
ATOM      2  C   LIG    1       28.866 -21.413   7.742  0.00  0.00    +0.038 A 
ATOM      3  C   LIG    1       30.126 -20.911   8.139  0.00  0.00    +0.060 A 
ATOM      4  C   LIG    1       30.575 -19.685   7.614  0.00  0.00    +0.131 A 
ATOM      5  C   LIG    1       29.779 -19.012   6.681  0.00  0.00    +0.048 A 
ATOM      6  C   LIG    1       28.569 -19.549   6.249  0.00  0.00    +0.027 A 
ENDROOT
BRANCH   1   8
ATOM      7  C   LIG    1       25.723 -21.228   7.172  0.00  0.00    +0.217 C 
ATOM      8  N   LIG    1       26.855 -21.270   6.383  0.00  0.00    -0.285 N 
ATOM      9  H   LIG    1       26.730 -21.441   5.384  0.00  0.00    +0.155 HD
ATOM     10  O   LIG    1       25.667 -20.742   8.318  0.00  0.00    -0.276 OA
BRANCH   7  11
ATOM     11  C   LIG    1       24.511 -21.858   6.520  0.00  0.00    +0.096 C 
BRANCH  11  13
ATOM     12  C   LIG    1       23.001 -20.000   5.734  0.00  0.00    +0.004 C 
ATOM     13  C   LIG    1       23.238 -21.059   6.795  0.00  0.00    +0.006 C 
ENDBRANCH  11  13
ENDBRANCH   7  11
ENDBRANCH   1   8
BRANCH   3  14
ATOM     14  C   LIG    1       30.938 -21.784   9.050  0.00  0.00    +0.164 C 
ATOM     15  O   LIG    1       30.804 -21.637  10.270  0.00  0.00    -0.292 OA
ATOM     16  C   LIG    1       31.972 -22.755   8.532  0.00  0.00    +0.091 C 
ENDBRANCH   3  14
BRANCH   4  17
ATOM     17  O   LIG    1       31.793 -19.220   8.010  0.00  0.00    -0.489 OA
BRANCH  17  18
ATOM     18  C   LIG    1       31.928 -17.846   8.369  0.00  0.00    +0.261 C 
BRANCH  18  19
ATOM     19  C   LIG    1       31.184 -17.588   9.688  0.00  0.00    +0.166 C 
BRANCH  19  20
ATOM     20  O   LIG    1       30.015 -16.800   9.453  0.00  0.00    -0.387 OA
ATOM     21  H   LIG    1       30.325 -15.899   9.260  0.00  0.00    +0.210 HD
ENDBRANCH  19  20
BRANCH  19  22
ATOM     22  C   LIG    1       32.068 -16.919  10.760  0.00  0.00    +0.115 C 
BRANCH  22  23
ATOM     23  N   LIG    1       31.856 -17.459  12.120  0.00  0.00    -0.311 NA
ATOM     24  H   LIG    1       31.991 -18.470  12.098  0.00  0.00    +0.122 HD
BRANCH  23  25
ATOM     25  C   LIG    1       32.819 -16.900  13.091  0.00  0.00    +0.048 C 
ATOM     26  C   LIG    1       32.338 -17.168  14.521  0.00  0.00    +0.024 C 
ATOM     27  C   LIG    1       33.023 -15.395  12.909  0.00  0.00    +0.024 C 
ENDBRANCH  23  25
ENDBRANCH  22  23
ENDBRANCH  19  22
ENDBRANCH  18  19
ENDBRANCH  17  18
ENDBRANCH   4  17
TORSDOF 11
ENDMDL
MODEL 6
REMARK VINA RESULT:      -7.2      2.209      7.803
REMARK  Name = *****
REMARK                            x       y       z     vdW  Elec       q    Type
REMARK                         _______ _______ _______ _____ _____    ______ ____
ROOT
ATOM      1  C   LIG    1       24.639 -25.059   6.482  0.00  0.00    +0.034 A 
ATOM      2  C   LIG    1       23.799 -23.949   6.409  0.00  0.00    +0.038 A 
ATOM      3  C   LIG    1       24.300 -22.647   6.638  0.00  0.00    +0.060 A 
ATOM      4  C   LIG    1       25.676 -22.468   6.868  0.00  0.00    +0.131 A 
ATOM      5  C   LIG    1       26.510 -23.590   6.905  0.00  0.00    +0.048 A 
ATOM      6  C   LIG    1       25.995 -24.874   6.743  0.00  0.00    +0.027 A 
ENDROOT
BRANCH   1   8
ATOM      7  C   LIG    1       24.757 -27.310   5.506  0.00  0.00    +0.217 C 
ATOM      8  N   LIG    1       24.123 -26.354   6.275  0.00  0.00    -0.285 N 
ATOM      9  H   LIG    1       23.402 -26.672   6.925  0.00  0.00    +0.155 HD
ATOM     10  O   LIG    1       25.835 -27.143   4.904  0.00  0.00    -0.276 OA
BRANCH   7  11
ATOM     11  C   LIG    1       24.004 -28.621   5.432  0.00  0.00    +0.096 C 
BRANCH  11  13
ATOM     12  C   LIG    1       25.456 -30.679   5.350  0.00  0.00    +0.004 C 
ATOM     13  C   LIG    1       24.692 -29.718   6.242  0.00  0.00    +0.006 C 
ENDBRANCH  11  13
ENDBRANCH   7  11
ENDBRANCH   1   8
BRANCH   3  14
ATOM     14  C   LIG    1       23.287 -21.541   6.695  0.00  0.00    +0.164 C 
ATOM     15  O   LIG    1       22.989 -21.079   7.802  0.00  0.00    -0.292 OA
ATOM     16  C   LIG    1       22.555 -21.049   5.469  0.00  0.00    +0.091 C 
ENDBRANCH   3  14
BRANCH   4  17
ATOM     17  O   LIG    1       26.136 -21.204   7.086  0.00  0.00    -0.489 OA
BRANCH  17  18
ATOM     18  C   LIG    1       27.492 -21.020   7.488  0.00  0.00    +0.261 C 
BRANCH  18  19
ATOM     19  C   LIG    1       28.111 -19.868   6.682  0.00  0.00    +0.166 C 
BRANCH  19  20
ATOM     20  O   LIG    1       28.128 -20.188   5.289  0.00  0.00    -0.387 OA
ATOM     21  H   LIG    1       27.300 -19.840   4.916  0.00  0.00    +0.210 HD
ENDBRANCH  19  20
BRANCH  19  22
ATOM     22  C   LIG    1       29.528 -19.489   7.156  0.00  0.00    +0.115 C 
BRANCH  22  23
ATOM     23  N   LIG    1       29.607 -19.197   8.603  0.00  0.00    -0.311 NA
ATOM     24  H   LIG    1       30.106 -19.955   9.066  0.00  0.00    +0.122 HD
BRANCH  23  25
ATOM     25  C   LIG    1       30.346 -17.946   8.872  0.00  0.00    +0.048 C 
ATOM     26  C   LIG    1       31.828 -18.125   8.525  0.00  0.00    +0.024 C 
ATOM     27  C   LIG    1       30.228 -17.501  10.331  0.00  0.00    +0.024 C 
ENDBRANCH  23  25
ENDBRANCH  22  23
ENDBRANCH  19  22
ENDBRANCH  18  19
ENDBRANCH  17  18
ENDBRANCH   4  17
TORSDOF 11
ENDMDL
MODEL 7
REMARK VINA RESULT:      -6.5      2.380      7.757
REMARK  Name = *****
REMARK                            x       y       z     vdW  Elec       q    Type
REMARK                         _______ _______ _______ _____ _____    ______ ____
ROOT
ATOM      1  C   LIG    1       26.102 -20.000   5.108  0.00  0.00    +0.034 A 
ATOM      2  C   LIG    1       25.803 -20.922   6.111  0.00  0.00    +0.038 A 
ATOM      3  C   LIG    1       26.818 -21.430   6.954  0.00  0.00    +0.060 A 
ATOM      4  C   LIG    1       28.130 -20.939   6.824  0.00  0.00    +0.131 A 
ATOM      5  C   LIG    1       28.406 -19.989   5.835  0.00  0.00    +0.048 A 
ATOM      6  C   LIG    1       27.412 -19.545   4.967  0.00  0.00    +0.027 A 
ENDROOT
BRANCH   1   8
ATOM      7  C   LIG    1       23.740 -19.616   4.557  0.00  0.00    +0.217 C 
ATOM      8  N   LIG    1       25.085 -19.520   4.259  0.00  0.00    -0.285 N 
ATOM      9  H   LIG    1       25.363 -18.851   3.539  0.00  0.00    +0.155 HD
ATOM     10  O   LIG    1       23.271 -20.139   5.587  0.00  0.00    -0.276 OA
BRANCH   7  11
ATOM     11  C   LIG    1       22.842 -19.031   3.489  0.00  0.00    +0.096 C 
BRANCH  11  13
ATOM     12  C   LIG    1       22.225 -16.947   4.763  0.00  0.00    +0.004 C 
ATOM     13  C   LIG    1       21.708 -18.204   4.089  0.00  0.00    +0.006 C 
ENDBRANCH  11  13
ENDBRANCH   7  11
ENDBRANCH   1   8
BRANCH   3  14
ATOM     14  C   LIG    1       26.421 -22.533   7.890  0.00  0.00    +0.164 C 
ATOM     15  O   LIG    1       26.550 -22.343   9.104  0.00  0.00    -0.292 OA
ATOM     16  C   LIG    1       25.967 -23.887   7.399  0.00  0.00    +0.091 C 
ENDBRANCH   3  14
BRANCH   4  17
ATOM     17  O   LIG    1       29.092 -21.442   7.647  0.00  0.00    -0.489 OA
BRANCH  17  18
ATOM     18  C   LIG    1       29.675 -20.592   8.633  0.00  0.00    +0.261 C 
BRANCH  18  19
ATOM     19  C   LIG    1       31.147 -20.334   8.278  0.00  0.00    +0.166 C 
BRANCH  19  20
ATOM     20  O   LIG    1       32.004 -20.895   9.274  0.00  0.00    -0.387 OA
ATOM     21  H   LIG    1       31.528 -20.825  10.118  0.00  0.00    +0.210 HD
ENDBRANCH  19  20
BRANCH  19  22
ATOM     22  C   LIG    1       31.469 -18.838   8.082  0.00  0.00    +0.115 C 
BRANCH  22  23
ATOM     23  N   LIG    1       30.344 -17.943   8.424  0.00  0.00    -0.311 NA
ATOM     24  H   LIG    1       29.570 -18.505   8.777  0.00  0.00    +0.122 HD
BRANCH  23  25
ATOM     25  C   LIG    1       30.711 -16.975   9.478  0.00  0.00    +0.048 C 
ATOM     26  C   LIG    1       32.195 -16.608   9.361  0.00  0.00    +0.024 C 
ATOM     27  C   LIG    1       30.442 -17.514  10.884  0.00  0.00    +0.024 C 
ENDBRANCH  23  25
ENDBRANCH  22  23
ENDBRANCH  19  22
ENDBRANCH  18  19
ENDBRANCH  17  18
ENDBRANCH   4  17
TORSDOF 11
ENDMDL
MODEL 8
REMARK VINA RESULT:      -6.5      2.227      7.277
REMARK  Name = *****
REMARK                            x       y       z     vdW  Elec       q    Type
REMARK                         _______ _______ _______ _____ _____    ______ ____
ROOT
ATOM      1  C   LIG    1       24.833 -24.353   6.203  0.00  0.00    +0.034 A 
ATOM      2  C   LIG    1       25.337 -23.649   7.296  0.00  0.00    +0.038 A 
ATOM      3  C   LIG    1       25.700 -22.288   7.175  0.00  0.00    +0.060 A 
ATOM      4  C   LIG    1       25.478 -21.622   5.955  0.00  0.00    +0.131 A 
ATOM      5  C   LIG    1       24.939 -22.335   4.879  0.00  0.00    +0.048 A 
ATOM      6  C   LIG    1       24.647 -23.692   4.991  0.00  0.00    +0.027 A 
ENDROOT
BRANCH   1   8
ATOM      7  C   LIG    1       25.330 -26.743   5.935  0.00  0.00    +0.217 C 
ATOM      8  N   LIG    1       24.497 -25.716   6.332  0.00  0.00    -0.285 N 
ATOM      9  H   LIG    1       23.738 -25.945   6.976  0.00  0.00    +0.155 HD
ATOM     10  O   LIG    1       26.452 -26.593   5.414  0.00  0.00    -0.276 OA
BRANCH   7  11
ATOM     11  C   LIG    1       24.746 -28.119   6.173  0.00  0.00    +0.096 C 
BRANCH  11  13
ATOM     12  C   LIG    1       24.278 -29.786   8.004  0.00  0.00    +0.004 C 
ATOM     13  C   LIG    1       25.230 -28.722   7.490  0.00  0.00    +0.006 C 
ENDBRANCH  11  13
ENDBRANCH   7  11
ENDBRANCH   1   8
BRANCH   3  14
ATOM     14  C   LIG    1       26.380 -21.669   8.360  0.00  0.00    +0.164 C 
ATOM     15  O   LIG    1       27.431 -22.179   8.762  0.00  0.00    -0.292 OA
ATOM     16  C   LIG    1       25.778 -20.517   9.129  0.00  0.00    +0.091 C 
ENDBRANCH   3  14
BRANCH   4  17
ATOM     17  O   LIG    1       25.835 -20.310   5.861  0.00  0.00    -0.489 OA
BRANCH  17  18
ATOM     18  C   LIG    1       26.860 -19.935   4.943  0.00  0.00    +0.261 C 
BRANCH  18  19
ATOM     19  C   LIG    1       27.966 -19.178   5.694  0.00  0.00    +0.166 C 
BRANCH  19  20
ATOM     20  O   LIG    1       28.712 -18.362   4.789  0.00  0.00    -0.387 OA
ATOM     21  H   LIG    1       28.899 -17.532   5.257  0.00  0.00    +0.210 HD
ENDBRANCH  19  20
BRANCH  19  22
ATOM     22  C   LIG    1       28.915 -20.109   6.474  0.00  0.00    +0.115 C 
BRANCH  22  23
ATOM     23  N   LIG    1       29.067 -19.738   7.897  0.00  0.00    -0.311 NA
ATOM     24  H   LIG    1       28.520 -20.382   8.466  0.00  0.00    +0.122 HD
BRANCH  23  25
ATOM     25  C   LIG    1       30.473 -19.831   8.342  0.00  0.00    +0.048 C 
ATOM     26  C   LIG    1       31.406 -19.285   7.255  0.00  0.00    +0.024 C 
ATOM     27  C   LIG    1       30.886 -21.265   8.677  0.00  0.00    +0.024 C 
ENDBRANCH  23  25
ENDBRANCH  22  23
ENDBRANCH  19  22
ENDBRANCH  18  19
ENDBRANCH  17  18
ENDBRANCH   4  17
TORSDOF 11
ENDMDL
MODEL 9
REMARK VINA RESULT:      -6.4      3.047      7.856
REMARK  Name = *****
REMARK                            x       y       z     vdW  Elec       q    Type
REMARK                         _______ _______ _______ _____ _____    ______ ____
ROOT
ATOM      1  C   LIG    1       25.228 -23.997   6.480  0.00  0.00    +0.034 A 
ATOM      2  C   LIG    1       25.950 -23.105   7.272  0.00  0.00    +0.038 A 
ATOM      3  C   LIG    1       26.118 -21.758   6.878  0.00  0.00    +0.060 A 
ATOM      4  C   LIG    1       25.485 -21.299   5.708  0.00  0.00    +0.131 A 
ATOM      5  C   LIG    1       24.736 -22.199   4.942  0.00  0.00    +0.048 A 
ATOM      6  C   LIG    1       24.632 -23.539   5.306  0.00  0.00    +0.027 A 
ENDROOT
BRANCH   1   8
ATOM      7  C   LIG    1       25.821 -26.375   6.322  0.00  0.00    +0.217 C 
ATOM      8  N   LIG    1       25.088 -25.342   6.874  0.00  0.00    -0.285 N 
ATOM      9  H   LIG    1       24.628 -25.515   7.769  0.00  0.00    +0.155 HD
ATOM     10  O   LIG    1       26.670 -26.246   5.419  0.00  0.00    -0.276 OA
BRANCH   7  11
ATOM     11  C   LIG    1       25.489 -27.730   6.908  0.00  0.00    +0.096 C 
BRANCH  11  13
ATOM     12  C   LIG    1       24.373 -29.955   6.517  0.00  0.00    +0.004 C 
ATOM     13  C   LIG    1       24.754 -28.619   5.907  0.00  0.00    +0.006 C 
ENDBRANCH  11  13
ENDBRANCH   7  11
ENDBRANCH   1   8
BRANCH   3  14
ATOM     14  C   LIG    1       27.043 -20.926   7.716  0.00  0.00    +0.164 C 
ATOM     15  O   LIG    1       26.573 -20.341   8.698  0.00  0.00    -0.292 OA
ATOM     16  C   LIG    1       28.490 -20.702   7.347  0.00  0.00    +0.091 C 
ENDBRANCH   3  14
BRANCH   4  17
ATOM     17  O   LIG    1       25.661 -19.997   5.347  0.00  0.00    -0.489 OA
BRANCH  17  18
ATOM     18  C   LIG    1       25.205 -19.565   4.067  0.00  0.00    +0.261 C 
BRANCH  18  19
ATOM     19  C   LIG    1       26.172 -18.510   3.509  0.00  0.00    +0.166 C 
BRANCH  19  20
ATOM     20  O   LIG    1       27.339 -18.423   4.329  0.00  0.00    -0.387 OA
ATOM     21  H   LIG    1       28.092 -18.661   3.762  0.00  0.00    +0.210 HD
ENDBRANCH  19  20
BRANCH  19  22
ATOM     22  C   LIG    1       25.526 -17.118   3.355  0.00  0.00    +0.115 C 
BRANCH  22  23
ATOM     23  N   LIG    1       26.510 -16.020   3.255  0.00  0.00    -0.311 NA
ATOM     24  H   LIG    1       27.098 -16.177   2.437  0.00  0.00    +0.122 HD
BRANCH  23  25
ATOM     25  C   LIG    1       25.854 -14.706   3.089  0.00  0.00    +0.048 C 
ATOM     26  C   LIG    1       26.856 -13.580   3.365  0.00  0.00    +0.024 C 
ATOM     27  C   LIG    1       24.647 -14.536   4.014  0.00  0.00    +0.024 C 
ENDBRANCH  23  25
ENDBRANCH  22  23
ENDBRANCH  19  22
ENDBRANCH  18  19
ENDBRANCH  17  18
ENDBRANCH   4  17
TORSDOF 11
ENDMDL
