MODEL 1
REMARK VINA RESULT:      -6.6      0.000      0.000
REMARK  Name = *****
REMARK                            x       y       z     vdW  Elec       q    Type
REMARK                         _______ _______ _______ _____ _____    ______ ____
ROOT
ATOM      1  C   LIG    1       29.038 -19.996   6.685  0.00  0.00    -0.040 A 
ATOM      2  C   LIG    1       30.037 -19.032   6.886  0.00  0.00    +0.053 A 
ATOM      3  C   LIG    1       31.085 -19.241   7.795  0.00  0.00    +0.162 A 
ATOM      4  C   LIG    1       31.132 -20.445   8.505  0.00  0.00    +0.159 A 
ATOM      5  C   LIG    1       30.137 -21.409   8.323  0.00  0.00    +0.049 A 
ATOM      6  C   LIG    1       29.094 -21.185   7.421  0.00  0.00    +0.008 A 
ENDROOT
BRANCH   3   7
ATOM      7  O   LIG    1       31.997 -18.218   7.827  0.00  0.00    -0.491 OA
ATOM      8  C   LIG    1       31.934 -17.339   8.941  0.00  0.00    +0.277 C 
ENDBRANCH   3   7
BRANCH   4   9
ATOM      9  O   LIG    1       32.157 -20.723   9.366  0.00  0.00    -0.503 OA
ATOM     10  H   LIG    1       32.501 -21.609   9.172  0.00  0.00    +0.292 HD
ENDBRANCH   4   9
BRANCH   1  11
ATOM     11  C   LIG    1       27.917 -19.753   5.701  0.00  0.00    +0.061 C 
BRANCH  11  13
ATOM     12  C   LIG    1       25.530 -20.464   5.345  0.00  0.00    +0.004 C 
ATOM     13  C   LIG    1       26.632 -20.427   6.100  0.00  0.00    -0.030 C 
ENDBRANCH  11  13
ENDBRANCH   1  11
TORSDOF 4
ENDMDL
MODEL 2
REMARK VINA RESULT:      -6.4      4.845      7.141
REMARK  Name = *****
REMARK                            x       y       z     vdW  Elec       q    Type
REMARK                         _______ _______ _______ _____ _____    ______ ____
ROOT
ATOM      1  C   LIG    1       25.590 -21.574   7.588  0.00  0.00    -0.040 A 
ATOM      2  C   LIG    1       25.710 -22.920   7.209  0.00  0.00    +0.053 A 
ATOM      3  C   LIG    1       24.587 -23.687   6.864  0.00  0.00    +0.162 A 
ATOM      4  C   LIG    1       23.325 -23.086   6.892  0.00  0.00    +0.159 A 
ATOM      5  C   LIG    1       23.190 -21.749   7.279  0.00  0.00    +0.049 A 
ATOM      6  C   LIG    1       24.315 -20.999   7.628  0.00  0.00    +0.008 A 
ENDROOT
BRANCH   3   7
ATOM      7  O   LIG    1       24.893 -24.964   6.473  0.00  0.00    -0.491 OA
ATOM      8  C   LIG    1       25.149 -25.167   5.090  0.00  0.00    +0.277 C 
ENDBRANCH   3   7
BRANCH   4   9
ATOM      9  O   LIG    1       22.202 -23.770   6.518  0.00  0.00    -0.503 OA
ATOM     10  H   LIG    1       21.501 -23.607   7.168  0.00  0.00    +0.292 HD
ENDBRANCH   4   9
BRANCH   1  11
ATOM     11  C   LIG    1       26.811 -20.764   7.955  0.00  0.00    +0.061 C 
BRANCH  11  13
ATOM     12  C   LIG    1       28.810 -20.532   6.445  0.00  0.00    +0.004 C 
ATOM     13  C   LIG    1       27.545 -20.233   6.753  0.00  0.00    -0.030 C 
ENDBRANCH  11  13
ENDBRANCH   1  11
TORSDOF 4
ENDMDL
MODEL 3
REMARK VINA RESULT:      -6.3      3.258      5.115
REMARK  Name = *****
REMARK                            x       y       z     vdW  Elec       q    Type
REMARK                         _______ _______ _______ _____ _____    ______ ____
ROOT
ATOM      1  C   LIG    1       24.429 -20.556   5.478  0.00  0.00    -0.040 A 
ATOM      2  C   LIG    1       25.799 -20.391   5.730  0.00  0.00    +0.053 A 
ATOM      3  C   LIG    1       26.328 -20.532   7.022  0.00  0.00    +0.162 A 
ATOM      4  C   LIG    1       25.464 -20.854   8.074  0.00  0.00    +0.159 A 
ATOM      5  C   LIG    1       24.095 -21.009   7.838  0.00  0.00    +0.049 A 
ATOM      6  C   LIG    1       23.580 -20.857   6.548  0.00  0.00    +0.008 A 
ENDROOT
BRANCH   3   7
ATOM      7  O   LIG    1       27.689 -20.386   7.077  0.00  0.00    -0.491 OA
ATOM      8  C   LIG    1       28.331 -19.908   5.903  0.00  0.00    +0.277 C 
ENDBRANCH   3   7
BRANCH   4   9
ATOM      9  O   LIG    1       25.931 -21.052   9.343  0.00  0.00    -0.503 OA
ATOM     10  H   LIG    1       26.194 -21.981   9.441  0.00  0.00    +0.292 HD
ENDBRANCH   4   9
BRANCH   1  11
ATOM     11  C   LIG    1       23.878 -20.400   4.079  0.00  0.00    +0.061 C 
BRANCH  11  13
ATOM     12  C   LIG    1       22.289 -18.467   4.342  0.00  0.00    +0.004 C 
ATOM     13  C   LIG    1       23.383 -19.007   3.797  0.00  0.00    -0.030 C 
ENDBRANCH  11  13
ENDBRANCH   1  11
TORSDOF 4
ENDMDL
MODEL 4
REMARK VINA RESULT:      -6.3      2.897      4.147
REMARK  Name = *****
REMARK                            x       y       z     vdW  Elec       q    Type
REMARK                         _______ _______ _______ _____ _____    ______ ____
ROOT
ATOM      1  C   LIG    1       25.015 -20.680   6.105  0.00  0.00    -0.040 A 
ATOM      2  C   LIG    1       26.255 -20.390   5.515  0.00  0.00    +0.053 A 
ATOM      3  C   LIG    1       27.412 -20.216   6.289  0.00  0.00    +0.162 A 
ATOM      4  C   LIG    1       27.319 -20.344   7.679  0.00  0.00    +0.159 A 
ATOM      5  C   LIG    1       26.087 -20.620   8.281  0.00  0.00    +0.049 A 
ATOM      6  C   LIG    1       24.941 -20.784   7.498  0.00  0.00    +0.008 A 
ENDROOT
BRANCH   3   7
ATOM      7  O   LIG    1       28.541 -19.989   5.548  0.00  0.00    -0.491 OA
ATOM      8  C   LIG    1       29.018 -18.651   5.499  0.00  0.00    +0.277 C 
ENDBRANCH   3   7
BRANCH   4   9
ATOM      9  O   LIG    1       28.422 -20.233   8.479  0.00  0.00    -0.503 OA
ATOM     10  H   LIG    1       29.205 -20.102   7.921  0.00  0.00    +0.292 HD
ENDBRANCH   4   9
BRANCH   1  11
ATOM     11  C   LIG    1       23.780 -20.865   5.253  0.00  0.00    +0.061 C 
BRANCH  11  13
ATOM     12  C   LIG    1       22.344 -18.902   4.608  0.00  0.00    +0.004 C 
ATOM     13  C   LIG    1       22.733 -19.814   5.505  0.00  0.00    -0.030 C 
ENDBRANCH  11  13
ENDBRANCH   1  11
TORSDOF 4
ENDMDL
MODEL 5
REMARK VINA RESULT:      -6.2      1.306      2.600
REMARK  Name = *****
REMARK                            x       y       z     vdW  Elec       q    Type
REMARK                         _______ _______ _______ _____ _____    ______ ____
ROOT
ATOM      1  C   LIG    1       28.068 -20.124   6.603  0.00  0.00    -0.040 A 
ATOM      2  C   LIG    1       28.747 -20.594   7.737  0.00  0.00    +0.053 A 
ATOM      3  C   LIG    1       30.056 -20.183   8.031  0.00  0.00    +0.162 A 
ATOM      4  C   LIG    1       30.687 -19.277   7.172  0.00  0.00    +0.159 A 
ATOM      5  C   LIG    1       30.026 -18.810   6.032  0.00  0.00    +0.049 A 
ATOM      6  C   LIG    1       28.725 -19.234   5.747  0.00  0.00    +0.008 A 
ENDROOT
BRANCH   3   7
ATOM      7  O   LIG    1       30.545 -20.701   9.200  0.00  0.00    -0.491 OA
ATOM      8  C   LIG    1       31.169 -21.976   9.126  0.00  0.00    +0.277 C 
ENDBRANCH   3   7
BRANCH   4   9
ATOM      9  O   LIG    1       31.942 -18.804   7.435  0.00  0.00    -0.503 OA
ATOM     10  H   LIG    1       32.107 -18.861   8.389  0.00  0.00    +0.292 HD
ENDBRANCH   4   9
BRANCH   1  11
ATOM     11  C   LIG    1       26.658 -20.578   6.304  0.00  0.00    +0.061 C 
BRANCH  11  13
ATOM     12  C   LIG    1       24.490 -20.953   7.526  0.00  0.00    +0.004 C 
ATOM     13  C   LIG    1       25.779 -20.598   7.526  0.00  0.00    -0.030 C 
ENDBRANCH  11  13
ENDBRANCH   1  11
TORSDOF 4
ENDMDL
MODEL 6
REMARK VINA RESULT:      -6.2      6.579      8.164
REMARK  Name = *****
REMARK                            x       y       z     vdW  Elec       q    Type
REMARK                         _______ _______ _______ _____ _____    ______ ____
ROOT
ATOM      1  C   LIG    1       23.975 -24.093   6.599  0.00  0.00    -0.040 A 
ATOM      2  C   LIG    1       23.728 -25.376   6.087  0.00  0.00    +0.053 A 
ATOM      3  C   LIG    1       24.777 -26.262   5.794  0.00  0.00    +0.162 A 
ATOM      4  C   LIG    1       26.093 -25.851   6.030  0.00  0.00    +0.159 A 
ATOM      5  C   LIG    1       26.352 -24.571   6.529  0.00  0.00    +0.049 A 
ATOM      6  C   LIG    1       25.300 -23.696   6.808  0.00  0.00    +0.008 A 
ENDROOT
BRANCH   3   7
ATOM      7  O   LIG    1       24.353 -27.486   5.350  0.00  0.00    -0.491 OA
ATOM      8  C   LIG    1       24.332 -28.541   6.302  0.00  0.00    +0.277 C 
ENDBRANCH   3   7
BRANCH   4   9
ATOM      9  O   LIG    1       27.150 -26.689   5.810  0.00  0.00    -0.503 OA
ATOM     10  H   LIG    1       26.924 -27.300   5.090  0.00  0.00    +0.292 HD
ENDBRANCH   4   9
BRANCH   1  11
ATOM     11  C   LIG    1       22.832 -23.154   6.909  0.00  0.00    +0.061 C 
BRANCH  11  13
ATOM     12  C   LIG    1       23.215 -20.693   6.549  0.00  0.00    +0.004 C 
ATOM     13  C   LIG    1       23.297 -21.782   7.319  0.00  0.00    -0.030 C 
ENDBRANCH  11  13
ENDBRANCH   1  11
TORSDOF 4
ENDMDL
MODEL 7
REMARK VINA RESULT:      -6.2      5.237      6.920
REMARK  Name = *****
REMARK                            x       y       z     vdW  Elec       q    Type
REMARK                         _______ _______ _______ _____ _____    ______ ____
ROOT
ATOM      1  C   LIG    1       24.947 -24.455   6.783  0.00  0.00    -0.040 A 
ATOM      2  C   LIG    1       25.780 -23.474   7.344  0.00  0.00    +0.053 A 
ATOM      3  C   LIG    1       25.291 -22.204   7.683  0.00  0.00    +0.162 A 
ATOM      4  C   LIG    1       23.939 -21.921   7.463  0.00  0.00    +0.159 A 
ATOM      5  C   LIG    1       23.101 -22.884   6.894  0.00  0.00    +0.049 A 
ATOM      6  C   LIG    1       23.603 -24.143   6.553  0.00  0.00    +0.008 A 
ENDROOT
BRANCH   3   7
ATOM      7  O   LIG    1       26.229 -21.391   8.263  0.00  0.00    -0.491 OA
ATOM      8  C   LIG    1       26.915 -20.490   7.406  0.00  0.00    +0.277 C 
ENDBRANCH   3   7
BRANCH   4   9
ATOM      9  O   LIG    1       23.397 -20.718   7.820  0.00  0.00    -0.503 OA
ATOM     10  H   LIG    1       23.715 -20.034   7.208  0.00  0.00    +0.292 HD
ENDBRANCH   4   9
BRANCH   1  11
ATOM     11  C   LIG    1       25.493 -25.818   6.425  0.00  0.00    +0.061 C 
BRANCH  11  13
ATOM     12  C   LIG    1       24.461 -28.109   6.285  0.00  0.00    +0.004 C 
ATOM     13  C   LIG    1       24.415 -26.796   6.039  0.00  0.00    -0.030 C 
ENDBRANCH  11  13
ENDBRANCH   1  11
TORSDOF 4
ENDMDL
MODEL 8
REMARK VINA RESULT:      -6.1      3.994      6.140
REMARK  Name = *****
REMARK                            x       y       z     vdW  Elec       q    Type
REMARK                         _______ _______ _______ _____ _____    ______ ____
ROOT
ATOM      1  C   LIG    1       26.982 -20.259   6.380  0.00  0.00    -0.040 A 
ATOM      2  C   LIG    1       25.859 -20.414   5.553  0.00  0.00    +0.053 A 
ATOM      3  C   LIG    1       24.614 -20.801   6.072  0.00  0.00    +0.162 A 
ATOM      4  C   LIG    1       24.498 -21.027   7.448  0.00  0.00    +0.159 A 
ATOM      5  C   LIG    1       25.612 -20.887   8.281  0.00  0.00    +0.049 A 
ATOM      6  C   LIG    1       26.847 -20.509   7.750  0.00  0.00    +0.008 A 
ENDROOT
BRANCH   3   7
ATOM      7  O   LIG    1       23.619 -20.855   5.132  0.00  0.00    -0.491 OA
ATOM      8  C   LIG    1       22.772 -19.719   5.030  0.00  0.00    +0.277 C 
ENDBRANCH   3   7
BRANCH   4   9
ATOM      9  O   LIG    1       23.299 -21.357   8.016  0.00  0.00    -0.503 OA
ATOM     10  H   LIG    1       22.582 -21.058   7.435  0.00  0.00    +0.292 HD
ENDBRANCH   4   9
BRANCH   1  11
ATOM     11  C   LIG    1       28.314 -19.841   5.802  0.00  0.00    +0.061 C 
BRANCH  11  13
ATOM     12  C   LIG    1       30.605 -19.227   6.643  0.00  0.00    +0.004 C 
ATOM     13  C   LIG    1       29.410 -19.796   6.832  0.00  0.00    -0.030 C 
ENDBRANCH  11  13
ENDBRANCH   1  11
TORSDOF 4
ENDMDL
MODEL 9
REMARK VINA RESULT:      -6.1      3.893      5.957
REMARK  Name = *****
REMARK                            x       y       z     vdW  Elec       q    Type
REMARK                         _______ _______ _______ _____ _____    ______ ____
ROOT
ATOM      1  C   LIG    1       23.742 -21.377   6.604  0.00  0.00    -0.040 A 
ATOM      2  C   LIG    1       25.119 -21.322   6.871  0.00  0.00    +0.053 A 
ATOM      3  C   LIG    1       25.877 -22.488   7.053  0.00  0.00    +0.162 A 
ATOM      4  C   LIG    1       25.240 -23.730   6.954  0.00  0.00    +0.159 A 
ATOM      5  C   LIG    1       23.867 -23.798   6.699  0.00  0.00    +0.049 A 
ATOM      6  C   LIG    1       23.122 -22.629   6.529  0.00  0.00    +0.008 A 
ENDROOT
BRANCH   3   7
ATOM      7  O   LIG    1       27.211 -22.250   7.255  0.00  0.00    -0.491 OA
ATOM      8  C   LIG    1       27.696 -20.966   6.889  0.00  0.00    +0.277 C 
ENDBRANCH   3   7
BRANCH   4   9
ATOM      9  O   LIG    1       25.938 -24.898   7.072  0.00  0.00    -0.503 OA
ATOM     10  H   LIG    1       26.371 -25.096   6.226  0.00  0.00    +0.292 HD
ENDBRANCH   4   9
BRANCH   1  11
ATOM     11  C   LIG    1       22.943 -20.109   6.410  0.00  0.00    +0.061 C 
BRANCH  11  13
ATOM     12  C   LIG    1       22.286 -18.658   4.462  0.00  0.00    +0.004 C 
ATOM     13  C   LIG    1       22.584 -19.858   4.970  0.00  0.00    -0.030 C 
ENDBRANCH  11  13
ENDBRANCH   1  11
TORSDOF 4
ENDMDL
