MODEL 1
REMARK VINA RESULT:      -4.8      0.000      0.000
REMARK  Name = *****
REMARK                            x       y       z     vdW  Elec       q    Type
REMARK                         _______ _______ _______ _____ _____    ______ ____
ROOT
ATOM      1  C   LIG    1       24.948 -20.538   5.349  0.00  0.00    +0.120 A 
ATOM      2  C   LIG    1       24.993 -19.815   4.156  0.00  0.00    +0.049 A 
ATOM      3  C   LIG    1       23.864 -19.115   3.719  0.00  0.00    +0.049 A 
ATOM      4  C   LIG    1       22.697 -19.141   4.474  0.00  0.00    +0.117 A 
ATOM      5  C   LIG    1       22.637 -19.857   5.664  0.00  0.00    +0.049 A 
ATOM      6  C   LIG    1       23.767 -20.554   6.097  0.00  0.00    +0.049 A 
ENDROOT
BRANCH   1   8
ATOM      7  C   LIG    1       26.770 -20.613   6.875  0.00  0.00    +0.277 C 
ATOM      8  O   LIG    1       25.975 -21.263   5.890  0.00  0.00    -0.495 OA
ENDBRANCH   1   8
BRANCH   4   9
ATOM      9  O   LIG    1       21.623 -18.444   4.008  0.00  0.00    -0.507 OA
ATOM     10  H   LIG    1       20.932 -19.077   3.751  0.00  0.00    +0.292 HD
ENDBRANCH   4   9
TORSDOF 2
ENDMDL
MODEL 2
REMARK VINA RESULT:      -4.8      0.266      1.628
REMARK  Name = *****
REMARK                            x       y       z     vdW  Elec       q    Type
REMARK                         _______ _______ _______ _____ _____    ______ ____
ROOT
ATOM      1  C   LIG    1       24.941 -20.694   5.627  0.00  0.00    +0.120 A 
ATOM      2  C   LIG    1       23.720 -20.618   6.299  0.00  0.00    +0.049 A 
ATOM      3  C   LIG    1       22.659 -19.896   5.744  0.00  0.00    +0.049 A 
ATOM      4  C   LIG    1       22.822 -19.253   4.523  0.00  0.00    +0.117 A 
ATOM      5  C   LIG    1       24.032 -19.319   3.842  0.00  0.00    +0.049 A 
ATOM      6  C   LIG    1       25.089 -20.041   4.400  0.00  0.00    +0.049 A 
ENDROOT
BRANCH   1   8
ATOM      7  C   LIG    1       27.096 -20.579   6.625  0.00  0.00    +0.277 C 
ATOM      8  O   LIG    1       26.055 -21.364   6.055  0.00  0.00    -0.495 OA
ENDBRANCH   1   8
BRANCH   4   9
ATOM      9  O   LIG    1       21.760 -18.561   4.021  0.00  0.00    -0.507 OA
ATOM     10  H   LIG    1       21.872 -18.479   3.060  0.00  0.00    +0.292 HD
ENDBRANCH   4   9
TORSDOF 2
ENDMDL
MODEL 3
REMARK VINA RESULT:      -4.8      6.327      7.482
REMARK  Name = *****
REMARK                            x       y       z     vdW  Elec       q    Type
REMARK                         _______ _______ _______ _____ _____    ______ ____
ROOT
ATOM      1  C   LIG    1       25.205 -13.728   4.070  0.00  0.00    +0.120 A 
ATOM      2  C   LIG    1       25.728 -13.905   2.788  0.00  0.00    +0.049 A 
ATOM      3  C   LIG    1       27.104 -13.791   2.571  0.00  0.00    +0.049 A 
ATOM      4  C   LIG    1       27.952 -13.501   3.634  0.00  0.00    +0.117 A 
ATOM      5  C   LIG    1       27.447 -13.322   4.917  0.00  0.00    +0.049 A 
ATOM      6  C   LIG    1       26.071 -13.436   5.128  0.00  0.00    +0.049 A 
ENDROOT
BRANCH   1   8
ATOM      7  C   LIG    1       23.307 -15.110   4.439  0.00  0.00    +0.277 C 
ATOM      8  O   LIG    1       23.885 -13.811   4.419  0.00  0.00    -0.495 OA
ENDBRANCH   1   8
BRANCH   4   9
ATOM      9  O   LIG    1       29.286 -13.401   3.374  0.00  0.00    -0.507 OA
ATOM     10  H   LIG    1       29.772 -13.872   4.070  0.00  0.00    +0.292 HD
ENDBRANCH   4   9
TORSDOF 2
ENDMDL
MODEL 4
REMARK VINA RESULT:      -4.8      6.341      7.600
REMARK  Name = *****
REMARK                            x       y       z     vdW  Elec       q    Type
REMARK                         _______ _______ _______ _____ _____    ______ ____
ROOT
ATOM      1  C   LIG    1       25.221 -13.680   4.196  0.00  0.00    +0.120 A 
ATOM      2  C   LIG    1       26.145 -13.408   5.207  0.00  0.00    +0.049 A 
ATOM      3  C   LIG    1       27.507 -13.319   4.905  0.00  0.00    +0.049 A 
ATOM      4  C   LIG    1       27.941 -13.503   3.597  0.00  0.00    +0.117 A 
ATOM      5  C   LIG    1       27.034 -13.776   2.580  0.00  0.00    +0.049 A 
ATOM      6  C   LIG    1       25.674 -13.863   2.886  0.00  0.00    +0.049 A 
ENDROOT
BRANCH   1   8
ATOM      7  C   LIG    1       23.337 -15.112   4.421  0.00  0.00    +0.277 C 
ATOM      8  O   LIG    1       23.867 -13.794   4.353  0.00  0.00    -0.495 OA
ENDBRANCH   1   8
BRANCH   4   9
ATOM      9  O   LIG    1       29.278 -13.407   3.352  0.00  0.00    -0.507 OA
ATOM     10  H   LIG    1       29.704 -13.000   4.123  0.00  0.00    +0.292 HD
ENDBRANCH   4   9
TORSDOF 2
ENDMDL
MODEL 5
REMARK VINA RESULT:      -4.7      1.057      4.120
REMARK  Name = *****
REMARK                            x       y       z     vdW  Elec       q    Type
REMARK                         _______ _______ _______ _____ _____    ______ ____
ROOT
ATOM      1  C   LIG    1       23.183 -20.045   5.298  0.00  0.00    +0.120 A 
ATOM      2  C   LIG    1       23.366 -20.597   6.567  0.00  0.00    +0.049 A 
ATOM      3  C   LIG    1       24.627 -21.060   6.954  0.00  0.00    +0.049 A 
ATOM      4  C   LIG    1       25.699 -20.970   6.072  0.00  0.00    +0.117 A 
ATOM      5  C   LIG    1       25.532 -20.424   4.805  0.00  0.00    +0.049 A 
ATOM      6  C   LIG    1       24.271 -19.963   4.423  0.00  0.00    +0.049 A 
ENDROOT
BRANCH   1   8
ATOM      7  C   LIG    1       22.010 -18.204   4.356  0.00  0.00    +0.277 C 
ATOM      8  O   LIG    1       22.008 -19.557   4.794  0.00  0.00    -0.495 OA
ENDBRANCH   1   8
BRANCH   4   9
ATOM      9  O   LIG    1       26.909 -21.434   6.494  0.00  0.00    -0.507 OA
ATOM     10  H   LIG    1       27.519 -20.682   6.564  0.00  0.00    +0.292 HD
ENDBRANCH   4   9
TORSDOF 2
ENDMDL
MODEL 6
REMARK VINA RESULT:      -4.6      5.589      6.287
REMARK  Name = *****
REMARK                            x       y       z     vdW  Elec       q    Type
REMARK                         _______ _______ _______ _____ _____    ______ ____
ROOT
ATOM      1  C   LIG    1       25.982 -14.981   3.196  0.00  0.00    +0.120 A 
ATOM      2  C   LIG    1       26.351 -13.893   2.403  0.00  0.00    +0.049 A 
ATOM      3  C   LIG    1       25.531 -12.762   2.342  0.00  0.00    +0.049 A 
ATOM      4  C   LIG    1       24.348 -12.722   3.072  0.00  0.00    +0.117 A 
ATOM      5  C   LIG    1       23.968 -13.798   3.865  0.00  0.00    +0.049 A 
ATOM      6  C   LIG    1       24.789 -14.926   3.923  0.00  0.00    +0.049 A 
ENDROOT
BRANCH   1   8
ATOM      7  C   LIG    1       25.945 -17.356   3.300  0.00  0.00    +0.277 C 
ATOM      8  O   LIG    1       26.688 -16.144   3.345  0.00  0.00    -0.495 OA
ENDBRANCH   1   8
BRANCH   4   9
ATOM      9  O   LIG    1       23.583 -11.598   2.981  0.00  0.00    -0.507 OA
ATOM     10  H   LIG    1       23.260 -11.374   3.869  0.00  0.00    +0.292 HD
ENDBRANCH   4   9
TORSDOF 2
ENDMDL
MODEL 7
REMARK VINA RESULT:      -4.6      5.659      6.559
REMARK  Name = *****
REMARK                            x       y       z     vdW  Elec       q    Type
REMARK                         _______ _______ _______ _____ _____    ______ ____
ROOT
ATOM      1  C   LIG    1       25.840 -14.945   3.276  0.00  0.00    +0.120 A 
ATOM      2  C   LIG    1       24.665 -14.755   4.005  0.00  0.00    +0.049 A 
ATOM      3  C   LIG    1       23.926 -13.578   3.848  0.00  0.00    +0.049 A 
ATOM      4  C   LIG    1       24.364 -12.597   2.966  0.00  0.00    +0.117 A 
ATOM      5  C   LIG    1       25.532 -12.772   2.232  0.00  0.00    +0.049 A 
ATOM      6  C   LIG    1       26.266 -13.949   2.392  0.00  0.00    +0.049 A 
ENDROOT
BRANCH   1   8
ATOM      7  C   LIG    1       26.018 -17.315   3.290  0.00  0.00    +0.277 C 
ATOM      8  O   LIG    1       26.653 -16.043   3.333  0.00  0.00    -0.495 OA
ENDBRANCH   1   8
BRANCH   4   9
ATOM      9  O   LIG    1       23.610 -11.468   2.846  0.00  0.00    -0.507 OA
ATOM     10  H   LIG    1       22.678 -11.727   2.760  0.00  0.00    +0.292 HD
ENDBRANCH   4   9
TORSDOF 2
ENDMDL
MODEL 8
REMARK VINA RESULT:      -4.5      1.607      1.747
REMARK  Name = *****
REMARK                            x       y       z     vdW  Elec       q    Type
REMARK                         _______ _______ _______ _____ _____    ______ ____
ROOT
ATOM      1  C   LIG    1       25.666 -20.526   6.142  0.00  0.00    +0.120 A 
ATOM      2  C   LIG    1       25.354 -20.459   4.783  0.00  0.00    +0.049 A 
ATOM      3  C   LIG    1       24.044 -20.689   4.353  0.00  0.00    +0.049 A 
ATOM      4  C   LIG    1       23.052 -20.985   5.280  0.00  0.00    +0.117 A 
ATOM      5  C   LIG    1       23.346 -21.056   6.637  0.00  0.00    +0.049 A 
ATOM      6  C   LIG    1       24.656 -20.825   7.062  0.00  0.00    +0.049 A 
ENDROOT
BRANCH   1   8
ATOM      7  C   LIG    1       27.948 -19.951   5.809  0.00  0.00    +0.277 C 
ATOM      8  O   LIG    1       26.900 -20.324   6.696  0.00  0.00    -0.495 OA
ENDBRANCH   1   8
BRANCH   4   9
ATOM      9  O   LIG    1       21.789 -21.200   4.814  0.00  0.00    -0.507 OA
ATOM     10  H   LIG    1       21.157 -20.896   5.485  0.00  0.00    +0.292 HD
ENDBRANCH   4   9
TORSDOF 2
ENDMDL
MODEL 9
REMARK VINA RESULT:      -4.5      1.808      4.018
REMARK  Name = *****
REMARK                            x       y       z     vdW  Elec       q    Type
REMARK                         _______ _______ _______ _____ _____    ______ ____
ROOT
ATOM      1  C   LIG    1       24.162 -20.699   6.059  0.00  0.00    +0.120 A 
ATOM      2  C   LIG    1       25.125 -20.852   7.058  0.00  0.00    +0.049 A 
ATOM      3  C   LIG    1       26.468 -20.576   6.784  0.00  0.00    +0.049 A 
ATOM      4  C   LIG    1       26.843 -20.150   5.516  0.00  0.00    +0.117 A 
ATOM      5  C   LIG    1       25.896 -19.993   4.510  0.00  0.00    +0.049 A 
ATOM      6  C   LIG    1       24.556 -20.269   4.788  0.00  0.00    +0.049 A 
ENDROOT
BRANCH   1   8
ATOM      7  C   LIG    1       22.035 -20.851   5.009  0.00  0.00    +0.277 C 
ATOM      8  O   LIG    1       22.820 -20.933   6.192  0.00  0.00    -0.495 OA
ENDBRANCH   1   8
BRANCH   4   9
ATOM      9  O   LIG    1       28.163 -19.893   5.296  0.00  0.00    -0.507 OA
ATOM     10  H   LIG    1       28.652 -20.066   6.118  0.00  0.00    +0.292 HD
ENDBRANCH   4   9
TORSDOF 2
ENDMDL
