MODEL 1
REMARK VINA RESULT:      -7.8      0.000      0.000
REMARK  Name = *****
REMARK                            x       y       z     vdW  Elec       q    Type
REMARK                         _______ _______ _______ _____ _____    ______ ____
ROOT
ATOM      1  C   LIG    1       27.230 -20.885   7.802  0.00  0.00    +0.011 C 
ATOM      2  C   LIG    1       25.927 -21.182   7.054  0.00  0.00    -0.030 C 
ATOM      3  C   LIG    1       25.880 -20.389   5.728  0.00  0.00    +0.013 C 
ATOM      4  C   LIG    1       24.568 -20.675   4.961  0.00  0.00    -0.030 C 
ATOM      5  C   LIG    1       23.373 -20.277   5.856  0.00  0.00    +0.010 C 
ATOM      6  C   LIG    1       23.400 -21.072   7.172  0.00  0.00    -0.008 C 
ATOM      7  C   LIG    1       23.319 -22.575   6.860  0.00  0.00    +0.025 C 
ATOM      8  C   LIG    1       24.514 -22.998   5.981  0.00  0.00    +0.018 C 
ATOM      9  C   LIG    1       24.537 -19.879   3.652  0.00  0.00    +0.011 C 
ATOM     10  C   LIG    1       24.485 -22.191   4.667  0.00  0.00    +0.028 C 
ATOM     11  C   LIG    1       25.827 -22.692   6.734  0.00  0.00    +0.028 C 
ATOM     12  C   LIG    1       24.711 -20.776   7.918  0.00  0.00    +0.010 C 
ENDROOT
BRANCH   8  13
ATOM     13  N   LIG    1       24.423 -24.427   5.682  0.00  0.00    -0.325 NA
ATOM     14  H   LIG    1       23.847 -24.891   6.384  0.00  0.00    +0.119 HD
ATOM     15  H   LIG    1       23.950 -24.565   4.791  0.00  0.00    +0.119 HD
ENDBRANCH   8  13
TORSDOF 1
ENDMDL
MODEL 2
REMARK VINA RESULT:      -7.6      1.363      3.095
REMARK  Name = *****
REMARK                            x       y       z     vdW  Elec       q    Type
REMARK                         _______ _______ _______ _____ _____    ______ ____
ROOT
ATOM      1  C   LIG    1       24.425 -24.653   6.330  0.00  0.00    +0.011 C 
ATOM      2  C   LIG    1       24.510 -23.125   6.391  0.00  0.00    -0.030 C 
ATOM      3  C   LIG    1       25.783 -22.691   7.154  0.00  0.00    +0.013 C 
ATOM      4  C   LIG    1       25.883 -21.150   7.227  0.00  0.00    -0.030 C 
ATOM      5  C   LIG    1       24.627 -20.605   7.944  0.00  0.00    +0.010 C 
ATOM      6  C   LIG    1       23.355 -21.016   7.184  0.00  0.00    -0.008 C 
ATOM      7  C   LIG    1       23.410 -20.448   5.756  0.00  0.00    +0.025 C 
ATOM      8  C   LIG    1       24.648 -20.995   5.016  0.00  0.00    +0.018 C 
ATOM      9  C   LIG    1       27.147 -20.739   7.990  0.00  0.00    +0.011 C 
ATOM     10  C   LIG    1       25.919 -20.586   5.788  0.00  0.00    +0.028 C 
ATOM     11  C   LIG    1       24.563 -22.536   4.962  0.00  0.00    +0.028 C 
ATOM     12  C   LIG    1       23.275 -22.549   7.119  0.00  0.00    +0.010 C 
ENDROOT
BRANCH   8  13
ATOM     13  N   LIG    1       24.695 -20.442   3.663  0.00  0.00    -0.325 NA
ATOM     14  H   LIG    1       25.455 -19.767   3.591  0.00  0.00    +0.119 HD
ATOM     15  H   LIG    1       24.909 -21.180   2.994  0.00  0.00    +0.119 HD
ENDBRANCH   8  13
TORSDOF 1
ENDMDL
MODEL 3
REMARK VINA RESULT:      -7.6      1.532      3.194
REMARK  Name = *****
REMARK                            x       y       z     vdW  Elec       q    Type
REMARK                         _______ _______ _______ _____ _____    ______ ____
ROOT
ATOM      1  C   LIG    1       25.099 -20.258   3.901  0.00  0.00    +0.011 C 
ATOM      2  C   LIG    1       24.889 -20.938   5.258  0.00  0.00    -0.030 C 
ATOM      3  C   LIG    1       24.690 -22.459   5.068  0.00  0.00    +0.013 C 
ATOM      4  C   LIG    1       24.473 -23.161   6.428  0.00  0.00    -0.030 C 
ATOM      5  C   LIG    1       23.229 -22.548   7.110  0.00  0.00    +0.010 C 
ATOM      6  C   LIG    1       23.422 -21.037   7.320  0.00  0.00    -0.008 C 
ATOM      7  C   LIG    1       24.655 -20.801   8.209  0.00  0.00    +0.025 C 
ATOM      8  C   LIG    1       25.912 -21.389   7.537  0.00  0.00    +0.018 C 
ATOM      9  C   LIG    1       24.274 -24.666   6.220  0.00  0.00    +0.011 C 
ATOM     10  C   LIG    1       25.708 -22.903   7.322  0.00  0.00    +0.028 C 
ATOM     11  C   LIG    1       26.119 -20.708   6.167  0.00  0.00    +0.028 C 
ATOM     12  C   LIG    1       23.639 -20.358   5.958  0.00  0.00    +0.010 C 
ENDROOT
BRANCH   8  13
ATOM     13  N   LIG    1       27.077 -21.168   8.394  0.00  0.00    -0.325 NA
ATOM     14  H   LIG    1       27.676 -21.991   8.383  0.00  0.00    +0.119 HD
ATOM     15  H   LIG    1       27.639 -20.403   8.024  0.00  0.00    +0.119 HD
ENDBRANCH   8  13
TORSDOF 1
ENDMDL
MODEL 4
REMARK VINA RESULT:      -6.5      1.119      3.289
REMARK  Name = *****
REMARK                            x       y       z     vdW  Elec       q    Type
REMARK                         _______ _______ _______ _____ _____    ______ ____
ROOT
ATOM      1  C   LIG    1       22.369 -19.501   5.231  0.00  0.00    +0.011 C 
ATOM      2  C   LIG    1       23.368 -20.559   5.709  0.00  0.00    -0.030 C 
ATOM      3  C   LIG    1       24.023 -20.114   7.037  0.00  0.00    +0.013 C 
ATOM      4  C   LIG    1       25.037 -21.170   7.533  0.00  0.00    -0.030 C 
ATOM      5  C   LIG    1       26.122 -21.363   6.449  0.00  0.00    +0.010 C 
ATOM      6  C   LIG    1       25.484 -21.823   5.128  0.00  0.00    -0.008 C 
ATOM      7  C   LIG    1       24.751 -23.156   5.353  0.00  0.00    +0.025 C 
ATOM      8  C   LIG    1       23.650 -22.980   6.419  0.00  0.00    +0.018 C 
ATOM      9  C   LIG    1       25.678 -20.711   8.846  0.00  0.00    +0.011 C 
ATOM     10  C   LIG    1       24.296 -22.512   7.739  0.00  0.00    +0.028 C 
ATOM     11  C   LIG    1       22.648 -21.909   5.938  0.00  0.00    +0.028 C 
ATOM     12  C   LIG    1       24.478 -20.762   4.653  0.00  0.00    +0.010 C 
ENDROOT
BRANCH   8  13
ATOM     13  N   LIG    1       22.965 -24.255   6.632  0.00  0.00    -0.325 NA
ATOM     14  H   LIG    1       23.111 -24.865   5.829  0.00  0.00    +0.119 HD
ATOM     15  H   LIG    1       23.373 -24.738   7.431  0.00  0.00    +0.119 HD
ENDBRANCH   8  13
TORSDOF 1
ENDMDL
MODEL 5
REMARK VINA RESULT:      -6.4      1.760      3.276
REMARK  Name = *****
REMARK                            x       y       z     vdW  Elec       q    Type
REMARK                         _______ _______ _______ _____ _____    ______ ____
ROOT
ATOM      1  C   LIG    1       23.441 -24.422   6.619  0.00  0.00    +0.011 C 
ATOM      2  C   LIG    1       24.031 -23.011   6.533  0.00  0.00    -0.030 C 
ATOM      3  C   LIG    1       22.946 -22.004   6.088  0.00  0.00    +0.013 C 
ATOM      4  C   LIG    1       23.526 -20.574   5.993  0.00  0.00    -0.030 C 
ATOM      5  C   LIG    1       24.690 -20.578   4.977  0.00  0.00    +0.010 C 
ATOM      6  C   LIG    1       25.784 -21.564   5.418  0.00  0.00    -0.008 C 
ATOM      7  C   LIG    1       26.319 -21.146   6.799  0.00  0.00    +0.025 C 
ATOM      8  C   LIG    1       25.175 -21.154   7.833  0.00  0.00    +0.018 C 
ATOM      9  C   LIG    1       22.438 -19.592   5.548  0.00  0.00    +0.011 C 
ATOM     10  C   LIG    1       24.077 -20.169   7.380  0.00  0.00    +0.028 C 
ATOM     11  C   LIG    1       24.577 -22.576   7.913  0.00  0.00    +0.028 C 
ATOM     12  C   LIG    1       25.188 -22.977   5.509  0.00  0.00    +0.010 C 
ENDROOT
BRANCH   8  13
ATOM     13  N   LIG    1       25.691 -20.747   9.140  0.00  0.00    -0.325 NA
ATOM     14  H   LIG    1       25.858 -21.570   9.718  0.00  0.00    +0.119 HD
ATOM     15  H   LIG    1       26.595 -20.291   9.028  0.00  0.00    +0.119 HD
ENDBRANCH   8  13
TORSDOF 1
ENDMDL
MODEL 6
REMARK VINA RESULT:      -6.4      1.792      3.632
REMARK  Name = *****
REMARK                            x       y       z     vdW  Elec       q    Type
REMARK                         _______ _______ _______ _____ _____    ______ ____
ROOT
ATOM      1  C   LIG    1       22.571 -20.876   5.526  0.00  0.00    +0.011 C 
ATOM      2  C   LIG    1       23.900 -21.177   6.227  0.00  0.00    -0.030 C 
ATOM      3  C   LIG    1       24.128 -22.705   6.304  0.00  0.00    +0.013 C 
ATOM      4  C   LIG    1       25.465 -23.027   7.011  0.00  0.00    -0.030 C 
ATOM      5  C   LIG    1       25.430 -22.426   8.434  0.00  0.00    +0.010 C 
ATOM      6  C   LIG    1       25.221 -20.905   8.369  0.00  0.00    -0.008 C 
ATOM      7  C   LIG    1       26.374 -20.265   7.578  0.00  0.00    +0.025 C 
ATOM      8  C   LIG    1       26.415 -20.838   6.146  0.00  0.00    +0.018 C 
ATOM      9  C   LIG    1       25.672 -24.543   7.082  0.00  0.00    +0.011 C 
ATOM     10  C   LIG    1       26.617 -22.366   6.219  0.00  0.00    +0.028 C 
ATOM     11  C   LIG    1       25.072 -20.539   5.445  0.00  0.00    +0.028 C 
ATOM     12  C   LIG    1       23.890 -20.604   7.661  0.00  0.00    +0.010 C 
ENDROOT
BRANCH   8  13
ATOM     13  N   LIG    1       27.520 -20.231   5.405  0.00  0.00    -0.325 NA
ATOM     14  H   LIG    1       27.779 -20.827   4.620  0.00  0.00    +0.119 HD
ATOM     15  H   LIG    1       27.221 -19.345   5.001  0.00  0.00    +0.119 HD
ENDBRANCH   8  13
TORSDOF 1
ENDMDL
MODEL 7
REMARK VINA RESULT:      -6.0      1.585      3.068
REMARK  Name = *****
REMARK                            x       y       z     vdW  Elec       q    Type
REMARK                         _______ _______ _______ _____ _____    ______ ____
ROOT
ATOM      1  C   LIG    1       27.917 -20.975   7.555  0.00  0.00    +0.011 C 
ATOM      2  C   LIG    1       26.535 -21.314   6.986  0.00  0.00    -0.030 C 
ATOM      3  C   LIG    1       26.318 -22.845   6.988  0.00  0.00    +0.013 C 
ATOM      4  C   LIG    1       24.928 -23.205   6.414  0.00  0.00    -0.030 C 
ATOM      5  C   LIG    1       24.832 -22.661   4.971  0.00  0.00    +0.010 C 
ATOM      6  C   LIG    1       25.030 -21.136   4.958  0.00  0.00    -0.008 C 
ATOM      7  C   LIG    1       23.943 -20.475   5.822  0.00  0.00    +0.025 C 
ATOM      8  C   LIG    1       24.034 -20.990   7.273  0.00  0.00    +0.018 C 
ATOM      9  C   LIG    1       24.732 -24.724   6.421  0.00  0.00    +0.011 C 
ATOM     10  C   LIG    1       23.842 -22.521   7.277  0.00  0.00    +0.028 C 
ATOM     11  C   LIG    1       25.429 -20.654   7.842  0.00  0.00    +0.028 C 
ATOM     12  C   LIG    1       26.414 -20.798   5.534  0.00  0.00    +0.010 C 
ENDROOT
BRANCH   8  13
ATOM     13  N   LIG    1       22.991 -20.363   8.084  0.00  0.00    -0.325 NA
ATOM     14  H   LIG    1       22.136 -20.916   8.038  0.00  0.00    +0.119 HD
ATOM     15  H   LIG    1       23.271 -20.355   9.063  0.00  0.00    +0.119 HD
ENDBRANCH   8  13
TORSDOF 1
ENDMDL
MODEL 8
REMARK VINA RESULT:      -5.9      1.514      2.874
REMARK  Name = *****
REMARK                            x       y       z     vdW  Elec       q    Type
REMARK                         _______ _______ _______ _____ _____    ______ ____
ROOT
ATOM      1  C   LIG    1       24.933 -24.612   6.095  0.00  0.00    +0.011 C 
ATOM      2  C   LIG    1       25.026 -23.090   6.237  0.00  0.00    -0.030 C 
ATOM      3  C   LIG    1       24.860 -22.414   4.856  0.00  0.00    +0.013 C 
ATOM      4  C   LIG    1       24.954 -20.876   4.981  0.00  0.00    -0.030 C 
ATOM      5  C   LIG    1       26.329 -20.510   5.586  0.00  0.00    +0.010 C 
ATOM      6  C   LIG    1       26.498 -21.164   6.967  0.00  0.00    -0.008 C 
ATOM      7  C   LIG    1       25.385 -20.667   7.905  0.00  0.00    +0.025 C 
ATOM      8  C   LIG    1       24.003 -21.039   7.329  0.00  0.00    +0.018 C 
ATOM      9  C   LIG    1       24.791 -20.223   3.605  0.00  0.00    +0.011 C 
ATOM     10  C   LIG    1       23.843 -20.386   5.940  0.00  0.00    +0.028 C 
ATOM     11  C   LIG    1       23.914 -22.573   7.180  0.00  0.00    +0.028 C 
ATOM     12  C   LIG    1       26.399 -22.691   6.822  0.00  0.00    +0.010 C 
ENDROOT
BRANCH   8  13
ATOM     13  N   LIG    1       22.952 -20.554   8.223  0.00  0.00    -0.325 NA
ATOM     14  H   LIG    1       23.368 -20.050   9.005  0.00  0.00    +0.119 HD
ATOM     15  H   LIG    1       22.364 -19.882   7.733  0.00  0.00    +0.119 HD
ENDBRANCH   8  13
TORSDOF 1
ENDMDL
MODEL 9
REMARK VINA RESULT:      -5.9      1.424      3.427
REMARK  Name = *****
REMARK                            x       y       z     vdW  Elec       q    Type
REMARK                         _______ _______ _______ _____ _____    ______ ____
ROOT
ATOM      1  C   LIG    1       24.689 -20.170   3.616  0.00  0.00    +0.011 C 
ATOM      2  C   LIG    1       24.886 -20.844   4.978  0.00  0.00    -0.030 C 
ATOM      3  C   LIG    1       26.253 -20.443   5.579  0.00  0.00    +0.013 C 
ATOM      4  C   LIG    1       26.470 -21.117   6.953  0.00  0.00    -0.030 C 
ATOM      5  C   LIG    1       26.404 -22.650   6.770  0.00  0.00    +0.010 C 
ATOM      6  C   LIG    1       25.042 -23.062   6.188  0.00  0.00    -0.008 C 
ATOM      7  C   LIG    1       23.924 -22.619   7.146  0.00  0.00    +0.025 C 
ATOM      8  C   LIG    1       23.960 -21.088   7.329  0.00  0.00    +0.018 C 
ATOM      9  C   LIG    1       27.829 -20.711   7.532  0.00  0.00    +0.011 C 
ATOM     10  C   LIG    1       25.332 -20.680   7.905  0.00  0.00    +0.028 C 
ATOM     11  C   LIG    1       23.768 -20.411   5.955  0.00  0.00    +0.028 C 
ATOM     12  C   LIG    1       24.844 -22.381   4.825  0.00  0.00    +0.010 C 
ENDROOT
BRANCH   8  13
ATOM     13  N   LIG    1       22.899 -20.678   8.249  0.00  0.00    -0.325 NA
ATOM     14  H   LIG    1       23.308 -20.268   9.088  0.00  0.00    +0.119 HD
ATOM     15  H   LIG    1       22.335 -19.945   7.822  0.00  0.00    +0.119 HD
ENDBRANCH   8  13
TORSDOF 1
ENDMDL
