MODEL 1
REMARK VINA RESULT:       3.1      0.000      0.000
REMARK  Name = *****
REMARK                            x       y       z     vdW  Elec       q    Type
REMARK                         _______ _______ _______ _____ _____    ______ ____
ROOT
ATOM      1  C   LIG    1       24.234 -13.614   3.530  0.00  0.00    +0.065 C 
ATOM      2  C   LIG    1       24.230 -15.160   3.519  0.00  0.00    +0.102 C 
ATOM      3  C   LIG    1       23.155 -15.700   4.495  0.00  0.00    +0.065 C 
ATOM      4  C   LIG    1       22.773 -14.950   5.562  0.00  0.00    +0.016 C 
ATOM      5  C   LIG    1       21.812 -15.367   6.650  0.00  0.00    +0.061 C 
ATOM      6  N   LIG    1       23.258 -13.651   5.688  0.00  0.00    -0.321 N 
ATOM      7  H   LIG    1       22.789 -13.084   6.394  0.00  0.00    +0.152 HD
ATOM      8  C   LIG    1       23.798 -12.944   4.622  0.00  0.00    +0.016 C 
ATOM      9  C   LIG    1       23.868 -11.447   4.806  0.00  0.00    +0.061 C 
ENDROOT
BRANCH   2  10
ATOM     10  C   LIG    1       25.636 -15.755   3.831  0.00  0.00    +0.042 A 
ATOM     11  C   LIG    1       26.652 -15.081   4.553  0.00  0.00    +0.277 A 
ATOM     12  C   LIG    1       27.921 -15.652   4.792  0.00  0.00    +0.084 A 
ATOM     13  C   LIG    1       28.212 -16.925   4.327  0.00  0.00    +0.007 A 
ATOM     14  C   LIG    1       27.247 -17.618   3.608  0.00  0.00    +0.001 A 
ATOM     15  C   LIG    1       25.990 -17.039   3.352  0.00  0.00    +0.011 A 
BRANCH  11  16
ATOM     16  N   LIG    1       26.458 -13.769   5.149  0.00  0.00    +0.080 N 
ATOM     17  O   LIG    1       26.975 -12.806   4.561  0.00  0.00    -0.576 OA
ATOM     18  O   LIG    1       25.893 -13.728   6.249  0.00  0.00    +0.042 OA
ENDBRANCH  11  16
ENDBRANCH   2  10
BRANCH   1  19
ATOM     19  C   LIG    1       24.606 -12.860   2.300  0.00  0.00    +0.337 C 
ATOM     20  O   LIG    1       23.942 -11.965   1.812  0.00  0.00    -0.245 OA
BRANCH  19  22
ATOM     21  C   LIG    1       26.905 -12.470   2.132  0.00  0.00    +0.280 C 
ATOM     22  O   LIG    1       25.790 -13.307   1.813  0.00  0.00    -0.465 OA
ENDBRANCH  19  22
ENDBRANCH   1  19
BRANCH   3  23
ATOM     23  C   LIG    1       22.506 -16.982   4.103  0.00  0.00    +0.338 C 
ATOM     24  O   LIG    1       21.368 -17.050   3.671  0.00  0.00    -0.245 OA
BRANCH  23  25
ATOM     25  O   LIG    1       23.279 -18.061   4.351  0.00  0.00    -0.454 OA
BRANCH  25  26
ATOM     26  C   LIG    1       22.590 -19.287   4.586  0.00  0.00    +0.306 C 
BRANCH  26  27
ATOM     27  C   LIG    1       23.509 -20.327   5.210  0.00  0.00    +0.168 C 
ATOM     28  O   LIG    1       23.116 -21.104   6.084  0.00  0.00    -0.294 OA
ATOM     29  C   LIG    1       24.936 -20.338   4.739  0.00  0.00    +0.090 C 
ENDBRANCH  26  27
ENDBRANCH  25  26
ENDBRANCH  23  25
ENDBRANCH   3  23
TORSDOF 8
ENDMDL
MODEL 2
REMARK VINA RESULT:       4.2      1.633      2.312
REMARK  Name = *****
REMARK                            x       y       z     vdW  Elec       q    Type
REMARK                         _______ _______ _______ _____ _____    ______ ____
ROOT
ATOM      1  C   LIG    1       25.235 -15.319   3.232  0.00  0.00    +0.065 C 
ATOM      2  C   LIG    1       25.622 -16.816   3.182  0.00  0.00    +0.102 C 
ATOM      3  C   LIG    1       24.417 -17.695   3.597  0.00  0.00    +0.065 C 
ATOM      4  C   LIG    1       23.463 -17.187   4.421  0.00  0.00    +0.016 C 
ATOM      5  C   LIG    1       22.281 -17.938   4.990  0.00  0.00    +0.061 C 
ATOM      6  N   LIG    1       23.514 -15.842   4.772  0.00  0.00    -0.321 N 
ATOM      7  H   LIG    1       22.674 -15.483   5.228  0.00  0.00    +0.152 HD
ATOM      8  C   LIG    1       24.243 -14.904   4.052  0.00  0.00    +0.016 C 
ATOM      9  C   LIG    1       23.856 -13.463   4.286  0.00  0.00    +0.061 C 
ENDROOT
BRANCH   2  10
ATOM     10  C   LIG    1       26.882 -17.127   4.044  0.00  0.00    +0.042 A 
ATOM     11  C   LIG    1       27.754 -16.146   4.578  0.00  0.00    +0.277 A 
ATOM     12  C   LIG    1       28.898 -16.476   5.336  0.00  0.00    +0.084 A 
ATOM     13  C   LIG    1       29.202 -17.804   5.597  0.00  0.00    +0.007 A 
ATOM     14  C   LIG    1       28.378 -18.798   5.086  0.00  0.00    +0.001 A 
ATOM     15  C   LIG    1       27.249 -18.467   4.313  0.00  0.00    +0.011 A 
BRANCH  11  16
ATOM     16  N   LIG    1       27.518 -14.718   4.433  0.00  0.00    +0.080 N 
ATOM     17  O   LIG    1       28.186 -14.126   3.571  0.00  0.00    -0.576 OA
ATOM     18  O   LIG    1       26.756 -14.187   5.251  0.00  0.00    +0.042 OA
ENDBRANCH  11  16
ENDBRANCH   2  10
BRANCH   1  19
ATOM     19  C   LIG    1       25.872 -14.352   2.293  0.00  0.00    +0.337 C 
ATOM     20  O   LIG    1       26.981 -14.487   1.812  0.00  0.00    -0.245 OA
BRANCH  19  22
ATOM     21  C   LIG    1       25.688 -12.042   1.990  0.00  0.00    +0.280 C 
ATOM     22  O   LIG    1       25.036 -13.314   2.048  0.00  0.00    -0.465 OA
ENDBRANCH  19  22
ENDBRANCH   1  19
BRANCH   3  23
ATOM     23  C   LIG    1       24.325 -19.026   2.936  0.00  0.00    +0.338 C 
ATOM     24  O   LIG    1       24.943 -19.315   1.926  0.00  0.00    -0.245 OA
BRANCH  23  25
ATOM     25  O   LIG    1       23.427 -19.845   3.524  0.00  0.00    -0.454 OA
BRANCH  25  26
ATOM     26  C   LIG    1       23.922 -21.107   3.966  0.00  0.00    +0.306 C 
BRANCH  26  27
ATOM     27  C   LIG    1       24.381 -21.043   5.415  0.00  0.00    +0.168 C 
ATOM     28  O   LIG    1       25.578 -21.025   5.720  0.00  0.00    -0.294 OA
ATOM     29  C   LIG    1       23.308 -21.044   6.467  0.00  0.00    +0.090 C 
ENDBRANCH  26  27
ENDBRANCH  25  26
ENDBRANCH  23  25
ENDBRANCH   3  23
TORSDOF 8
ENDMDL
MODEL 3
REMARK VINA RESULT:       4.2      1.339      2.248
REMARK  Name = *****
REMARK                            x       y       z     vdW  Elec       q    Type
REMARK                         _______ _______ _______ _____ _____    ______ ____
ROOT
ATOM      1  C   LIG    1       24.318 -13.771   3.558  0.00  0.00    +0.065 C 
ATOM      2  C   LIG    1       24.392 -15.315   3.596  0.00  0.00    +0.102 C 
ATOM      3  C   LIG    1       23.318 -15.880   4.558  0.00  0.00    +0.065 C 
ATOM      4  C   LIG    1       22.866 -15.119   5.589  0.00  0.00    +0.016 C 
ATOM      5  C   LIG    1       21.895 -15.553   6.662  0.00  0.00    +0.061 C 
ATOM      6  N   LIG    1       23.280 -13.794   5.688  0.00  0.00    -0.321 N 
ATOM      7  H   LIG    1       22.762 -13.230   6.362  0.00  0.00    +0.152 HD
ATOM      8  C   LIG    1       23.815 -13.092   4.615  0.00  0.00    +0.016 C 
ATOM      9  C   LIG    1       23.804 -11.588   4.754  0.00  0.00    +0.061 C 
ENDROOT
BRANCH   2  10
ATOM     10  C   LIG    1       25.816 -15.827   3.967  0.00  0.00    +0.042 A 
ATOM     11  C   LIG    1       26.248 -17.170   3.838  0.00  0.00    +0.277 A 
ATOM     12  C   LIG    1       27.543 -17.593   4.208  0.00  0.00    +0.084 A 
ATOM     13  C   LIG    1       28.457 -16.679   4.710  0.00  0.00    +0.007 A 
ATOM     14  C   LIG    1       28.073 -15.353   4.861  0.00  0.00    +0.001 A 
ATOM     15  C   LIG    1       26.775 -14.938   4.510  0.00  0.00    +0.011 A 
BRANCH  11  16
ATOM     16  N   LIG    1       25.413 -18.215   3.267  0.00  0.00    +0.080 N 
ATOM     17  O   LIG    1       25.414 -19.311   3.850  0.00  0.00    -0.576 OA
ATOM     18  O   LIG    1       24.857 -17.968   2.190  0.00  0.00    +0.042 OA
ENDBRANCH  11  16
ENDBRANCH   2  10
BRANCH   1  19
ATOM     19  C   LIG    1       24.688 -13.037   2.316  0.00  0.00    +0.337 C 
ATOM     20  O   LIG    1       24.020 -12.152   1.813  0.00  0.00    -0.245 OA
BRANCH  19  22
ATOM     21  C   LIG    1       27.016 -12.880   2.446  0.00  0.00    +0.280 C 
ATOM     22  O   LIG    1       25.873 -13.487   1.837  0.00  0.00    -0.465 OA
ENDBRANCH  19  22
ENDBRANCH   1  19
BRANCH   3  23
ATOM     23  C   LIG    1       22.746 -17.205   4.188  0.00  0.00    +0.338 C 
ATOM     24  O   LIG    1       22.215 -17.428   3.113  0.00  0.00    -0.245 OA
BRANCH  23  25
ATOM     25  O   LIG    1       22.807 -18.104   5.194  0.00  0.00    -0.454 OA
BRANCH  25  26
ATOM     26  C   LIG    1       22.159 -19.353   4.961  0.00  0.00    +0.306 C 
BRANCH  26  27
ATOM     27  C   LIG    1       23.012 -20.516   5.443  0.00  0.00    +0.168 C 
ATOM     28  O   LIG    1       23.378 -21.416   4.682  0.00  0.00    -0.294 OA
ATOM     29  C   LIG    1       23.359 -20.542   6.906  0.00  0.00    +0.090 C 
ENDBRANCH  26  27
ENDBRANCH  25  26
ENDBRANCH  23  25
ENDBRANCH   3  23
TORSDOF 8
ENDMDL
MODEL 4
REMARK VINA RESULT:       5.5      2.599      6.411
REMARK  Name = *****
REMARK                            x       y       z     vdW  Elec       q    Type
REMARK                         _______ _______ _______ _____ _____    ______ ____
ROOT
ATOM      1  C   LIG    1       22.758 -19.695   5.432  0.00  0.00    +0.065 C 
ATOM      2  C   LIG    1       23.313 -18.280   5.148  0.00  0.00    +0.102 C 
ATOM      3  C   LIG    1       22.198 -17.372   4.572  0.00  0.00    +0.065 C 
ATOM      4  C   LIG    1       21.157 -17.927   3.896  0.00  0.00    +0.016 C 
ATOM      5  C   LIG    1       20.045 -17.180   3.198  0.00  0.00    +0.061 C 
ATOM      6  N   LIG    1       21.041 -19.313   3.845  0.00  0.00    -0.321 N 
ATOM      7  H   LIG    1       20.147 -19.657   3.494  0.00  0.00    +0.152 HD
ATOM      8  C   LIG    1       21.690 -20.155   4.739  0.00  0.00    +0.016 C 
ATOM      9  C   LIG    1       21.134 -21.555   4.832  0.00  0.00    +0.061 C 
ENDROOT
BRANCH   2  10
ATOM     10  C   LIG    1       24.561 -18.313   4.216  0.00  0.00    +0.042 A 
ATOM     11  C   LIG    1       24.956 -19.431   3.440  0.00  0.00    +0.277 A 
ATOM     12  C   LIG    1       26.110 -19.423   2.626  0.00  0.00    +0.084 A 
ATOM     13  C   LIG    1       26.902 -18.288   2.552  0.00  0.00    +0.007 A 
ATOM     14  C   LIG    1       26.556 -17.173   3.302  0.00  0.00    +0.001 A 
ATOM     15  C   LIG    1       25.417 -17.189   4.129  0.00  0.00    +0.011 A 
BRANCH  11  16
ATOM     16  N   LIG    1       24.182 -20.660   3.376  0.00  0.00    +0.080 N 
ATOM     17  O   LIG    1       24.512 -21.570   4.154  0.00  0.00    -0.576 OA
ATOM     18  O   LIG    1       23.332 -20.746   2.482  0.00  0.00    +0.042 OA
ENDBRANCH  11  16
ENDBRANCH   2  10
BRANCH   1  19
ATOM     19  C   LIG    1       23.321 -20.508   6.547  0.00  0.00    +0.337 C 
ATOM     20  O   LIG    1       22.791 -21.498   7.014  0.00  0.00    -0.245 OA
BRANCH  19  22
ATOM     21  C   LIG    1       25.609 -20.895   6.829  0.00  0.00    +0.280 C 
ATOM     22  O   LIG    1       24.507 -19.992   6.954  0.00  0.00    -0.465 OA
ENDBRANCH  19  22
ENDBRANCH   1  19
BRANCH   3  23
ATOM     23  C   LIG    1       22.285 -15.929   4.930  0.00  0.00    +0.338 C 
ATOM     24  O   LIG    1       21.688 -15.437   5.872  0.00  0.00    -0.245 OA
BRANCH  23  25
ATOM     25  O   LIG    1       23.026 -15.215   4.056  0.00  0.00    -0.454 OA
BRANCH  25  26
ATOM     26  C   LIG    1       23.564 -13.988   4.545  0.00  0.00    +0.306 C 
BRANCH  26  27
ATOM     27  C   LIG    1       24.855 -13.625   3.827  0.00  0.00    +0.168 C 
ATOM     28  O   LIG    1       24.884 -13.393   2.615  0.00  0.00    -0.294 OA
ATOM     29  C   LIG    1       26.108 -13.601   4.656  0.00  0.00    +0.090 C 
ENDBRANCH  26  27
ENDBRANCH  25  26
ENDBRANCH  23  25
ENDBRANCH   3  23
TORSDOF 8
ENDMDL
MODEL 5
REMARK VINA RESULT:       5.9      2.056      6.478
REMARK  Name = *****
REMARK                            x       y       z     vdW  Elec       q    Type
REMARK                         _______ _______ _______ _____ _____    ______ ____
ROOT
ATOM      1  C   LIG    1       26.206 -18.147   3.881  0.00  0.00    +0.065 C 
ATOM      2  C   LIG    1       25.501 -16.858   3.397  0.00  0.00    +0.102 C 
ATOM      3  C   LIG    1       26.472 -15.655   3.475  0.00  0.00    +0.065 C 
ATOM      4  C   LIG    1       27.493 -15.667   4.372  0.00  0.00    +0.016 C 
ATOM      5  C   LIG    1       28.465 -14.541   4.636  0.00  0.00    +0.061 C 
ATOM      6  N   LIG    1       27.729 -16.819   5.117  0.00  0.00    -0.321 N 
ATOM      7  H   LIG    1       28.615 -16.830   5.623  0.00  0.00    +0.152 HD
ATOM      8  C   LIG    1       27.243 -18.066   4.747  0.00  0.00    +0.016 C 
ATOM      9  C   LIG    1       27.930 -19.247   5.389  0.00  0.00    +0.061 C 
ENDROOT
BRANCH   2  10
ATOM     10  C   LIG    1       24.182 -16.580   4.177  0.00  0.00    +0.042 A 
ATOM     11  C   LIG    1       23.094 -17.484   4.266  0.00  0.00    +0.277 A 
ATOM     12  C   LIG    1       21.907 -17.179   4.966  0.00  0.00    +0.084 A 
ATOM     13  C   LIG    1       21.773 -15.960   5.614  0.00  0.00    +0.007 A 
ATOM     14  C   LIG    1       22.812 -15.042   5.545  0.00  0.00    +0.001 A 
ATOM     15  C   LIG    1       23.987 -15.339   4.829  0.00  0.00    +0.011 A 
BRANCH  11  16
ATOM     16  N   LIG    1       23.127 -18.818   3.688  0.00  0.00    +0.080 N 
ATOM     17  O   LIG    1       23.087 -18.891   2.449  0.00  0.00    -0.576 OA
ATOM     18  O   LIG    1       23.081 -19.773   4.472  0.00  0.00    +0.042 OA
ENDBRANCH  11  16
ENDBRANCH   2  10
BRANCH   1  19
ATOM     19  C   LIG    1       25.822 -19.468   3.308  0.00  0.00    +0.337 C 
ATOM     20  O   LIG    1       25.470 -19.643   2.156  0.00  0.00    -0.245 OA
BRANCH  19  22
ATOM     21  C   LIG    1       24.809 -21.324   4.304  0.00  0.00    +0.280 C 
ATOM     22  O   LIG    1       25.932 -20.439   4.247  0.00  0.00    -0.465 OA
ENDBRANCH  19  22
ENDBRANCH   1  19
BRANCH   3  23
ATOM     23  C   LIG    1       26.288 -14.602   2.437  0.00  0.00    +0.338 C 
ATOM     24  O   LIG    1       27.213 -14.103   1.820  0.00  0.00    -0.245 OA
BRANCH  23  25
ATOM     25  O   LIG    1       25.003 -14.206   2.313  0.00  0.00    -0.454 OA
BRANCH  25  26
ATOM     26  C   LIG    1       24.790 -12.804   2.163  0.00  0.00    +0.306 C 
BRANCH  26  27
ATOM     27  C   LIG    1       24.376 -12.164   3.480  0.00  0.00    +0.168 C 
ATOM     28  O   LIG    1       23.374 -11.448   3.571  0.00  0.00    -0.294 OA
ATOM     29  C   LIG    1       25.268 -12.412   4.664  0.00  0.00    +0.090 C 
ENDBRANCH  26  27
ENDBRANCH  25  26
ENDBRANCH  23  25
ENDBRANCH   3  23
TORSDOF 8
ENDMDL
