MODEL 1
REMARK VINA RESULT:      51.6      0.000      0.000
REMARK  Name = *****
REMARK                            x       y       z     vdW  Elec       q    Type
REMARK                         _______ _______ _______ _____ _____    ______ ____
ROOT
ATOM      1  C   LIG    1       22.733 -13.496   5.242  0.00  0.00    +0.210 C 
ATOM      2  C   LIG    1       22.105 -14.790   5.916  0.00  0.00    +0.126 C 
ATOM      3  C   LIG    1       23.069 -15.471   6.901  0.00  0.00    +0.048 C 
ATOM      4  C   LIG    1       21.577 -15.762   4.805  0.00  0.00    +0.159 C 
ATOM      5  C   LIG    1       21.362 -17.244   5.194  0.00  0.00    +0.084 C 
ATOM      6  C   LIG    1       20.203 -17.461   6.159  0.00  0.00    +0.018 C 
ATOM      7  C   LIG    1       21.148 -18.028   3.886  0.00  0.00    +0.142 C 
ATOM      8  O   LIG    1       20.249 -17.689   3.109  0.00  0.00    -0.297 OA
ATOM      9  C   LIG    1       22.084 -19.209   3.540  0.00  0.00    +0.055 C 
ATOM     10  C   LIG    1       21.864 -20.285   4.595  0.00  0.00    +0.015 C 
ATOM     11  C   LIG    1       23.536 -18.691   3.284  0.00  0.00    +0.048 C 
ATOM     12  C   LIG    1       24.778 -19.672   3.227  0.00  0.00    +0.093 C 
ATOM     13  C   LIG    1       24.960 -20.356   4.609  0.00  0.00    +0.044 C 
ATOM     14  C   LIG    1       26.214 -18.907   2.844  0.00  0.00    +0.158 C 
ATOM     15  C   LIG    1       26.455 -17.695   3.820  0.00  0.00    +0.047 C 
ATOM     16  C   LIG    1       27.512 -17.851   4.923  0.00  0.00    +0.013 C 
ATOM     17  C   LIG    1       26.245 -16.219   3.205  0.00  0.00    +0.140 C 
ATOM     18  C   LIG    1       25.630 -15.391   4.358  0.00  0.00    +0.124 C 
ATOM     19  C   LIG    1       26.592 -14.709   5.327  0.00  0.00    +0.022 C 
ATOM     20  C   LIG    1       24.484 -14.504   3.903  0.00  0.00    +0.313 C 
ATOM     21  O   LIG    1       23.839 -14.639   2.895  0.00  0.00    -0.250 OA
ATOM     22  O   LIG    1       24.126 -13.745   4.968  0.00  0.00    -0.458 OA
ENDROOT
BRANCH   1  24
ATOM     23  C   LIG    1       24.149 -11.665   6.432  0.00  0.00    +0.007 C 
ATOM     24  C   LIG    1       22.775 -12.221   6.111  0.00  0.00    +0.044 C 
ENDBRANCH   1  24
BRANCH   2  25
ATOM     25  O   LIG    1       20.953 -14.431   6.691  0.00  0.00    -0.383 OA
ATOM     26  H   LIG    1       21.321 -14.038   7.512  0.00  0.00    +0.210 HD
ENDBRANCH   2  25
BRANCH   4  27
ATOM     27  O   LIG    1       20.347 -15.177   4.322  0.00  0.00    -0.388 OA
ATOM     28  H   LIG    1       19.615 -15.744   4.654  0.00  0.00    +0.210 HD
ENDBRANCH   4  27
BRANCH  12  29
ATOM     29  O   LIG    1       24.470 -20.776   2.352  0.00  0.00    -0.374 OA
ATOM     30  C   LIG    1       23.313 -21.541   2.638  0.00  0.00    +0.195 C 
ENDBRANCH  12  29
BRANCH  14  31
ATOM     31  O   LIG    1       27.247 -19.913   2.934  0.00  0.00    -0.342 OA
BRANCH  31  32
ATOM     32  C   LIG    1       27.381 -20.671   4.145  0.00  0.00    +0.281 C 
ATOM     33  C   LIG    1       28.755 -20.328   4.811  0.00  0.00    +0.187 C 
ATOM     34  C   LIG    1       28.618 -19.572   6.162  0.00  0.00    +0.092 C 
ATOM     35  C   LIG    1       27.564 -20.256   7.062  0.00  0.00    +0.053 C 
ATOM     36  C   LIG    1       26.557 -21.110   6.288  0.00  0.00    +0.120 C 
ATOM     37  C   LIG    1       25.256 -21.250   7.062  0.00  0.00    +0.038 C 
ATOM     38  O   LIG    1       26.275 -20.498   5.028  0.00  0.00    -0.346 OA
BRANCH  34  39
ATOM     39  N   LIG    1       28.502 -18.098   6.017  0.00  0.00    -0.303 NA
ATOM     40  C   LIG    1       29.286 -17.333   6.985  0.00  0.00    +0.105 C 
ATOM     41  C   LIG    1       28.804 -17.630   4.665  0.00  0.00    +0.105 C 
ENDBRANCH  34  39
BRANCH  33  42
ATOM     42  O   LIG    1       29.464 -21.571   5.081  0.00  0.00    -0.385 OA
ATOM     43  H   LIG    1       29.178 -22.207   4.401  0.00  0.00    +0.210 HD
ENDBRANCH  33  42
ENDBRANCH  31  32
ENDBRANCH  14  31
BRANCH  17  44
ATOM     44  O   LIG    1       27.420 -15.588   2.634  0.00  0.00    -0.347 OA
BRANCH  44  45
ATOM     45  C   LIG    1       27.575 -14.150   2.909  0.00  0.00    +0.254 C 
ATOM     46  O   LIG    1       28.945 -13.747   2.941  0.00  0.00    -0.346 OA
ATOM     47  C   LIG    1       29.187 -12.348   3.211  0.00  0.00    +0.150 C 
ATOM     48  C   LIG    1       28.869 -11.448   2.020  0.00  0.00    +0.040 C 
ATOM     49  C   LIG    1       28.544 -11.883   4.535  0.00  0.00    +0.175 C 
ATOM     50  C   LIG    1       27.059 -12.311   4.681  0.00  0.00    +0.099 C 
ATOM     51  C   LIG    1       26.086 -11.450   3.851  0.00  0.00    +0.044 C 
ATOM     52  C   LIG    1       26.923 -13.803   4.265  0.00  0.00    +0.098 C 
BRANCH  49  53
ATOM     53  O   LIG    1       29.324 -12.456   5.606  0.00  0.00    -0.386 OA
ATOM     54  H   LIG    1       28.736 -13.051   6.105  0.00  0.00    +0.210 HD
ENDBRANCH  49  53
BRANCH  50  55
ATOM     55  O   LIG    1       26.611 -12.242   6.062  0.00  0.00    -0.374 OA
ATOM     56  C   LIG    1       26.853 -13.383   6.882  0.00  0.00    +0.195 C 
ENDBRANCH  50  55
ENDBRANCH  44  45
ENDBRANCH  17  44
TORSDOF 12
ENDMDL
