MODEL 1
REMARK VINA RESULT:      -5.6      0.000      0.000
REMARK  Name = *****
REMARK                            x       y       z     vdW  Elec       q    Type
REMARK                         _______ _______ _______ _____ _____    ______ ____
ROOT
ATOM      1  C   LIG    1       26.050 -21.250   5.603  0.00  0.00    +0.053 C 
ENDROOT
BRANCH   1   2
ATOM      2  C   LIG    1       24.827 -20.459   5.195  0.00  0.00    -0.046 A 
ATOM      3  C   LIG    1       24.849 -19.672   4.033  0.00  0.00    +0.003 A 
ATOM      4  C   LIG    1       23.729 -18.926   3.658  0.00  0.00    +0.000 A 
ATOM      5  C   LIG    1       22.576 -18.960   4.435  0.00  0.00    +0.000 A 
ATOM      6  C   LIG    1       22.543 -19.730   5.597  0.00  0.00    +0.000 A 
ATOM      7  C   LIG    1       23.665 -20.472   5.977  0.00  0.00    +0.003 A 
ENDBRANCH   1   2
BRANCH   1   9
ATOM      8  C   LIG    1       28.160 -21.264   7.062  0.00  0.00    +0.024 C 
ATOM      9  C   LIG    1       27.185 -20.418   6.242  0.00  0.00    +0.052 C 
BRANCH   9  10
ATOM     10  N   LIG    1       27.935 -19.721   5.183  0.00  0.00    -0.327 NA
ATOM     11  H   LIG    1       28.455 -20.402   4.631  0.00  0.00    +0.118 HD
ATOM     12  H   LIG    1       27.283 -19.278   4.536  0.00  0.00    +0.118 HD
ENDBRANCH   9  10
ENDBRANCH   1   9
TORSDOF 3
ENDMDL
MODEL 2
REMARK VINA RESULT:      -5.6      0.173      1.535
REMARK  Name = *****
REMARK                            x       y       z     vdW  Elec       q    Type
REMARK                         _______ _______ _______ _____ _____    ______ ____
ROOT
ATOM      1  C   LIG    1       25.861 -21.258   5.627  0.00  0.00    +0.053 C 
ENDROOT
BRANCH   1   2
ATOM      2  C   LIG    1       24.661 -20.439   5.205  0.00  0.00    -0.046 A 
ATOM      3  C   LIG    1       23.478 -20.480   5.958  0.00  0.00    +0.003 A 
ATOM      4  C   LIG    1       22.360 -19.740   5.566  0.00  0.00    +0.000 A 
ATOM      5  C   LIG    1       22.411 -18.950   4.422  0.00  0.00    +0.000 A 
ATOM      6  C   LIG    1       23.578 -18.908   3.659  0.00  0.00    +0.000 A 
ATOM      7  C   LIG    1       24.695 -19.653   4.046  0.00  0.00    +0.003 A 
ENDBRANCH   1   2
BRANCH   1   9
ATOM      8  C   LIG    1       27.986 -21.317   7.062  0.00  0.00    +0.024 C 
ATOM      9  C   LIG    1       27.018 -20.450   6.256  0.00  0.00    +0.052 C 
BRANCH   9  10
ATOM     10  N   LIG    1       27.769 -19.764   5.191  0.00  0.00    -0.327 NA
ATOM     11  H   LIG    1       27.137 -19.161   4.664  0.00  0.00    +0.118 HD
ATOM     12  H   LIG    1       28.463 -19.142   5.606  0.00  0.00    +0.118 HD
ENDBRANCH   9  10
ENDBRANCH   1   9
TORSDOF 3
ENDMDL
MODEL 3
REMARK VINA RESULT:      -5.6      1.408      2.294
REMARK  Name = *****
REMARK                            x       y       z     vdW  Elec       q    Type
REMARK                         _______ _______ _______ _____ _____    ______ ____
ROOT
ATOM      1  C   LIG    1       26.858 -20.443   7.033  0.00  0.00    +0.053 C 
ENDROOT
BRANCH   1   2
ATOM      2  C   LIG    1       25.554 -20.496   6.267  0.00  0.00    -0.046 A 
ATOM      3  C   LIG    1       24.346 -20.719   6.944  0.00  0.00    +0.003 A 
ATOM      4  C   LIG    1       23.140 -20.786   6.242  0.00  0.00    +0.000 A 
ATOM      5  C   LIG    1       23.126 -20.628   4.861  0.00  0.00    +0.000 A 
ATOM      6  C   LIG    1       24.321 -20.415   4.174  0.00  0.00    +0.000 A 
ATOM      7  C   LIG    1       25.529 -20.354   4.874  0.00  0.00    +0.003 A 
ENDBRANCH   1   2
BRANCH   1   9
ATOM      8  C   LIG    1       28.831 -19.127   6.055  0.00  0.00    +0.024 C 
ATOM      9  C   LIG    1       28.133 -20.484   6.161  0.00  0.00    +0.052 C 
BRANCH   9  10
ATOM     10  N   LIG    1       29.079 -21.462   6.726  0.00  0.00    -0.327 NA
ATOM     11  H   LIG    1       28.594 -22.052   7.401  0.00  0.00    +0.118 HD
ATOM     12  H   LIG    1       29.404 -22.090   5.991  0.00  0.00    +0.118 HD
ENDBRANCH   9  10
ENDBRANCH   1   9
TORSDOF 3
ENDMDL
MODEL 4
REMARK VINA RESULT:      -5.3      2.200      4.668
REMARK  Name = *****
REMARK                            x       y       z     vdW  Elec       q    Type
REMARK                         _______ _______ _______ _____ _____    ______ ____
ROOT
ATOM      1  C   LIG    1       24.153 -20.443   4.239  0.00  0.00    +0.053 C 
ENDROOT
BRANCH   1   2
ATOM      2  C   LIG    1       25.395 -20.514   5.100  0.00  0.00    -0.046 A 
ATOM      3  C   LIG    1       25.411 -21.316   6.252  0.00  0.00    +0.003 A 
ATOM      4  C   LIG    1       26.547 -21.374   7.062  0.00  0.00    +0.000 A 
ATOM      5  C   LIG    1       27.679 -20.637   6.731  0.00  0.00    +0.000 A 
ATOM      6  C   LIG    1       27.673 -19.828   5.595  0.00  0.00    +0.000 A 
ATOM      7  C   LIG    1       26.535 -19.764   4.787  0.00  0.00    +0.003 A 
ENDBRANCH   1   2
BRANCH   1   9
ATOM      8  C   LIG    1       22.219 -18.776   4.482  0.00  0.00    +0.024 C 
ATOM      9  C   LIG    1       22.855 -20.071   4.990  0.00  0.00    +0.052 C 
BRANCH   9  10
ATOM     10  N   LIG    1       21.880 -21.166   4.850  0.00  0.00    -0.327 NA
ATOM     11  H   LIG    1       22.375 -22.052   4.761  0.00  0.00    +0.118 HD
ATOM     12  H   LIG    1       21.325 -21.242   5.702  0.00  0.00    +0.118 HD
ENDBRANCH   9  10
ENDBRANCH   1   9
TORSDOF 3
ENDMDL
MODEL 5
REMARK VINA RESULT:      -5.3      2.192      4.424
REMARK  Name = *****
REMARK                            x       y       z     vdW  Elec       q    Type
REMARK                         _______ _______ _______ _____ _____    ______ ____
ROOT
ATOM      1  C   LIG    1       24.222 -20.473   4.335  0.00  0.00    +0.053 C 
ENDROOT
BRANCH   1   2
ATOM      2  C   LIG    1       25.481 -20.493   5.174  0.00  0.00    -0.046 A 
ATOM      3  C   LIG    1       26.582 -19.700   4.813  0.00  0.00    +0.003 A 
ATOM      4  C   LIG    1       27.754 -19.726   5.572  0.00  0.00    +0.000 A 
ATOM      5  C   LIG    1       27.841 -20.537   6.698  0.00  0.00    +0.000 A 
ATOM      6  C   LIG    1       26.757 -21.337   7.062  0.00  0.00    +0.000 A 
ATOM      7  C   LIG    1       25.586 -21.317   6.300  0.00  0.00    +0.003 A 
ENDBRANCH   1   2
BRANCH   1   9
ATOM      8  C   LIG    1       22.332 -18.794   4.769  0.00  0.00    +0.024 C 
ATOM      9  C   LIG    1       22.922 -20.162   5.112  0.00  0.00    +0.052 C 
BRANCH   9  10
ATOM     10  N   LIG    1       21.919 -21.200   4.818  0.00  0.00    -0.327 NA
ATOM     11  H   LIG    1       20.985 -20.798   4.888  0.00  0.00    +0.118 HD
ATOM     12  H   LIG    1       22.017 -21.509   3.851  0.00  0.00    +0.118 HD
ENDBRANCH   9  10
ENDBRANCH   1   9
TORSDOF 3
ENDMDL
MODEL 6
REMARK VINA RESULT:      -4.8      6.002      7.071
REMARK  Name = *****
REMARK                            x       y       z     vdW  Elec       q    Type
REMARK                         _______ _______ _______ _____ _____    ______ ____
ROOT
ATOM      1  C   LIG    1       25.975 -15.147   3.335  0.00  0.00    +0.053 C 
ENDROOT
BRANCH   1   2
ATOM      2  C   LIG    1       25.206 -13.846   3.274  0.00  0.00    -0.046 A 
ATOM      3  C   LIG    1       24.562 -13.352   4.419  0.00  0.00    +0.003 A 
ATOM      4  C   LIG    1       23.836 -12.160   4.367  0.00  0.00    +0.000 A 
ATOM      5  C   LIG    1       23.747 -11.447   3.177  0.00  0.00    +0.000 A 
ATOM      6  C   LIG    1       24.374 -11.932   2.029  0.00  0.00    +0.000 A 
ATOM      7  C   LIG    1       25.096 -13.127   2.077  0.00  0.00    +0.003 A 
ENDBRANCH   1   2
BRANCH   1   9
ATOM      8  C   LIG    1       27.896 -13.689   4.212  0.00  0.00    +0.024 C 
ATOM      9  C   LIG    1       27.502 -14.998   3.525  0.00  0.00    +0.052 C 
BRANCH   9  10
ATOM     10  N   LIG    1       28.005 -16.126   4.328  0.00  0.00    -0.327 NA
ATOM     11  H   LIG    1       27.323 -16.884   4.313  0.00  0.00    +0.118 HD
ATOM     12  H   LIG    1       28.849 -16.503   3.898  0.00  0.00    +0.118 HD
ENDBRANCH   9  10
ENDBRANCH   1   9
TORSDOF 3
ENDMDL
MODEL 7
REMARK VINA RESULT:      -4.8      6.606      7.418
REMARK  Name = *****
REMARK                            x       y       z     vdW  Elec       q    Type
REMARK                         _______ _______ _______ _____ _____    ______ ____
ROOT
ATOM      1  C   LIG    1       26.593 -14.541   3.704  0.00  0.00    +0.053 C 
ENDROOT
BRANCH   1   2
ATOM      2  C   LIG    1       25.572 -13.467   3.402  0.00  0.00    -0.046 A 
ATOM      3  C   LIG    1       25.491 -12.911   2.116  0.00  0.00    +0.003 A 
ATOM      4  C   LIG    1       24.562 -11.907   1.833  0.00  0.00    +0.000 A 
ATOM      5  C   LIG    1       23.704 -11.449   2.827  0.00  0.00    +0.000 A 
ATOM      6  C   LIG    1       23.780 -11.986   4.112  0.00  0.00    +0.000 A 
ATOM      7  C   LIG    1       24.713 -12.986   4.398  0.00  0.00    +0.003 A 
ENDBRANCH   1   2
BRANCH   1   9
ATOM      8  C   LIG    1       28.702 -13.082   3.764  0.00  0.00    +0.024 C 
ATOM      9  C   LIG    1       27.816 -14.071   4.522  0.00  0.00    +0.052 C 
BRANCH   9  10
ATOM     10  N   LIG    1       27.354 -13.436   5.769  0.00  0.00    -0.327 NA
ATOM     11  H   LIG    1       28.159 -13.103   6.298  0.00  0.00    +0.118 HD
ATOM     12  H   LIG    1       26.804 -12.607   5.548  0.00  0.00    +0.118 HD
ENDBRANCH   9  10
ENDBRANCH   1   9
TORSDOF 3
ENDMDL
MODEL 8
REMARK VINA RESULT:      -4.5      1.879      3.423
REMARK  Name = *****
REMARK                            x       y       z     vdW  Elec       q    Type
REMARK                         _______ _______ _______ _____ _____    ______ ____
ROOT
ATOM      1  C   LIG    1       25.208 -19.978   3.426  0.00  0.00    +0.053 C 
ENDROOT
BRANCH   1   2
ATOM      2  C   LIG    1       24.588 -20.515   4.697  0.00  0.00    -0.046 A 
ATOM      3  C   LIG    1       25.330 -20.544   5.888  0.00  0.00    +0.003 A 
ATOM      4  C   LIG    1       24.771 -21.054   7.062  0.00  0.00    +0.000 A 
ATOM      5  C   LIG    1       23.467 -21.537   7.062  0.00  0.00    +0.000 A 
ATOM      6  C   LIG    1       22.721 -21.523   5.883  0.00  0.00    +0.000 A 
ATOM      7  C   LIG    1       23.281 -21.019   4.707  0.00  0.00    +0.003 A 
ENDBRANCH   1   2
BRANCH   1   9
ATOM      8  C   LIG    1       23.833 -17.901   4.037  0.00  0.00    +0.024 C 
ATOM      9  C   LIG    1       24.917 -18.489   3.133  0.00  0.00    +0.052 C 
BRANCH   9  10
ATOM     10  N   LIG    1       26.154 -17.707   3.305  0.00  0.00    -0.327 NA
ATOM     11  H   LIG    1       26.032 -17.041   4.066  0.00  0.00    +0.118 HD
ATOM     12  H   LIG    1       26.912 -18.324   3.594  0.00  0.00    +0.118 HD
ENDBRANCH   9  10
ENDBRANCH   1   9
TORSDOF 3
ENDMDL
MODEL 9
REMARK VINA RESULT:      -4.4      5.191      6.170
REMARK  Name = *****
REMARK                            x       y       z     vdW  Elec       q    Type
REMARK                         _______ _______ _______ _____ _____    ______ ____
ROOT
ATOM      1  C   LIG    1       27.185 -15.171   3.368  0.00  0.00    +0.053 C 
ENDROOT
BRANCH   1   2
ATOM      2  C   LIG    1       26.039 -14.183   3.339  0.00  0.00    -0.046 A 
ATOM      3  C   LIG    1       25.743 -13.479   2.162  0.00  0.00    +0.003 A 
ATOM      4  C   LIG    1       24.698 -12.553   2.132  0.00  0.00    +0.000 A 
ATOM      5  C   LIG    1       23.935 -12.323   3.272  0.00  0.00    +0.000 A 
ATOM      6  C   LIG    1       24.225 -13.009   4.451  0.00  0.00    +0.000 A 
ATOM      7  C   LIG    1       25.275 -13.931   4.485  0.00  0.00    +0.003 A 
ENDBRANCH   1   2
BRANCH   1   9
ATOM      8  C   LIG    1       25.888 -17.375   3.171  0.00  0.00    +0.024 C 
ATOM      9  C   LIG    1       26.857 -16.538   4.007  0.00  0.00    +0.052 C 
BRANCH   9  10
ATOM     10  N   LIG    1       28.103 -17.301   4.194  0.00  0.00    -0.327 NA
ATOM     11  H   LIG    1       28.902 -16.676   4.091  0.00  0.00    +0.118 HD
ATOM     12  H   LIG    1       28.149 -17.655   5.149  0.00  0.00    +0.118 HD
ENDBRANCH   9  10
ENDBRANCH   1   9
TORSDOF 3
ENDMDL
