MODEL 1
REMARK VINA RESULT:      -5.1      0.000      0.000
REMARK  Name = *****
REMARK                            x       y       z     vdW  Elec       q    Type
REMARK                         _______ _______ _______ _____ _____    ______ ____
ROOT
ATOM      1  C   UNK A  1       27.268 -19.657   5.494  0.00  0.00    +0.114 C 
ATOM      2  C   UNK A  1       27.511 -18.586   4.719  0.00  0.00    +0.003 C 
ENDROOT
BRANCH   1   4
ATOM      3  C   UNK A  0       25.221 -20.747   4.600  0.00  0.00    +0.221 C 
ATOM      4  N   UNK A  1       26.112 -20.421   5.612  0.00  0.00    -0.280 N 
ATOM      5  H   UNK A  1       25.753 -20.499   6.550  0.00  0.00    +0.155 HD
ATOM      6  O   UNK A  0       25.316 -20.426   3.447  0.00  0.00    -0.275 OA
BRANCH   3   9
ATOM      7  C   UNK A  0       22.402 -19.288   4.753  0.00  0.00    +0.011 C 
ATOM      8  C   UNK A  0       22.601 -20.719   5.198  0.00  0.00    -0.023 C 
ATOM      9  C   UNK A  0       23.962 -21.425   5.063  0.00  0.00    +0.082 C 
ATOM     10  C   UNK A  0       23.445 -20.985   6.420  0.00  0.00    +0.020 C 
ATOM     11  C   UNK A  0       21.350 -21.552   5.041  0.00  0.00    +0.011 C 
ENDBRANCH   3   9
ENDBRANCH   1   4
BRANCH   1  12
ATOM     12  C   UNK A  1       28.437 -20.179   6.290  0.00  0.00    +0.351 C 
ATOM     13  O   UNK A  1       28.461 -21.262   6.847  0.00  0.00    -0.244 OA
BRANCH  12  14
ATOM     14  O   UNK A  1       29.475 -19.320   6.375  0.00  0.00    -0.476 OA
ATOM     15  H   UNK A  1       29.275 -18.593   5.753  0.00  0.00    +0.295 HD
ENDBRANCH  12  14
ENDBRANCH   1  12
BRANCH   2  16
ATOM     16  C   UNK A  1       26.697 -17.861   3.691  0.00  0.00    +0.029 C 
BRANCH  16  17
ATOM     17  C   UNK A  1       27.060 -16.379   3.622  0.00  0.00    +0.005 C 
BRANCH  17  18
ATOM     18  C   UNK A  1       25.956 -15.527   2.970  0.00  0.00    +0.011 C 
BRANCH  18  19
ATOM     19  C   UNK A  1       24.801 -15.186   3.924  0.00  0.00    +0.069 C 
BRANCH  19  20
ATOM     20  S   UNK A  1       24.549 -13.366   4.045  0.00  0.00    -0.159 S 
BRANCH  20  21
ATOM     21  C   UNK A  1       26.279 -12.821   3.757  0.00  0.00    +0.099 C 
BRANCH  21  22
ATOM     22  C   UNK A  1       27.313 -13.416   4.743  0.00  0.00    +0.170 C 
BRANCH  22  23
ATOM     23  N   UNK A  1       27.056 -13.286   6.200  0.00  0.00    -0.318 NA
ATOM     24  H   UNK A  1       26.772 -14.188   6.586  0.00  0.00    +0.119 HD
ATOM     25  H   UNK A  1       26.237 -12.683   6.332  0.00  0.00    +0.119 HD
ENDBRANCH  22  23
BRANCH  22  26
ATOM     26  C   UNK A  1       28.686 -12.769   4.472  0.00  0.00    +0.323 C 
ATOM     27  O   UNK A  1       29.435 -13.039   3.546  0.00  0.00    -0.249 OA
BRANCH  26  28
ATOM     28  O   UNK A  1       28.991 -11.837   5.415  0.00  0.00    -0.479 OA
ATOM     29  H   UNK A  1       28.325 -11.894   6.134  0.00  0.00    +0.295 HD
ENDBRANCH  26  28
ENDBRANCH  22  26
ENDBRANCH  21  22
ENDBRANCH  20  21
ENDBRANCH  19  20
ENDBRANCH  18  19
ENDBRANCH  17  18
ENDBRANCH  16  17
ENDBRANCH   2  16
TORSDOF 14
ENDMDL
MODEL 2
REMARK VINA RESULT:      -4.5      3.056      7.210
REMARK  Name = *****
REMARK                            x       y       z     vdW  Elec       q    Type
REMARK                         _______ _______ _______ _____ _____    ______ ____
ROOT
ATOM      1  C   UNK A  1       24.402 -16.147   3.941  0.00  0.00    +0.114 C 
ATOM      2  C   UNK A  1       24.263 -17.484   3.916  0.00  0.00    +0.003 C 
ENDROOT
BRANCH   1   4
ATOM      3  C   UNK A  0       26.793 -15.579   3.573  0.00  0.00    +0.221 C 
ATOM      4  N   UNK A  1       25.430 -15.354   3.444  0.00  0.00    -0.280 N 
ATOM      5  H   UNK A  1       25.164 -14.407   3.225  0.00  0.00    +0.155 HD
ATOM      6  O   UNK A  0       27.304 -16.511   4.131  0.00  0.00    -0.275 OA
BRANCH   3   9
ATOM      7  C   UNK A  0       27.655 -13.137   5.416  0.00  0.00    +0.011 C 
ATOM      8  C   UNK A  0       28.046 -13.232   3.958  0.00  0.00    -0.023 C 
ATOM      9  C   UNK A  0       27.666 -14.450   3.098  0.00  0.00    +0.082 C 
ATOM     10  C   UNK A  0       26.966 -13.117   2.912  0.00  0.00    +0.020 C 
ATOM     11  C   UNK A  0       29.354 -12.535   3.664  0.00  0.00    +0.011 C 
ENDBRANCH   3   9
ENDBRANCH   1   4
BRANCH   1  12
ATOM     12  C   UNK A  1       23.239 -15.368   4.502  0.00  0.00    +0.351 C 
ATOM     13  O   UNK A  1       22.339 -15.857   5.160  0.00  0.00    -0.244 OA
BRANCH  12  14
ATOM     14  O   UNK A  1       23.247 -14.056   4.182  0.00  0.00    -0.476 OA
ATOM     15  H   UNK A  1       22.957 -14.004   3.250  0.00  0.00    +0.295 HD
ENDBRANCH  12  14
ENDBRANCH   1  12
BRANCH   2  16
ATOM     16  C   UNK A  1       25.088 -18.587   3.329  0.00  0.00    +0.029 C 
BRANCH  16  17
ATOM     17  C   UNK A  1       24.368 -19.933   3.400  0.00  0.00    +0.005 C 
BRANCH  17  18
ATOM     18  C   UNK A  1       25.120 -20.964   4.260  0.00  0.00    +0.011 C 
BRANCH  18  19
ATOM     19  C   UNK A  1       24.419 -21.281   5.590  0.00  0.00    +0.069 C 
BRANCH  19  20
ATOM     20  S   UNK A  1       25.640 -21.563   6.939  0.00  0.00    -0.159 S 
BRANCH  20  21
ATOM     21  C   UNK A  1       26.700 -20.087   6.675  0.00  0.00    +0.099 C 
BRANCH  21  22
ATOM     22  C   UNK A  1       28.136 -20.406   6.190  0.00  0.00    +0.170 C 
BRANCH  22  23
ATOM     23  N   UNK A  1       28.976 -21.309   7.018  0.00  0.00    -0.318 NA
ATOM     24  H   UNK A  1       29.930 -21.331   6.651  0.00  0.00    +0.119 HD
ATOM     25  H   UNK A  1       28.635 -22.268   6.900  0.00  0.00    +0.119 HD
ENDBRANCH  22  23
BRANCH  22  26
ATOM     26  C   UNK A  1       28.913 -19.083   6.041  0.00  0.00    +0.323 C 
ATOM     27  O   UNK A  1       29.473 -18.476   6.940  0.00  0.00    -0.249 OA
BRANCH  26  28
ATOM     28  O   UNK A  1       28.899 -18.642   4.754  0.00  0.00    -0.479 OA
ATOM     29  H   UNK A  1       29.827 -18.572   4.440  0.00  0.00    +0.295 HD
ENDBRANCH  26  28
ENDBRANCH  22  26
ENDBRANCH  21  22
ENDBRANCH  20  21
ENDBRANCH  19  20
ENDBRANCH  18  19
ENDBRANCH  17  18
ENDBRANCH  16  17
ENDBRANCH   2  16
TORSDOF 14
ENDMDL
MODEL 3
REMARK VINA RESULT:      -4.2      1.796      4.115
REMARK  Name = *****
REMARK                            x       y       z     vdW  Elec       q    Type
REMARK                         _______ _______ _______ _____ _____    ______ ____
ROOT
ATOM      1  C   UNK A  1       23.267 -19.634   5.207  0.00  0.00    +0.114 C 
ATOM      2  C   UNK A  1       22.640 -18.705   4.464  0.00  0.00    +0.003 C 
ENDROOT
BRANCH   1   4
ATOM      3  C   UNK A  0       25.535 -20.555   5.635  0.00  0.00    +0.221 C 
ATOM      4  N   UNK A  1       24.535 -19.604   5.776  0.00  0.00    -0.280 N 
ATOM      5  H   UNK A  1       24.625 -18.992   6.572  0.00  0.00    +0.155 HD
ATOM      6  O   UNK A  0       25.465 -21.560   4.982  0.00  0.00    -0.275 OA
BRANCH   3   9
ATOM      7  C   UNK A  0       28.251 -19.239   4.636  0.00  0.00    +0.011 C 
ATOM      8  C   UNK A  0       28.073 -19.766   6.042  0.00  0.00    -0.023 C 
ATOM      9  C   UNK A  0       26.732 -20.348   6.523  0.00  0.00    +0.082 C 
ATOM     10  C   UNK A  0       27.917 -21.253   6.241  0.00  0.00    +0.020 C 
ATOM     11  C   UNK A  0       28.929 -19.032   7.047  0.00  0.00    +0.011 C 
ENDBRANCH   3   9
ENDBRANCH   1   4
BRANCH   1  12
ATOM     12  C   UNK A  1       22.460 -20.855   5.564  0.00  0.00    +0.351 C 
ATOM     13  O   UNK A  1       22.543 -21.449   6.624  0.00  0.00    -0.244 OA
BRANCH  12  14
ATOM     14  O   UNK A  1       21.636 -21.279   4.581  0.00  0.00    -0.476 OA
ATOM     15  H   UNK A  1       22.117 -21.992   4.115  0.00  0.00    +0.295 HD
ENDBRANCH  12  14
ENDBRANCH   1  12
BRANCH   2  16
ATOM     16  C   UNK A  1       23.014 -17.323   4.024  0.00  0.00    +0.029 C 
BRANCH  16  17
ATOM     17  C   UNK A  1       22.471 -16.258   4.976  0.00  0.00    +0.005 C 
BRANCH  17  18
ATOM     18  C   UNK A  1       23.262 -14.941   4.907  0.00  0.00    +0.011 C 
BRANCH  18  19
ATOM     19  C   UNK A  1       23.720 -14.573   3.486  0.00  0.00    +0.069 C 
BRANCH  19  20
ATOM     20  S   UNK A  1       24.291 -12.825   3.399  0.00  0.00    -0.159 S 
BRANCH  20  21
ATOM     21  C   UNK A  1       26.077 -13.125   3.094  0.00  0.00    +0.099 C 
BRANCH  21  22
ATOM     22  C   UNK A  1       26.862 -13.636   4.327  0.00  0.00    +0.170 C 
BRANCH  22  23
ATOM     23  N   UNK A  1       26.354 -13.292   5.680  0.00  0.00    -0.318 NA
ATOM     24  H   UNK A  1       25.490 -12.752   5.601  0.00  0.00    +0.119 HD
ATOM     25  H   UNK A  1       27.017 -12.648   6.122  0.00  0.00    +0.119 HD
ENDBRANCH  22  23
BRANCH  22  26
ATOM     26  C   UNK A  1       28.309 -13.108   4.246  0.00  0.00    +0.323 C 
ATOM     27  O   UNK A  1       29.159 -13.470   3.447  0.00  0.00    -0.249 OA
BRANCH  26  28
ATOM     28  O   UNK A  1       28.550 -12.171   5.202  0.00  0.00    -0.479 OA
ATOM     29  H   UNK A  1       29.453 -12.316   5.558  0.00  0.00    +0.295 HD
ENDBRANCH  26  28
ENDBRANCH  22  26
ENDBRANCH  21  22
ENDBRANCH  20  21
ENDBRANCH  19  20
ENDBRANCH  18  19
ENDBRANCH  17  18
ENDBRANCH  16  17
ENDBRANCH   2  16
TORSDOF 14
ENDMDL
MODEL 4
REMARK VINA RESULT:      -3.2      2.241      2.684
REMARK  Name = *****
REMARK                            x       y       z     vdW  Elec       q    Type
REMARK                         _______ _______ _______ _____ _____    ______ ____
ROOT
ATOM      1  C   UNK A  1       27.772 -19.226   5.351  0.00  0.00    +0.114 C 
ATOM      2  C   UNK A  1       28.190 -17.998   4.998  0.00  0.00    +0.003 C 
ENDROOT
BRANCH   1   4
ATOM      3  C   UNK A  0       25.675 -20.458   5.862  0.00  0.00    +0.221 C 
ATOM      4  N   UNK A  1       26.609 -19.902   4.999  0.00  0.00    -0.280 N 
ATOM      5  H   UNK A  1       26.596 -20.256   4.056  0.00  0.00    +0.155 HD
ATOM      6  O   UNK A  0       25.720 -20.432   7.061  0.00  0.00    -0.275 OA
BRANCH   3   9
ATOM      7  C   UNK A  0       22.882 -19.293   4.887  0.00  0.00    +0.011 C 
ATOM      8  C   UNK A  0       23.238 -20.758   4.767  0.00  0.00    -0.023 C 
ATOM      9  C   UNK A  0       24.617 -21.292   5.193  0.00  0.00    +0.082 C 
ATOM     10  C   UNK A  0       23.382 -21.572   6.029  0.00  0.00    +0.020 C 
ATOM     11  C   UNK A  0       22.547 -21.426   3.601  0.00  0.00    +0.011 C 
ENDBRANCH   3   9
ENDBRANCH   1   4
BRANCH   1  12
ATOM     12  C   UNK A  1       28.736 -20.044   6.172  0.00  0.00    +0.351 C 
ATOM     13  O   UNK A  1       29.449 -19.591   7.049  0.00  0.00    -0.244 OA
BRANCH  12  14
ATOM     14  O   UNK A  1       28.780 -21.351   5.833  0.00  0.00    -0.476 OA
ATOM     15  H   UNK A  1       27.858 -21.609   5.633  0.00  0.00    +0.295 HD
ENDBRANCH  12  14
ENDBRANCH   1  12
BRANCH   2  16
ATOM     16  C   UNK A  1       27.625 -16.947   4.092  0.00  0.00    +0.029 C 
BRANCH  16  17
ATOM     17  C   UNK A  1       28.433 -15.652   4.154  0.00  0.00    +0.005 C 
BRANCH  17  18
ATOM     18  C   UNK A  1       27.682 -14.454   3.546  0.00  0.00    +0.011 C 
BRANCH  18  19
ATOM     19  C   UNK A  1       27.463 -13.300   4.536  0.00  0.00    +0.069 C 
BRANCH  19  20
ATOM     20  S   UNK A  1       26.009 -13.616   5.621  0.00  0.00    -0.159 S 
BRANCH  20  21
ATOM     21  C   UNK A  1       24.877 -12.331   4.959  0.00  0.00    +0.099 C 
BRANCH  21  22
ATOM     22  C   UNK A  1       23.941 -12.820   3.826  0.00  0.00    +0.170 C 
BRANCH  22  23
ATOM     23  N   UNK A  1       23.753 -14.283   3.649  0.00  0.00    -0.318 NA
ATOM     24  H   UNK A  1       24.660 -14.753   3.640  0.00  0.00    +0.119 HD
ATOM     25  H   UNK A  1       23.370 -14.449   2.712  0.00  0.00    +0.119 HD
ENDBRANCH  22  23
BRANCH  22  26
ATOM     26  C   UNK A  1       24.460 -12.270   2.483  0.00  0.00    +0.323 C 
ATOM     27  O   UNK A  1       25.548 -12.511   1.983  0.00  0.00    -0.249 OA
BRANCH  26  28
ATOM     28  O   UNK A  1       23.547 -11.449   1.897  0.00  0.00    -0.479 OA
ATOM     29  H   UNK A  1       23.927 -10.545   1.852  0.00  0.00    +0.295 HD
ENDBRANCH  26  28
ENDBRANCH  22  26
ENDBRANCH  21  22
ENDBRANCH  20  21
ENDBRANCH  19  20
ENDBRANCH  18  19
ENDBRANCH  17  18
ENDBRANCH  16  17
ENDBRANCH   2  16
TORSDOF 14
ENDMDL
MODEL 5
REMARK VINA RESULT:      -3.2      3.153      7.800
REMARK  Name = *****
REMARK                            x       y       z     vdW  Elec       q    Type
REMARK                         _______ _______ _______ _____ _____    ______ ____
ROOT
ATOM      1  C   UNK A  1       24.706 -15.953   3.739  0.00  0.00    +0.114 C 
ATOM      2  C   UNK A  1       24.676 -17.297   3.690  0.00  0.00    +0.003 C 
ENDROOT
BRANCH   1   4
ATOM      3  C   UNK A  0       27.097 -15.293   3.602  0.00  0.00    +0.221 C 
ATOM      4  N   UNK A  1       25.739 -15.078   3.424  0.00  0.00    -0.280 N 
ATOM      5  H   UNK A  1       25.459 -14.115   3.326  0.00  0.00    +0.155 HD
ATOM      6  O   UNK A  0       27.600 -16.286   4.052  0.00  0.00    -0.275 OA
BRANCH   3   9
ATOM      7  C   UNK A  0       27.390 -12.877   5.646  0.00  0.00    +0.011 C 
ATOM      8  C   UNK A  0       28.074 -12.887   4.298  0.00  0.00    -0.023 C 
ATOM      9  C   UNK A  0       27.965 -14.092   3.346  0.00  0.00    +0.082 C 
ATOM     10  C   UNK A  0       27.222 -12.801   3.055  0.00  0.00    +0.020 C 
ATOM     11  C   UNK A  0       29.361 -12.095   4.297  0.00  0.00    +0.011 C 
ENDBRANCH   3   9
ENDBRANCH   1   4
BRANCH   1  12
ATOM     12  C   UNK A  1       23.409 -15.273   4.098  0.00  0.00    +0.351 C 
ATOM     13  O   UNK A  1       22.514 -15.794   4.739  0.00  0.00    -0.244 OA
BRANCH  12  14
ATOM     14  O   UNK A  1       23.291 -14.019   3.614  0.00  0.00    -0.476 OA
ATOM     15  H   UNK A  1       24.141 -13.574   3.804  0.00  0.00    +0.295 HD
ENDBRANCH  12  14
ENDBRANCH   1  12
BRANCH   2  16
ATOM     16  C   UNK A  1       25.670 -18.326   3.247  0.00  0.00    +0.029 C 
BRANCH  16  17
ATOM     17  C   UNK A  1       25.482 -19.650   3.986  0.00  0.00    +0.005 C 
BRANCH  17  18
ATOM     18  C   UNK A  1       26.614 -19.939   4.986  0.00  0.00    +0.011 C 
BRANCH  18  19
ATOM     19  C   UNK A  1       26.119 -20.190   6.419  0.00  0.00    +0.069 C 
BRANCH  19  20
ATOM     20  S   UNK A  1       24.903 -21.572   6.474  0.00  0.00    -0.159 S 
BRANCH  20  21
ATOM     21  C   UNK A  1       23.359 -20.587   6.601  0.00  0.00    +0.099 C 
BRANCH  21  22
ATOM     22  C   UNK A  1       22.405 -20.728   5.390  0.00  0.00    +0.170 C 
BRANCH  22  23
ATOM     23  N   UNK A  1       22.837 -21.570   4.245  0.00  0.00    -0.318 NA
ATOM     24  H   UNK A  1       22.570 -22.543   4.407  0.00  0.00    +0.119 HD
ATOM     25  H   UNK A  1       23.861 -21.587   4.224  0.00  0.00    +0.119 HD
ENDBRANCH  22  23
BRANCH  22  26
ATOM     26  C   UNK A  1       22.108 -19.324   4.826  0.00  0.00    +0.323 C 
ATOM     27  O   UNK A  1       21.691 -19.076   3.705  0.00  0.00    -0.249 OA
BRANCH  26  28
ATOM     28  O   UNK A  1       22.381 -18.354   5.740  0.00  0.00    -0.479 OA
ATOM     29  H   UNK A  1       22.039 -17.500   5.397  0.00  0.00    +0.295 HD
ENDBRANCH  26  28
ENDBRANCH  22  26
ENDBRANCH  21  22
ENDBRANCH  20  21
ENDBRANCH  19  20
ENDBRANCH  18  19
ENDBRANCH  17  18
ENDBRANCH  16  17
ENDBRANCH   2  16
TORSDOF 14
ENDMDL
MODEL 6
REMARK VINA RESULT:      -3.1      2.912      7.180
REMARK  Name = *****
REMARK                            x       y       z     vdW  Elec       q    Type
REMARK                         _______ _______ _______ _____ _____    ______ ____
ROOT
ATOM      1  C   UNK A  1       26.712 -16.431   3.748  0.00  0.00    +0.114 C 
ATOM      2  C   UNK A  1       26.689 -17.767   3.593  0.00  0.00    +0.003 C 
ENDROOT
BRANCH   1   4
ATOM      3  C   UNK A  0       25.678 -14.475   2.617  0.00  0.00    +0.221 C 
ATOM      4  N   UNK A  1       25.699 -15.499   3.552  0.00  0.00    -0.280 N 
ATOM      5  H   UNK A  1       25.072 -15.389   4.333  0.00  0.00    +0.155 HD
ATOM      6  O   UNK A  0       26.537 -14.238   1.812  0.00  0.00    -0.275 OA
BRANCH   3   9
ATOM      7  C   UNK A  0       25.028 -12.940   5.323  0.00  0.00    +0.011 C 
ATOM      8  C   UNK A  0       24.173 -12.800   4.084  0.00  0.00    -0.023 C 
ATOM      9  C   UNK A  0       24.537 -13.508   2.767  0.00  0.00    +0.082 C 
ATOM     10  C   UNK A  0       23.377 -13.993   3.617  0.00  0.00    +0.020 C 
ATOM     11  C   UNK A  0       23.491 -11.453   4.002  0.00  0.00    +0.011 C 
ENDBRANCH   3   9
ENDBRANCH   1   4
BRANCH   1  12
ATOM     12  C   UNK A  1       27.986 -15.850   4.305  0.00  0.00    +0.351 C 
ATOM     13  O   UNK A  1       28.260 -14.663   4.301  0.00  0.00    -0.244 OA
BRANCH  12  14
ATOM     14  O   UNK A  1       28.847 -16.770   4.791  0.00  0.00    -0.476 OA
ATOM     15  H   UNK A  1       28.984 -16.541   5.732  0.00  0.00    +0.295 HD
ENDBRANCH  12  14
ENDBRANCH   1  12
BRANCH   2  16
ATOM     16  C   UNK A  1       25.608 -18.735   3.221  0.00  0.00    +0.029 C 
BRANCH  16  17
ATOM     17  C   UNK A  1       25.766 -20.069   3.949  0.00  0.00    +0.005 C 
BRANCH  17  18
ATOM     18  C   UNK A  1       26.547 -19.937   5.267  0.00  0.00    +0.011 C 
BRANCH  18  19
ATOM     19  C   UNK A  1       26.339 -21.120   6.225  0.00  0.00    +0.069 C 
BRANCH  19  20
ATOM     20  S   UNK A  1       24.608 -21.175   6.852  0.00  0.00    -0.159 S 
BRANCH  20  21
ATOM     21  C   UNK A  1       23.726 -21.256   5.244  0.00  0.00    +0.099 C 
BRANCH  21  22
ATOM     22  C   UNK A  1       22.298 -20.658   5.263  0.00  0.00    +0.170 C 
BRANCH  22  23
ATOM     23  N   UNK A  1       21.177 -21.493   4.760  0.00  0.00    -0.318 NA
ATOM     24  H   UNK A  1       21.409 -21.871   3.840  0.00  0.00    +0.119 HD
ATOM     25  H   UNK A  1       20.371 -20.883   4.588  0.00  0.00    +0.119 HD
ENDBRANCH  22  23
BRANCH  22  26
ATOM     26  C   UNK A  1       22.294 -19.358   4.435  0.00  0.00    +0.323 C 
ATOM     27  O   UNK A  1       22.509 -19.271   3.236  0.00  0.00    -0.249 OA
BRANCH  26  28
ATOM     28  O   UNK A  1       22.027 -18.275   5.214  0.00  0.00    -0.479 OA
ATOM     29  H   UNK A  1       21.722 -17.544   4.634  0.00  0.00    +0.295 HD
ENDBRANCH  26  28
ENDBRANCH  22  26
ENDBRANCH  21  22
ENDBRANCH  20  21
ENDBRANCH  19  20
ENDBRANCH  18  19
ENDBRANCH  17  18
ENDBRANCH  16  17
ENDBRANCH   2  16
TORSDOF 14
ENDMDL
MODEL 7
REMARK VINA RESULT:      -2.8      2.367      3.385
REMARK  Name = *****
REMARK                            x       y       z     vdW  Elec       q    Type
REMARK                         _______ _______ _______ _____ _____    ______ ____
ROOT
ATOM      1  C   UNK A  1       25.127 -16.690   3.804  0.00  0.00    +0.114 C 
ATOM      2  C   UNK A  1       24.794 -15.398   3.975  0.00  0.00    +0.003 C 
ENDROOT
BRANCH   1   4
ATOM      3  C   UNK A  0       23.038 -17.993   4.144  0.00  0.00    +0.221 C 
ATOM      4  N   UNK A  1       24.308 -17.798   3.620  0.00  0.00    -0.280 N 
ATOM      5  H   UNK A  1       24.788 -18.632   3.322  0.00  0.00    +0.155 HD
ATOM      6  O   UNK A  0       22.436 -17.220   4.838  0.00  0.00    -0.275 OA
BRANCH   3   9
ATOM      7  C   UNK A  0       23.166 -20.295   6.332  0.00  0.00    +0.011 C 
ATOM      8  C   UNK A  0       22.576 -20.513   4.957  0.00  0.00    -0.023 C 
ATOM      9  C   UNK A  0       22.473 -19.370   3.932  0.00  0.00    +0.082 C 
ATOM     10  C   UNK A  0       23.497 -20.477   3.762  0.00  0.00    +0.020 C 
ATOM     11  C   UNK A  0       21.498 -21.572   4.952  0.00  0.00    +0.011 C 
ENDBRANCH   3   9
ENDBRANCH   1   4
BRANCH   1  12
ATOM     12  C   UNK A  1       26.601 -16.988   3.700  0.00  0.00    +0.351 C 
ATOM     13  O   UNK A  1       27.464 -16.142   3.547  0.00  0.00    -0.244 OA
BRANCH  12  14
ATOM     14  O   UNK A  1       26.904 -18.303   3.753  0.00  0.00    -0.476 OA
ATOM     15  H   UNK A  1       27.602 -18.446   3.084  0.00  0.00    +0.295 HD
ENDBRANCH  12  14
ENDBRANCH   1  12
BRANCH   2  16
ATOM     16  C   UNK A  1       23.485 -14.671   3.982  0.00  0.00    +0.029 C 
BRANCH  16  17
ATOM     17  C   UNK A  1       23.634 -13.237   4.487  0.00  0.00    +0.005 C 
BRANCH  17  18
ATOM     18  C   UNK A  1       24.082 -12.263   3.384  0.00  0.00    +0.011 C 
BRANCH  18  19
ATOM     19  C   UNK A  1       24.411 -12.954   2.051  0.00  0.00    +0.069 C 
BRANCH  19  20
ATOM     20  S   UNK A  1       26.173 -13.484   1.989  0.00  0.00    -0.159 S 
BRANCH  20  21
ATOM     21  C   UNK A  1       26.906 -12.153   3.020  0.00  0.00    +0.099 C 
BRANCH  21  22
ATOM     22  C   UNK A  1       28.271 -12.512   3.657  0.00  0.00    +0.170 C 
BRANCH  22  23
ATOM     23  N   UNK A  1       29.009 -13.689   3.131  0.00  0.00    -0.318 NA
ATOM     24  H   UNK A  1       28.407 -14.514   3.149  0.00  0.00    +0.119 HD
ATOM     25  H   UNK A  1       29.768 -13.913   3.783  0.00  0.00    +0.119 HD
ENDBRANCH  22  23
BRANCH  22  26
ATOM     26  C   UNK A  1       28.066 -12.750   5.167  0.00  0.00    +0.323 C 
ATOM     27  O   UNK A  1       27.213 -13.466   5.669  0.00  0.00    -0.249 OA
BRANCH  26  28
ATOM     28  O   UNK A  1       28.962 -12.044   5.907  0.00  0.00    -0.479 OA
ATOM     29  H   UNK A  1       28.664 -11.110   5.947  0.00  0.00    +0.295 HD
ENDBRANCH  26  28
ENDBRANCH  22  26
ENDBRANCH  21  22
ENDBRANCH  20  21
ENDBRANCH  19  20
ENDBRANCH  18  19
ENDBRANCH  17  18
ENDBRANCH  16  17
ENDBRANCH   2  16
TORSDOF 14
ENDMDL
MODEL 8
REMARK VINA RESULT:      -2.5      2.964      6.950
REMARK  Name = *****
REMARK                            x       y       z     vdW  Elec       q    Type
REMARK                         _______ _______ _______ _____ _____    ______ ____
ROOT
ATOM      1  C   UNK A  1       27.659 -18.544   4.771  0.00  0.00    +0.114 C 
ATOM      2  C   UNK A  1       26.628 -19.361   4.495  0.00  0.00    +0.003 C 
ENDROOT
BRANCH   1   4
ATOM      3  C   UNK A  0       27.004 -16.415   3.670  0.00  0.00    +0.221 C 
ATOM      4  N   UNK A  1       27.874 -17.226   4.382  0.00  0.00    -0.280 N 
ATOM      5  H   UNK A  1       28.841 -16.943   4.371  0.00  0.00    +0.155 HD
ATOM      6  O   UNK A  0       25.910 -16.724   3.282  0.00  0.00    -0.275 OA
BRANCH   3   9
ATOM      7  C   UNK A  0       26.809 -13.748   5.388  0.00  0.00    +0.011 C 
ATOM      8  C   UNK A  0       27.451 -13.787   4.020  0.00  0.00    -0.023 C 
ATOM      9  C   UNK A  0       27.585 -15.100   3.228  0.00  0.00    +0.082 C 
ATOM     10  C   UNK A  0       26.575 -14.045   2.819  0.00  0.00    +0.020 C 
ATOM     11  C   UNK A  0       28.536 -12.748   3.861  0.00  0.00    +0.011 C 
ENDBRANCH   3   9
ENDBRANCH   1   4
BRANCH   1  12
ATOM     12  C   UNK A  1       28.701 -19.086   5.716  0.00  0.00    +0.351 C 
ATOM     13  O   UNK A  1       29.475 -18.396   6.356  0.00  0.00    -0.244 OA
BRANCH  12  14
ATOM     14  O   UNK A  1       28.741 -20.434   5.780  0.00  0.00    -0.476 OA
ATOM     15  H   UNK A  1       28.241 -20.682   6.583  0.00  0.00    +0.295 HD
ENDBRANCH  12  14
ENDBRANCH   1  12
BRANCH   2  16
ATOM     16  C   UNK A  1       25.345 -19.171   3.745  0.00  0.00    +0.029 C 
BRANCH  16  17
ATOM     17  C   UNK A  1       24.979 -20.407   2.925  0.00  0.00    +0.005 C 
BRANCH  17  18
ATOM     18  C   UNK A  1       24.099 -21.399   3.706  0.00  0.00    +0.011 C 
BRANCH  18  19
ATOM     19  C   UNK A  1       24.266 -21.299   5.230  0.00  0.00    +0.069 C 
BRANCH  19  20
ATOM     20  S   UNK A  1       22.925 -20.286   5.985  0.00  0.00    -0.159 S 
BRANCH  20  21
ATOM     21  C   UNK A  1       21.798 -20.186   4.539  0.00  0.00    +0.099 C 
BRANCH  21  22
ATOM     22  C   UNK A  1       21.728 -18.788   3.875  0.00  0.00    +0.170 C 
BRANCH  22  23
ATOM     23  N   UNK A  1       21.992 -17.593   4.716  0.00  0.00    -0.318 NA
ATOM     24  H   UNK A  1       21.267 -17.501   5.430  0.00  0.00    +0.119 HD
ATOM     25  H   UNK A  1       21.882 -16.756   4.134  0.00  0.00    +0.119 HD
ENDBRANCH  22  23
BRANCH  22  26
ATOM     26  C   UNK A  1       20.326 -18.602   3.261  0.00  0.00    +0.323 C 
ATOM     27  O   UNK A  1       20.001 -17.731   2.468  0.00  0.00    -0.249 OA
BRANCH  26  28
ATOM     28  O   UNK A  1       19.454 -19.539   3.720  0.00  0.00    -0.479 OA
ATOM     29  H   UNK A  1       19.533 -20.339   3.157  0.00  0.00    +0.295 HD
ENDBRANCH  26  28
ENDBRANCH  22  26
ENDBRANCH  21  22
ENDBRANCH  20  21
ENDBRANCH  19  20
ENDBRANCH  18  19
ENDBRANCH  17  18
ENDBRANCH  16  17
ENDBRANCH   2  16
TORSDOF 14
ENDMDL
