MODEL 1
REMARK VINA RESULT:       0.6      0.000      0.000
REMARK  Name = *****
REMARK                            x       y       z     vdW  Elec       q    Type
REMARK                         _______ _______ _______ _____ _____    ______ ____
ROOT
ATOM      1  CA  LIG    1       25.547 -20.012   4.162  0.00  0.00    +0.299 C 
ATOM      2  C   LIG    1       24.943 -20.479   5.469  0.00  0.00    +0.253 C 
ATOM      3  O   LIG    1       25.610 -21.092   6.308  0.00  0.00    -0.273 OA
ATOM      4  N   LIG    1       23.616 -20.274   5.725  0.00  0.00    -0.283 N 
ATOM      5  H   LIG    1       23.290 -20.827   6.510  0.00  0.00    +0.155 HD
ATOM      6  C   LIG    1       22.678 -19.624   4.916  0.00  0.00    +0.043 A 
ATOM      7  C   LIG    1       22.984 -18.592   4.019  0.00  0.00    +0.023 A 
ATOM      8  C   LIG    1       21.980 -18.089   3.173  0.00  0.00    +0.032 A 
ATOM      9  C   LIG    1       20.675 -18.563   3.274  0.00  0.00    +0.042 A 
ATOM     10  C   LIG    1       20.351 -19.532   4.215  0.00  0.00    +0.022 A 
ATOM     11 CL   LIG    1       19.451 -17.922   2.250  0.00  0.00    -0.084 Cl
ATOM     12  C   LIG    1       24.324 -17.930   3.984  0.00  0.00    +0.076 C 
ATOM     13  C   LIG    1       21.350 -20.058   5.037  0.00  0.00    +0.025 A 
ATOM     14  N   LIG    1       25.461 -18.544   3.995  0.00  0.00    -0.259 NA
ENDROOT
BRANCH  12  15
ATOM     15  C   LIG    1       24.375 -16.430   3.924  0.00  0.00    +0.001 A 
ATOM     16  C   LIG    1       25.496 -15.804   3.365  0.00  0.00    +0.010 A 
ATOM     17  C   LIG    1       25.565 -14.412   3.306  0.00  0.00    +0.001 A 
ATOM     18  C   LIG    1       24.521 -13.640   3.814  0.00  0.00    +0.000 A 
ATOM     19  C   LIG    1       23.412 -14.256   4.392  0.00  0.00    +0.001 A 
ATOM     20  C   LIG    1       23.339 -15.650   4.454  0.00  0.00    +0.010 A 
ENDBRANCH  12  15
BRANCH   1  22
ATOM     21  O   LIG    1       24.176 -21.572   2.872  0.00  0.00    -0.248 OA
ATOM     22  C   LIG    1       25.057 -20.728   2.919  0.00  0.00    +0.339 C 
BRANCH  22  23
ATOM     23  OXT LIG    1       25.753 -20.338   1.812  0.00  0.00    -0.479 OA
ATOM     24  HXT LIG    1       25.309 -20.719   1.020  0.00  0.00    +0.295 HD
ENDBRANCH  22  23
ENDBRANCH   1  22
TORSDOF 3
ENDMDL
MODEL 2
REMARK VINA RESULT:       2.4      4.391      6.864
REMARK  Name = *****
REMARK                            x       y       z     vdW  Elec       q    Type
REMARK                         _______ _______ _______ _____ _____    ______ ____
ROOT
ATOM      1  CA  LIG    1       23.678 -13.004   3.326  0.00  0.00    +0.299 C 
ATOM      2  C   LIG    1       23.975 -12.390   4.677  0.00  0.00    +0.253 C 
ATOM      3  O   LIG    1       23.309 -11.449   5.120  0.00  0.00    -0.273 OA
ATOM      4  N   LIG    1       25.033 -12.836   5.418  0.00  0.00    -0.283 N 
ATOM      5  H   LIG    1       25.262 -12.202   6.175  0.00  0.00    +0.155 HD
ATOM      6  C   LIG    1       25.923 -13.868   5.104  0.00  0.00    +0.043 A 
ATOM      7  C   LIG    1       25.598 -14.985   4.322  0.00  0.00    +0.023 A 
ATOM      8  C   LIG    1       26.604 -15.905   3.976  0.00  0.00    +0.032 A 
ATOM      9  C   LIG    1       27.898 -15.747   4.464  0.00  0.00    +0.042 A 
ATOM     10  C   LIG    1       28.206 -14.682   5.303  0.00  0.00    +0.022 A 
ATOM     11 CL   LIG    1       29.114 -16.891   4.053  0.00  0.00    -0.084 Cl
ATOM     12  C   LIG    1       24.195 -15.296   3.910  0.00  0.00    +0.076 C 
ATOM     13  C   LIG    1       27.219 -13.748   5.625  0.00  0.00    +0.025 A 
ATOM     14  N   LIG    1       23.354 -14.446   3.422  0.00  0.00    -0.259 NA
ENDROOT
BRANCH  12  15
ATOM     15  C   LIG    1       23.706 -16.708   4.061  0.00  0.00    +0.001 A 
ATOM     16  C   LIG    1       22.446 -16.942   4.625  0.00  0.00    +0.010 A 
ATOM     17  C   LIG    1       21.978 -18.247   4.779  0.00  0.00    +0.001 A 
ATOM     18  C   LIG    1       22.769 -19.323   4.382  0.00  0.00    +0.000 A 
ATOM     19  C   LIG    1       24.035 -19.100   3.840  0.00  0.00    +0.001 A 
ATOM     20  C   LIG    1       24.508 -17.795   3.685  0.00  0.00    +0.010 A 
ENDBRANCH  12  15
BRANCH   1  22
ATOM     21  O   LIG    1       25.513 -13.567   1.812  0.00  0.00    -0.248 OA
ATOM     22  C   LIG    1       24.713 -12.753   2.248  0.00  0.00    +0.339 C 
BRANCH  22  23
ATOM     23  OXT LIG    1       24.681 -11.460   1.816  0.00  0.00    -0.479 OA
ATOM     24  HXT LIG    1       25.608 -11.159   1.678  0.00  0.00    +0.295 HD
ENDBRANCH  22  23
ENDBRANCH   1  22
TORSDOF 3
ENDMDL
MODEL 3
REMARK VINA RESULT:       3.2      4.376      6.596
REMARK  Name = *****
REMARK                            x       y       z     vdW  Elec       q    Type
REMARK                         _______ _______ _______ _____ _____    ______ ____
ROOT
ATOM      1  CA  LIG    1       28.580 -13.897   4.299  0.00  0.00    +0.299 C 
ATOM      2  C   LIG    1       28.308 -13.295   2.937  0.00  0.00    +0.253 C 
ATOM      3  O   LIG    1       29.204 -12.765   2.273  0.00  0.00    -0.273 OA
ATOM      4  N   LIG    1       27.038 -13.280   2.433  0.00  0.00    -0.283 N 
ATOM      5  H   LIG    1       26.950 -12.655   1.639  0.00  0.00    +0.155 HD
ATOM      6  C   LIG    1       25.879 -13.803   3.017  0.00  0.00    +0.043 A 
ATOM      7  C   LIG    1       25.855 -14.902   3.887  0.00  0.00    +0.023 A 
ATOM      8  C   LIG    1       24.647 -15.271   4.504  0.00  0.00    +0.032 A 
ATOM      9  C   LIG    1       23.468 -14.595   4.200  0.00  0.00    +0.042 A 
ATOM     10  C   LIG    1       23.474 -13.553   3.280  0.00  0.00    +0.022 A 
ATOM     11 CL   LIG    1       21.993 -15.071   4.944  0.00  0.00    -0.084 Cl
ATOM     12  C   LIG    1       27.053 -15.766   4.120  0.00  0.00    +0.076 C 
ATOM     13  C   LIG    1       24.676 -13.162   2.687  0.00  0.00    +0.025 A 
ATOM     14  N   LIG    1       28.249 -15.339   4.354  0.00  0.00    -0.259 NA
ENDROOT
BRANCH  12  15
ATOM     15  C   LIG    1       26.869 -17.257   4.092  0.00  0.00    +0.001 A 
ATOM     16  C   LIG    1       25.782 -17.802   3.396  0.00  0.00    +0.010 A 
ATOM     17  C   LIG    1       25.591 -19.183   3.366  0.00  0.00    +0.001 A 
ATOM     18  C   LIG    1       26.476 -20.025   4.038  0.00  0.00    +0.000 A 
ATOM     19  C   LIG    1       27.547 -19.489   4.752  0.00  0.00    +0.001 A 
ATOM     20  C   LIG    1       27.742 -18.106   4.786  0.00  0.00    +0.010 A 
ENDBRANCH  12  15
BRANCH   1  22
ATOM     21  O   LIG    1       27.113 -13.583   6.228  0.00  0.00    -0.248 OA
ATOM     22  C   LIG    1       27.977 -13.159   5.477  0.00  0.00    +0.339 C 
BRANCH  22  23
ATOM     23  OXT LIG    1       28.497 -11.904   5.599  0.00  0.00    -0.479 OA
ATOM     24  HXT LIG    1       28.829 -11.621   4.716  0.00  0.00    +0.295 HD
ENDBRANCH  22  23
ENDBRANCH   1  22
TORSDOF 3
ENDMDL
