MODEL 1
REMARK VINA RESULT:      -5.1      0.000      0.000
REMARK  Name = *****
REMARK                            x       y       z     vdW  Elec       q    Type
REMARK                         _______ _______ _______ _____ _____    ______ ____
ROOT
ATOM      1  O   LIG    1       23.101 -20.997   7.000  0.00  0.00    -0.267 OA
ATOM      2  C   LIG    1       23.737 -20.618   6.026  0.00  0.00    +0.262 C 
ATOM      3  C   LIG    1       25.164 -20.507   5.975  0.00  0.00    +0.102 A 
ATOM      4  C   LIG    1       25.750 -20.072   4.812  0.00  0.00    +0.163 A 
ATOM      5  N   LIG    1       27.092 -20.072   5.050  0.00  0.00    -0.260 N 
ATOM      6  H   LIG    1       27.833 -19.814   4.409  0.00  0.00    +0.191 HD
ATOM      7  N   LIG    1       27.410 -20.476   6.302  0.00  0.00    -0.180 NA
ATOM      8  N   LIG    1       25.142 -19.717   3.655  0.00  0.00    -0.218 NA
ATOM      9  C   LIG    1       23.849 -19.824   3.724  0.00  0.00    +0.201 C 
ATOM     10  C   LIG    1       26.220 -20.742   6.860  0.00  0.00    +0.149 A 
ATOM     11  N   LIG    1       23.138 -20.248   4.833  0.00  0.00    -0.313 N 
ATOM     12  H   LIG    1       22.132 -20.307   4.809  0.00  0.00    +0.170 HD
ENDROOT
TORSDOF 0
ENDMDL
MODEL 2
REMARK VINA RESULT:      -4.8      1.874      2.938
REMARK  Name = *****
REMARK                            x       y       z     vdW  Elec       q    Type
REMARK                         _______ _______ _______ _____ _____    ______ ____
ROOT
ATOM      1  O   LIG    1       27.209 -20.355   6.028  0.00  0.00    -0.267 OA
ATOM      2  C   LIG    1       26.166 -20.316   5.388  0.00  0.00    +0.262 C 
ATOM      3  C   LIG    1       24.893 -20.757   5.873  0.00  0.00    +0.102 A 
ATOM      4  C   LIG    1       23.801 -20.649   5.049  0.00  0.00    +0.163 A 
ATOM      5  N   LIG    1       22.746 -21.131   5.766  0.00  0.00    -0.260 N 
ATOM      6  H   LIG    1       21.778 -21.197   5.472  0.00  0.00    +0.191 HD
ATOM      7  N   LIG    1       23.092 -21.549   7.006  0.00  0.00    -0.180 NA
ATOM      8  N   LIG    1       23.755 -20.164   3.786  0.00  0.00    -0.218 NA
ATOM      9  C   LIG    1       24.920 -19.772   3.365  0.00  0.00    +0.201 C 
ATOM     10  C   LIG    1       24.411 -21.314   7.062  0.00  0.00    +0.149 A 
ATOM     11  N   LIG    1       26.095 -19.827   4.095  0.00  0.00    -0.313 N 
ATOM     12  H   LIG    1       26.963 -19.500   3.700  0.00  0.00    +0.170 HD
ENDROOT
TORSDOF 0
ENDMDL
MODEL 3
REMARK VINA RESULT:      -4.7      1.959      3.601
REMARK  Name = *****
REMARK                            x       y       z     vdW  Elec       q    Type
REMARK                         _______ _______ _______ _____ _____    ______ ____
ROOT
ATOM      1  O   LIG    1       25.368 -19.663   3.226  0.00  0.00    -0.267 OA
ATOM      2  C   LIG    1       25.570 -20.053   4.368  0.00  0.00    +0.262 C 
ATOM      3  C   LIG    1       24.573 -20.620   5.226  0.00  0.00    +0.102 A 
ATOM      4  C   LIG    1       24.940 -21.023   6.486  0.00  0.00    +0.163 A 
ATOM      5  N   LIG    1       23.809 -21.520   7.062  0.00  0.00    -0.260 N 
ATOM      6  H   LIG    1       23.709 -21.913   7.990  0.00  0.00    +0.191 HD
ATOM      7  N   LIG    1       22.728 -21.457   6.250  0.00  0.00    -0.180 NA
ATOM      8  N   LIG    1       26.166 -20.957   7.058  0.00  0.00    -0.218 NA
ATOM      9  C   LIG    1       27.054 -20.438   6.263  0.00  0.00    +0.201 C 
ATOM     10  C   LIG    1       23.208 -20.905   5.126  0.00  0.00    +0.149 A 
ATOM     11  N   LIG    1       26.813 -19.994   4.975  0.00  0.00    -0.313 N 
ATOM     12  H   LIG    1       27.557 -19.604   4.417  0.00  0.00    +0.170 HD
ENDROOT
TORSDOF 0
ENDMDL
MODEL 4
REMARK VINA RESULT:      -4.7      6.952      7.814
REMARK  Name = *****
REMARK                            x       y       z     vdW  Elec       q    Type
REMARK                         _______ _______ _______ _____ _____    ______ ____
ROOT
ATOM      1  O   LIG    1       26.779 -13.594   6.055  0.00  0.00    -0.267 OA
ATOM      2  C   LIG    1       26.600 -13.682   4.847  0.00  0.00    +0.262 C 
ATOM      3  C   LIG    1       25.483 -13.128   4.143  0.00  0.00    +0.102 A 
ATOM      4  C   LIG    1       25.412 -13.296   2.783  0.00  0.00    +0.163 A 
ATOM      5  N   LIG    1       24.267 -12.670   2.391  0.00  0.00    -0.260 N 
ATOM      6  H   LIG    1       23.898 -12.587   1.450  0.00  0.00    +0.191 HD
ATOM      7  N   LIG    1       23.589 -12.108   3.419  0.00  0.00    -0.180 NA
ATOM      8  N   LIG    1       26.287 -13.942   1.976  0.00  0.00    -0.218 NA
ATOM      9  C   LIG    1       27.291 -14.439   2.635  0.00  0.00    +0.201 C 
ATOM     10  C   LIG    1       24.344 -12.394   4.489  0.00  0.00    +0.149 A 
ATOM     11  N   LIG    1       27.480 -14.339   4.002  0.00  0.00    -0.313 N 
ATOM     12  H   LIG    1       28.288 -14.750   4.442  0.00  0.00    +0.170 HD
ENDROOT
TORSDOF 0
ENDMDL
MODEL 5
REMARK VINA RESULT:      -4.6      6.688      7.137
REMARK  Name = *****
REMARK                            x       y       z     vdW  Elec       q    Type
REMARK                         _______ _______ _______ _____ _____    ______ ____
ROOT
ATOM      1  O   LIG    1       23.580 -14.786   4.410  0.00  0.00    -0.267 OA
ATOM      2  C   LIG    1       24.225 -14.033   3.692  0.00  0.00    +0.262 C 
ATOM      3  C   LIG    1       25.653 -14.021   3.594  0.00  0.00    +0.102 A 
ATOM      4  C   LIG    1       26.248 -13.125   2.740  0.00  0.00    +0.163 A 
ATOM      5  N   LIG    1       27.589 -13.343   2.849  0.00  0.00    -0.260 N 
ATOM      6  H   LIG    1       28.335 -12.865   2.357  0.00  0.00    +0.191 HD
ATOM      7  N   LIG    1       27.899 -14.325   3.728  0.00  0.00    -0.180 NA
ATOM      8  N   LIG    1       25.648 -12.210   1.942  0.00  0.00    -0.218 NA
ATOM      9  C   LIG    1       24.353 -12.237   2.048  0.00  0.00    +0.201 C 
ATOM     10  C   LIG    1       26.704 -14.735   4.178  0.00  0.00    +0.149 A 
ATOM     11  N   LIG    1       23.634 -13.088   2.869  0.00  0.00    -0.313 N 
ATOM     12  H   LIG    1       22.627 -13.051   2.895  0.00  0.00    +0.170 HD
ENDROOT
TORSDOF 0
ENDMDL
MODEL 6
REMARK VINA RESULT:      -4.4      1.877      2.508
REMARK  Name = *****
REMARK                            x       y       z     vdW  Elec       q    Type
REMARK                         _______ _______ _______ _____ _____    ______ ____
ROOT
ATOM      1  O   LIG    1       23.996 -20.684   2.991  0.00  0.00    -0.267 OA
ATOM      2  C   LIG    1       23.951 -20.872   4.200  0.00  0.00    +0.262 C 
ATOM      3  C   LIG    1       25.028 -20.613   5.108  0.00  0.00    +0.102 A 
ATOM      4  C   LIG    1       24.838 -20.863   6.444  0.00  0.00    +0.163 A 
ATOM      5  N   LIG    1       26.008 -20.524   7.055  0.00  0.00    -0.260 N 
ATOM      6  H   LIG    1       26.226 -20.572   8.044  0.00  0.00    +0.191 HD
ATOM      7  N   LIG    1       26.948 -20.072   6.192  0.00  0.00    -0.180 NA
ATOM      8  N   LIG    1       23.728 -21.342   7.052  0.00  0.00    -0.218 NA
ATOM      9  C   LIG    1       22.764 -21.572   6.211  0.00  0.00    +0.201 C 
ATOM     10  C   LIG    1       26.336 -20.130   5.000  0.00  0.00    +0.149 A 
ATOM     11  N   LIG    1       22.828 -21.363   4.844  0.00  0.00    -0.313 N 
ATOM     12  H   LIG    1       22.035 -21.563   4.255  0.00  0.00    +0.170 HD
ENDROOT
TORSDOF 0
ENDMDL
MODEL 7
REMARK VINA RESULT:      -4.3      6.112      6.985
REMARK  Name = *****
REMARK                            x       y       z     vdW  Elec       q    Type
REMARK                         _______ _______ _______ _____ _____    ______ ____
ROOT
ATOM      1  O   LIG    1       25.972 -16.793   3.058  0.00  0.00    -0.267 OA
ATOM      2  C   LIG    1       26.320 -15.698   3.481  0.00  0.00    +0.262 C 
ATOM      3  C   LIG    1       25.425 -14.650   3.871  0.00  0.00    +0.102 A 
ATOM      4  C   LIG    1       25.952 -13.471   4.335  0.00  0.00    +0.163 A 
ATOM      5  N   LIG    1       24.885 -12.677   4.632  0.00  0.00    -0.260 N 
ATOM      6  H   LIG    1       24.899 -11.736   5.005  0.00  0.00    +0.191 HD
ATOM      7  N   LIG    1       23.695 -13.272   4.381  0.00  0.00    -0.180 NA
ATOM      8  N   LIG    1       27.258 -13.143   4.483  0.00  0.00    -0.218 NA
ATOM      9  C   LIG    1       28.052 -14.107   4.122  0.00  0.00    +0.201 C 
ATOM     10  C   LIG    1       24.037 -14.482   3.916  0.00  0.00    +0.149 A 
ATOM     11  N   LIG    1       27.648 -15.339   3.638  0.00  0.00    -0.313 N 
ATOM     12  H   LIG    1       28.326 -16.039   3.380  0.00  0.00    +0.170 HD
ENDROOT
TORSDOF 0
ENDMDL
MODEL 8
REMARK VINA RESULT:      -4.3      2.000      3.768
REMARK  Name = *****
REMARK                            x       y       z     vdW  Elec       q    Type
REMARK                         _______ _______ _______ _____ _____    ______ ____
ROOT
ATOM      1  O   LIG    1       25.692 -18.521   3.195  0.00  0.00    -0.267 OA
ATOM      2  C   LIG    1       25.578 -19.316   4.119  0.00  0.00    +0.262 C 
ATOM      3  C   LIG    1       24.335 -19.846   4.593  0.00  0.00    +0.102 A 
ATOM      4  C   LIG    1       24.353 -20.737   5.636  0.00  0.00    +0.163 A 
ATOM      5  N   LIG    1       23.051 -21.070   5.864  0.00  0.00    -0.260 N 
ATOM      6  H   LIG    1       22.690 -21.713   6.559  0.00  0.00    +0.191 HD
ATOM      7  N   LIG    1       22.189 -20.442   5.030  0.00  0.00    -0.180 NA
ATOM      8  N   LIG    1       25.429 -21.207   6.312  0.00  0.00    -0.218 NA
ATOM      9  C   LIG    1       26.545 -20.713   5.867  0.00  0.00    +0.201 C 
ATOM     10  C   LIG    1       22.987 -19.695   4.254  0.00  0.00    +0.149 A 
ATOM     11  N   LIG    1       26.662 -19.809   4.826  0.00  0.00    -0.313 N 
ATOM     12  H   LIG    1       27.567 -19.471   4.536  0.00  0.00    +0.170 HD
ENDROOT
TORSDOF 0
ENDMDL
MODEL 9
REMARK VINA RESULT:      -4.3      1.810      2.641
REMARK  Name = *****
REMARK                            x       y       z     vdW  Elec       q    Type
REMARK                         _______ _______ _______ _____ _____    ______ ____
ROOT
ATOM      1  O   LIG    1       21.769 -18.785   4.383  0.00  0.00    -0.267 OA
ATOM      2  C   LIG    1       22.623 -19.583   4.749  0.00  0.00    +0.262 C 
ATOM      3  C   LIG    1       24.011 -19.511   4.404  0.00  0.00    +0.102 A 
ATOM      4  C   LIG    1       24.862 -20.471   4.890  0.00  0.00    +0.163 A 
ATOM      5  N   LIG    1       26.097 -20.150   4.412  0.00  0.00    -0.260 N 
ATOM      6  H   LIG    1       26.969 -20.639   4.576  0.00  0.00    +0.191 HD
ATOM      7  N   LIG    1       26.095 -19.040   3.638  0.00  0.00    -0.180 NA
ATOM      8  N   LIG    1       24.561 -21.525   5.687  0.00  0.00    -0.218 NA
ATOM      9  C   LIG    1       23.297 -21.572   5.987  0.00  0.00    +0.201 C 
ATOM     10  C   LIG    1       24.811 -18.655   3.641  0.00  0.00    +0.149 A 
ATOM     11  N   LIG    1       22.339 -20.668   5.561  0.00  0.00    -0.313 N 
ATOM     12  H   LIG    1       21.376 -20.770   5.839  0.00  0.00    +0.170 HD
ENDROOT
TORSDOF 0
ENDMDL
