MODEL 1
REMARK VINA RESULT:      27.1      0.000      0.000
REMARK  Name = *****
REMARK                            x       y       z     vdW  Elec       q    Type
REMARK                         _______ _______ _______ _____ _____    ______ ____
ROOT
ATOM      1  O   LIG    1       26.241 -16.877   4.363  0.00  0.00    -0.340 OA
ENDROOT
BRANCH   1   6
ATOM      2  C   LIG    1       25.876 -13.129   4.599  0.00  0.00    +0.178 C 
ATOM      3  C   LIG    1       26.552 -12.821   3.137  0.00  0.00    +0.181 C 
ATOM      4  C   LIG    1       26.847 -14.190   2.470  0.00  0.00    +0.183 C 
ATOM      5  C   LIG    1       25.585 -15.137   2.746  0.00  0.00    +0.205 C 
ATOM      6  C   LIG    1       25.577 -15.595   4.200  0.00  0.00    +0.282 C 
ATOM      7  O   LIG    1       26.175 -14.529   5.042  0.00  0.00    -0.341 OA
BRANCH   2   8
ATOM      8  C   LIG    1       25.721 -12.105   5.976  0.00  0.00    +0.194 C 
BRANCH   8   9
ATOM      9  O   LIG    1       24.391 -11.651   6.551  0.00  0.00    -0.375 OA
BRANCH   9  10
ATOM     10  C   LIG    1       23.062 -11.851   5.904  0.00  0.00    +0.190 C 
BRANCH  10  12
ATOM     11  C   LIG    1       21.658 -13.413   6.953  0.00  0.00    +0.040 C 
ATOM     12  C   LIG    1       22.574 -13.329   5.770  0.00  0.00    +0.137 C 
BRANCH  12  13
ATOM     13  O   LIG    1       22.047 -13.797   4.582  0.00  0.00    -0.390 OA
ATOM     14  H   LIG    1       21.142 -13.450   4.365  0.00  0.00    +0.210 HD
ENDBRANCH  12  13
ENDBRANCH  10  12
ENDBRANCH   9  10
ENDBRANCH   8   9
ENDBRANCH   2   8
BRANCH   3  15
ATOM     15  O   LIG    1       25.871 -12.175   1.979  0.00  0.00    -0.369 OA
BRANCH  15  16
ATOM     16  C   LIG    1       24.561 -11.561   1.835  0.00  0.00    +0.191 C 
BRANCH  16  17
ATOM     17  C   LIG    1       23.526 -11.880   2.962  0.00  0.00    +0.137 C 
ATOM     18  C   LIG    1       23.768 -11.468   4.388  0.00  0.00    +0.040 C 
BRANCH  17  19
ATOM     19  O   LIG    1       22.214 -11.470   2.658  0.00  0.00    -0.390 OA
ATOM     20  H   LIG    1       21.542 -12.049   3.079  0.00  0.00    +0.210 HD
ENDBRANCH  17  19
ENDBRANCH  16  17
ENDBRANCH  15  16
ENDBRANCH   3  15
BRANCH   4  21
ATOM     21  O   LIG    1       28.178 -14.740   2.856  0.00  0.00    -0.369 OA
BRANCH  21  22
ATOM     22  C   LIG    1       28.898 -13.951   3.845  0.00  0.00    +0.191 C 
BRANCH  22  23
ATOM     23  C   LIG    1       29.040 -12.428   3.571  0.00  0.00    +0.137 C 
ATOM     24  C   LIG    1       28.319 -11.626   4.671  0.00  0.00    +0.040 C 
BRANCH  23  25
ATOM     25  O   LIG    1       28.434 -12.066   2.332  0.00  0.00    -0.390 OA
ATOM     26  H   LIG    1       27.874 -11.287   2.507  0.00  0.00    +0.210 HD
ENDBRANCH  23  25
ENDBRANCH  22  23
ENDBRANCH  21  22
ENDBRANCH   4  21
BRANCH   5  27
ATOM     27  O   LIG    1       24.247 -14.866   2.252  0.00  0.00    -0.366 OA
BRANCH  27  28
ATOM     28  C   LIG    1       23.027 -15.323   2.821  0.00  0.00    +0.191 C 
BRANCH  28  29
ATOM     29  C   LIG    1       22.934 -16.310   4.057  0.00  0.00    +0.137 C 
ATOM     30  C   LIG    1       21.552 -16.628   4.542  0.00  0.00    +0.040 C 
BRANCH  29  31
ATOM     31  O   LIG    1       23.638 -15.839   5.221  0.00  0.00    -0.390 OA
ATOM     32  H   LIG    1       24.017 -14.974   5.019  0.00  0.00    +0.210 HD
ENDBRANCH  29  31
ENDBRANCH  28  29
ENDBRANCH  27  28
ENDBRANCH   5  27
ENDBRANCH   1   6
BRANCH   1  33
ATOM     33  C   LIG    1       25.566 -18.091   4.841  0.00  0.00    +0.184 C 
ATOM     34  C   LIG    1       26.323 -19.480   4.568  0.00  0.00    +0.178 C 
ATOM     35  O   LIG    1       25.395 -20.571   4.676  0.00  0.00    -0.341 OA
ATOM     36  C   LIG    1       24.664 -20.585   5.900  0.00  0.00    +0.282 C 
ATOM     37  C   LIG    1       23.548 -19.481   5.929  0.00  0.00    +0.205 C 
ATOM     38  C   LIG    1       23.944 -18.216   5.007  0.00  0.00    +0.183 C 
BRANCH  38  39
ATOM     39  O   LIG    1       23.300 -18.101   3.723  0.00  0.00    -0.369 OA
BRANCH  39  40
ATOM     40  C   LIG    1       23.405 -19.072   2.664  0.00  0.00    +0.191 C 
BRANCH  40  41
ATOM     41  C   LIG    1       24.009 -20.514   2.844  0.00  0.00    +0.137 C 
ATOM     42  C   LIG    1       23.423 -21.499   1.812  0.00  0.00    +0.040 C 
BRANCH  41  43
ATOM     43  O   LIG    1       23.811 -21.097   4.126  0.00  0.00    -0.390 OA
ATOM     44  H   LIG    1       23.077 -20.622   4.548  0.00  0.00    +0.210 HD
ENDBRANCH  41  43
ENDBRANCH  40  41
ENDBRANCH  39  40
ENDBRANCH  38  39
BRANCH  37  45
ATOM     45  O   LIG    1       22.184 -19.861   5.654  0.00  0.00    -0.366 OA
BRANCH  45  46
ATOM     46  C   LIG    1       21.202 -19.063   4.996  0.00  0.00    +0.191 C 
BRANCH  46  47
ATOM     47  C   LIG    1       19.960 -19.831   4.503  0.00  0.00    +0.137 C 
ATOM     48  C   LIG    1       20.209 -21.337   4.349  0.00  0.00    +0.040 C 
BRANCH  47  49
ATOM     49  O   LIG    1       19.525 -19.337   3.231  0.00  0.00    -0.390 OA
ATOM     50  H   LIG    1       20.099 -18.592   2.983  0.00  0.00    +0.210 HD
ENDBRANCH  47  49
ENDBRANCH  46  47
ENDBRANCH  45  46
ENDBRANCH  37  45
BRANCH  36  51
ATOM     51  O   LIG    1       25.508 -20.391   7.022  0.00  0.00    -0.346 OA
BRANCH  51  52
ATOM     52  C   LIG    1       26.861 -19.932   6.658  0.00  0.00    +0.194 C 
BRANCH  52  53
ATOM     53  C   LIG    1       27.689 -21.105   6.123  0.00  0.00    +0.137 C 
ATOM     54  C   LIG    1       28.930 -21.441   6.954  0.00  0.00    +0.040 C 
BRANCH  53  55
ATOM     55  O   LIG    1       28.103 -20.717   4.789  0.00  0.00    -0.390 OA
ATOM     56  H   LIG    1       27.359 -20.262   4.361  0.00  0.00    +0.210 HD
ENDBRANCH  53  55
ENDBRANCH  52  53
ENDBRANCH  51  52
ENDBRANCH  36  51
BRANCH  34  57
ATOM     57  C   LIG    1       27.181 -19.707   3.289  0.00  0.00    +0.194 C 
BRANCH  57  58
ATOM     58  O   LIG    1       27.520 -18.597   2.419  0.00  0.00    -0.375 OA
BRANCH  58  59
ATOM     59  C   LIG    1       27.937 -17.420   3.102  0.00  0.00    +0.190 C 
BRANCH  59  60
ATOM     60  C   LIG    1       28.975 -17.643   4.229  0.00  0.00    +0.137 C 
ATOM     61  C   LIG    1       28.457 -18.380   5.467  0.00  0.00    +0.040 C 
BRANCH  60  62
ATOM     62  O   LIG    1       29.415 -16.340   4.650  0.00  0.00    -0.390 OA
ATOM     63  H   LIG    1       29.643 -15.832   3.855  0.00  0.00    +0.210 HD
ENDBRANCH  60  62
ENDBRANCH  59  60
ENDBRANCH  58  59
ENDBRANCH  57  58
ENDBRANCH  34  57
ENDBRANCH   1  33
TORSDOF 36
ENDMDL
MODEL 2
REMARK VINA RESULT:      29.7      1.481      3.104
REMARK  Name = *****
REMARK                            x       y       z     vdW  Elec       q    Type
REMARK                         _______ _______ _______ _____ _____    ______ ____
ROOT
ATOM      1  O   LIG    1       25.347 -16.397   5.895  0.00  0.00    -0.340 OA
ENDROOT
BRANCH   1   6
ATOM      2  C   LIG    1       24.474 -12.990   4.531  0.00  0.00    +0.178 C 
ATOM      3  C   LIG    1       26.026 -12.475   4.412  0.00  0.00    +0.181 C 
ATOM      4  C   LIG    1       26.937 -13.666   4.807  0.00  0.00    +0.183 C 
ATOM      5  C   LIG    1       26.324 -14.982   4.130  0.00  0.00    +0.205 C 
ATOM      6  C   LIG    1       25.060 -15.413   4.865  0.00  0.00    +0.282 C 
ATOM      7  O   LIG    1       24.379 -14.207   5.399  0.00  0.00    -0.341 OA
BRANCH   2   8
ATOM      8  C   LIG    1       23.018 -12.075   4.654  0.00  0.00    +0.194 C 
BRANCH   8   9
ATOM      9  O   LIG    1       22.473 -11.519   5.957  0.00  0.00    -0.375 OA
BRANCH   9  10
ATOM     10  C   LIG    1       21.818 -12.324   7.028  0.00  0.00    +0.190 C 
BRANCH  10  12
ATOM     11  C   LIG    1       20.333 -14.144   7.051  0.00  0.00    +0.040 C 
ATOM     12  C   LIG    1       21.787 -13.872   6.808  0.00  0.00    +0.137 C 
BRANCH  12  13
ATOM     13  O   LIG    1       22.308 -14.435   5.659  0.00  0.00    -0.390 OA
ATOM     14  H   LIG    1       21.697 -15.061   5.191  0.00  0.00    +0.210 HD
ENDBRANCH  12  13
ENDBRANCH  10  12
ENDBRANCH   9  10
ENDBRANCH   8   9
ENDBRANCH   2   8
BRANCH   3  15
ATOM     15  O   LIG    1       26.725 -12.097   3.150  0.00  0.00    -0.369 OA
BRANCH  15  16
ATOM     16  C   LIG    1       28.071 -12.353   2.663  0.00  0.00    +0.191 C 
BRANCH  16  17
ATOM     17  C   LIG    1       29.187 -12.456   3.753  0.00  0.00    +0.137 C 
ATOM     18  C   LIG    1       29.137 -11.626   5.006  0.00  0.00    +0.040 C 
BRANCH  17  19
ATOM     19  O   LIG    1       29.451 -13.773   4.170  0.00  0.00    -0.390 OA
ATOM     20  H   LIG    1       29.669 -14.361   3.414  0.00  0.00    +0.210 HD
ENDBRANCH  17  19
ENDBRANCH  16  17
ENDBRANCH  15  16
ENDBRANCH   3  15
BRANCH   4  21
ATOM     21  O   LIG    1       27.180 -13.736   6.277  0.00  0.00    -0.369 OA
BRANCH  21  22
ATOM     22  C   LIG    1       28.035 -14.837   6.699  0.00  0.00    +0.191 C 
BRANCH  22  23
ATOM     23  C   LIG    1       28.503 -15.834   5.602  0.00  0.00    +0.137 C 
ATOM     24  C   LIG    1       29.473 -16.865   6.208  0.00  0.00    +0.040 C 
BRANCH  23  25
ATOM     25  O   LIG    1       29.212 -15.163   4.562  0.00  0.00    -0.390 OA
ATOM     26  H   LIG    1       28.557 -14.932   3.876  0.00  0.00    +0.210 HD
ENDBRANCH  23  25
ENDBRANCH  22  23
ENDBRANCH  21  22
ENDBRANCH   4  21
BRANCH   5  27
ATOM     27  O   LIG    1       26.214 -15.176   2.696  0.00  0.00    -0.366 OA
BRANCH  27  28
ATOM     28  C   LIG    1       25.087 -14.870   1.885  0.00  0.00    +0.191 C 
BRANCH  28  29
ATOM     29  C   LIG    1       23.624 -14.628   2.446  0.00  0.00    +0.137 C 
ATOM     30  C   LIG    1       22.855 -13.507   1.813  0.00  0.00    +0.040 C 
BRANCH  29  31
ATOM     31  O   LIG    1       23.590 -14.352   3.858  0.00  0.00    -0.390 OA
ATOM     32  H   LIG    1       23.875 -13.439   3.998  0.00  0.00    +0.210 HD
ENDBRANCH  29  31
ENDBRANCH  28  29
ENDBRANCH  27  28
ENDBRANCH   5  27
ENDBRANCH   1   6
BRANCH   1  33
ATOM     33  C   LIG    1       25.441 -17.841   5.641  0.00  0.00    +0.184 C 
ATOM     34  C   LIG    1       26.789 -18.353   4.935  0.00  0.00    +0.178 C 
ATOM     35  O   LIG    1       26.578 -19.653   4.363  0.00  0.00    -0.341 OA
ATOM     36  C   LIG    1       26.053 -20.607   5.282  0.00  0.00    +0.282 C 
ATOM     37  C   LIG    1       24.530 -20.362   5.576  0.00  0.00    +0.205 C 
ATOM     38  C   LIG    1       24.140 -18.804   5.410  0.00  0.00    +0.183 C 
BRANCH  38  39
ATOM     39  O   LIG    1       23.439 -18.418   4.212  0.00  0.00    -0.369 OA
BRANCH  39  40
ATOM     40  C   LIG    1       22.711 -17.185   4.050  0.00  0.00    +0.191 C 
BRANCH  40  41
ATOM     41  C   LIG    1       21.168 -17.104   3.748  0.00  0.00    +0.137 C 
ATOM     42  C   LIG    1       20.353 -16.915   5.043  0.00  0.00    +0.040 C 
BRANCH  41  43
ATOM     43  O   LIG    1       20.623 -18.236   3.081  0.00  0.00    -0.390 OA
ATOM     44  H   LIG    1       19.894 -18.570   3.629  0.00  0.00    +0.210 HD
ENDBRANCH  41  43
ENDBRANCH  40  41
ENDBRANCH  39  40
ENDBRANCH  38  39
BRANCH  37  45
ATOM     45  O   LIG    1       23.549 -21.173   4.898  0.00  0.00    -0.366 OA
BRANCH  45  46
ATOM     46  C   LIG    1       22.390 -20.699   4.215  0.00  0.00    +0.191 C 
BRANCH  46  47
ATOM     47  C   LIG    1       21.071 -21.394   4.609  0.00  0.00    +0.137 C 
ATOM     48  C   LIG    1       19.827 -20.612   4.165  0.00  0.00    +0.040 C 
BRANCH  47  49
ATOM     49  O   LIG    1       20.986 -21.563   6.028  0.00  0.00    -0.390 OA
ATOM     50  H   LIG    1       20.190 -21.099   6.341  0.00  0.00    +0.210 HD
ENDBRANCH  47  49
ENDBRANCH  46  47
ENDBRANCH  45  46
ENDBRANCH  37  45
BRANCH  36  51
ATOM     51  O   LIG    1       26.750 -20.593   6.516  0.00  0.00    -0.346 OA
BRANCH  51  52
ATOM     52  C   LIG    1       27.892 -21.525   6.546  0.00  0.00    +0.194 C 
BRANCH  52  53
ATOM     53  C   LIG    1       29.195 -20.771   6.264  0.00  0.00    +0.137 C 
ATOM     54  C   LIG    1       29.359 -19.465   7.046  0.00  0.00    +0.040 C 
BRANCH  53  55
ATOM     55  O   LIG    1       29.177 -20.474   4.844  0.00  0.00    -0.390 OA
ATOM     56  H   LIG    1       29.136 -19.510   4.737  0.00  0.00    +0.210 HD
ENDBRANCH  53  55
ENDBRANCH  52  53
ENDBRANCH  51  52
ENDBRANCH  36  51
BRANCH  34  57
ATOM     57  C   LIG    1       27.544 -17.485   3.887  0.00  0.00    +0.194 C 
BRANCH  57  58
ATOM     58  O   LIG    1       27.602 -17.891   2.495  0.00  0.00    -0.375 OA
BRANCH  58  59
ATOM     59  C   LIG    1       26.338 -17.950   1.846  0.00  0.00    +0.190 C 
BRANCH  59  60
ATOM     60  C   LIG    1       25.524 -19.243   2.102  0.00  0.00    +0.137 C 
ATOM     61  C   LIG    1       24.015 -19.128   1.877  0.00  0.00    +0.040 C 
BRANCH  60  62
ATOM     62  O   LIG    1       25.733 -19.598   3.480  0.00  0.00    -0.390 OA
ATOM     63  H   LIG    1       25.011 -20.190   3.747  0.00  0.00    +0.210 HD
ENDBRANCH  60  62
ENDBRANCH  59  60
ENDBRANCH  58  59
ENDBRANCH  57  58
ENDBRANCH  34  57
ENDBRANCH   1  33
TORSDOF 36
ENDMDL
