MODEL 1
REMARK VINA RESULT:      -1.8      0.000      0.000
REMARK  Name = *****
REMARK                            x       y       z     vdW  Elec       q    Type
REMARK                         _______ _______ _______ _____ _____    ______ ____
ROOT
ATOM      1  C   LIG    1       24.308 -15.820   3.895  0.00  0.00    +0.039 A 
ATOM      2  C   LIG    1       25.136 -16.962   3.871  0.00  0.00    +0.056 A 
ATOM      3  C   LIG    1       26.619 -16.808   3.773  0.00  0.00    +0.196 C 
ATOM      4  C   LIG    1       27.453 -17.862   4.376  0.00  0.00    +0.036 A 
ATOM      5  C   LIG    1       26.915 -19.128   4.527  0.00  0.00    +0.051 A 
ATOM      6  C   LIG    1       25.547 -19.404   4.064  0.00  0.00    +0.198 C 
ATOM      7  O   LIG    1       25.220 -20.532   3.738  0.00  0.00    -0.286 OA
ATOM      8  C   LIG    1       27.689 -20.102   5.127  0.00  0.00    +0.123 A 
ATOM      9  N   LIG    1       28.944 -19.867   5.589  0.00  0.00    -0.263 NA
ATOM     10  C   LIG    1       29.448 -18.623   5.413  0.00  0.00    +0.111 A 
ATOM     11  C   LIG    1       28.751 -17.594   4.805  0.00  0.00    +0.032 A 
ATOM     12  O   LIG    1       27.148 -15.840   3.248  0.00  0.00    -0.286 OA
ATOM     13  C   LIG    1       24.600 -18.258   4.029  0.00  0.00    +0.056 A 
ATOM     14  C   LIG    1       23.214 -18.466   4.203  0.00  0.00    +0.039 A 
ATOM     15  C   LIG    1       22.409 -17.322   4.242  0.00  0.00    +0.025 A 
ATOM     16  C   LIG    1       22.940 -16.038   4.075  0.00  0.00    +0.025 A 
ENDROOT
BRANCH   1  17
ATOM     17  N   LIG    1       24.854 -14.542   3.932  0.00  0.00    -0.342 N 
ATOM     18  H   LIG    1       25.880 -14.529   3.969  0.00  0.00    +0.146 HD
BRANCH  17  19
ATOM     19  C   LIG    1       24.196 -13.360   3.394  0.00  0.00    +0.116 C 
BRANCH  19  20
ATOM     20  C   LIG    1       24.960 -12.844   2.161  0.00  0.00    +0.096 C 
BRANCH  20  21
ATOM     21  N   LIG    1       26.348 -13.306   2.118  0.00  0.00    -0.329 NA
ATOM     22  H   LIG    1       26.707 -13.403   3.068  0.00  0.00    +0.118 HD
ATOM     23  H   LIG    1       26.370 -14.242   1.714  0.00  0.00    +0.118 HD
ENDBRANCH  20  21
ENDBRANCH  19  20
ENDBRANCH  17  19
ENDBRANCH   1  17
BRANCH  14  24
ATOM     24  N   LIG    1       22.688 -19.732   4.512  0.00  0.00    -0.342 N 
ATOM     25  H   LIG    1       21.861 -19.940   3.942  0.00  0.00    +0.146 HD
BRANCH  24  26
ATOM     26  C   LIG    1       22.545 -20.140   5.919  0.00  0.00    +0.116 C 
BRANCH  26  27
ATOM     27  C   LIG    1       23.101 -21.561   6.147  0.00  0.00    +0.096 C 
BRANCH  27  28
ATOM     28  N   LIG    1       24.520 -21.571   6.507  0.00  0.00    -0.329 NA
ATOM     29  H   LIG    1       24.859 -20.613   6.581  0.00  0.00    +0.118 HD
ATOM     30  H   LIG    1       24.625 -21.993   7.430  0.00  0.00    +0.118 HD
ENDBRANCH  27  28
ENDBRANCH  26  27
ENDBRANCH  24  26
ENDBRANCH  14  24
TORSDOF 8
ENDMDL
MODEL 2
REMARK VINA RESULT:      -1.8      1.880      2.280
REMARK  Name = *****
REMARK                            x       y       z     vdW  Elec       q    Type
REMARK                         _______ _______ _______ _____ _____    ______ ____
ROOT
ATOM      1  C   LIG    1       26.613 -16.124   3.713  0.00  0.00    +0.039 A 
ATOM      2  C   LIG    1       26.807 -17.488   4.014  0.00  0.00    +0.056 A 
ATOM      3  C   LIG    1       28.147 -17.971   4.466  0.00  0.00    +0.196 C 
ATOM      4  C   LIG    1       28.182 -19.149   5.350  0.00  0.00    +0.036 A 
ATOM      5  C   LIG    1       27.122 -20.038   5.313  0.00  0.00    +0.051 A 
ATOM      6  C   LIG    1       26.006 -19.810   4.384  0.00  0.00    +0.198 C 
ATOM      7  O   LIG    1       25.338 -20.746   3.979  0.00  0.00    -0.286 OA
ATOM      8  C   LIG    1       27.144 -21.119   6.173  0.00  0.00    +0.123 A 
ATOM      9  N   LIG    1       28.148 -21.337   7.059  0.00  0.00    -0.263 NA
ATOM     10  C   LIG    1       29.177 -20.459   7.061  0.00  0.00    +0.111 A 
ATOM     11  C   LIG    1       29.247 -19.360   6.223  0.00  0.00    +0.032 A 
ATOM     12  O   LIG    1       29.188 -17.412   4.157  0.00  0.00    -0.286 OA
ATOM     13  C   LIG    1       25.733 -18.404   3.985  0.00  0.00    +0.056 A 
ATOM     14  C   LIG    1       24.426 -17.996   3.640  0.00  0.00    +0.039 A 
ATOM     15  C   LIG    1       24.247 -16.636   3.360  0.00  0.00    +0.025 A 
ATOM     16  C   LIG    1       25.315 -15.731   3.380  0.00  0.00    +0.025 A 
ENDROOT
BRANCH   1  17
ATOM     17  N   LIG    1       27.624 -15.194   3.927  0.00  0.00    -0.342 N 
ATOM     18  H   LIG    1       28.521 -15.612   4.200  0.00  0.00    +0.146 HD
BRANCH  17  19
ATOM     19  C   LIG    1       27.667 -13.879   3.302  0.00  0.00    +0.116 C 
BRANCH  19  20
ATOM     20  C   LIG    1       28.710 -12.993   4.006  0.00  0.00    +0.096 C 
BRANCH  20  21
ATOM     21  N   LIG    1       28.261 -12.519   5.317  0.00  0.00    -0.329 NA
ATOM     22  H   LIG    1       29.051 -12.125   5.827  0.00  0.00    +0.118 HD
ATOM     23  H   LIG    1       27.604 -11.751   5.180  0.00  0.00    +0.118 HD
ENDBRANCH  20  21
ENDBRANCH  19  20
ENDBRANCH  17  19
ENDBRANCH   1  17
BRANCH  14  24
ATOM     24  N   LIG    1       23.325 -18.862   3.754  0.00  0.00    -0.342 N 
ATOM     25  H   LIG    1       22.812 -18.929   2.868  0.00  0.00    +0.146 HD
BRANCH  24  26
ATOM     26  C   LIG    1       22.448 -18.776   4.932  0.00  0.00    +0.116 C 
BRANCH  26  27
ATOM     27  C   LIG    1       22.500 -20.076   5.762  0.00  0.00    +0.096 C 
BRANCH  27  28
ATOM     28  N   LIG    1       22.510 -21.284   4.934  0.00  0.00    -0.329 NA
ATOM     29  H   LIG    1       21.721 -21.876   5.185  0.00  0.00    +0.118 HD
ATOM     30  H   LIG    1       22.379 -21.017   3.957  0.00  0.00    +0.118 HD
ENDBRANCH  27  28
ENDBRANCH  26  27
ENDBRANCH  24  26
ENDBRANCH  14  24
TORSDOF 8
ENDMDL
MODEL 3
REMARK VINA RESULT:      -0.9      1.865      6.107
REMARK  Name = *****
REMARK                            x       y       z     vdW  Elec       q    Type
REMARK                         _______ _______ _______ _____ _____    ______ ____
ROOT
ATOM      1  C   LIG    1       27.372 -16.040   4.004  0.00  0.00    +0.039 A 
ATOM      2  C   LIG    1       26.000 -16.287   3.791  0.00  0.00    +0.056 A 
ATOM      3  C   LIG    1       25.533 -17.664   3.448  0.00  0.00    +0.196 C 
ATOM      4  C   LIG    1       24.167 -18.038   3.854  0.00  0.00    +0.036 A 
ATOM      5  C   LIG    1       23.231 -17.035   4.040  0.00  0.00    +0.051 A 
ATOM      6  C   LIG    1       23.604 -15.633   3.805  0.00  0.00    +0.198 C 
ATOM      7  O   LIG    1       22.758 -14.813   3.491  0.00  0.00    -0.286 OA
ATOM      8  C   LIG    1       21.964 -17.391   4.457  0.00  0.00    +0.123 A 
ATOM      9  N   LIG    1       21.602 -18.675   4.708  0.00  0.00    -0.263 NA
ATOM     10  C   LIG    1       22.534 -19.635   4.503  0.00  0.00    +0.111 A 
ATOM     11  C   LIG    1       23.821 -19.371   4.068  0.00  0.00    +0.032 A 
ATOM     12  O   LIG    1       26.244 -18.480   2.883  0.00  0.00    -0.286 OA
ATOM     13  C   LIG    1       25.036 -15.274   3.981  0.00  0.00    +0.056 A 
ATOM     14  C   LIG    1       25.405 -13.970   4.379  0.00  0.00    +0.039 A 
ATOM     15  C   LIG    1       26.769 -13.746   4.603  0.00  0.00    +0.025 A 
ATOM     16  C   LIG    1       27.725 -14.749   4.405  0.00  0.00    +0.025 A 
ENDROOT
BRANCH   1  17
ATOM     17  N   LIG    1       28.294 -17.081   4.003  0.00  0.00    -0.342 N 
ATOM     18  H   LIG    1       28.813 -17.175   3.123  0.00  0.00    +0.146 HD
BRANCH  17  19
ATOM     19  C   LIG    1       28.924 -17.611   5.205  0.00  0.00    +0.116 C 
BRANCH  19  20
ATOM     20  C   LIG    1       28.952 -19.148   5.152  0.00  0.00    +0.096 C 
BRANCH  20  21
ATOM     21  N   LIG    1       27.615 -19.744   5.199  0.00  0.00    -0.329 NA
ATOM     22  H   LIG    1       27.326 -20.009   4.258  0.00  0.00    +0.118 HD
ATOM     23  H   LIG    1       27.661 -20.610   5.734  0.00  0.00    +0.118 HD
ENDBRANCH  20  21
ENDBRANCH  19  20
ENDBRANCH  17  19
ENDBRANCH   1  17
BRANCH  14  24
ATOM     24  N   LIG    1       24.448 -12.999   4.718  0.00  0.00    -0.342 N 
ATOM     25  H   LIG    1       23.498 -13.384   4.680  0.00  0.00    +0.146 HD
BRANCH  24  26
ATOM     26  C   LIG    1       24.551 -11.643   4.154  0.00  0.00    +0.116 C 
BRANCH  26  27
ATOM     27  C   LIG    1       23.752 -11.525   2.839  0.00  0.00    +0.096 C 
BRANCH  27  28
ATOM     28  N   LIG    1       24.162 -12.503   1.829  0.00  0.00    -0.329 NA
ATOM     29  H   LIG    1       24.953 -13.041   2.177  0.00  0.00    +0.118 HD
ATOM     30  H   LIG    1       23.399 -13.165   1.681  0.00  0.00    +0.118 HD
ENDBRANCH  27  28
ENDBRANCH  26  27
ENDBRANCH  24  26
ENDBRANCH  14  24
TORSDOF 8
ENDMDL
MODEL 4
REMARK VINA RESULT:      -0.9      1.637      5.693
REMARK  Name = *****
REMARK                            x       y       z     vdW  Elec       q    Type
REMARK                         _______ _______ _______ _____ _____    ______ ____
ROOT
ATOM      1  C   LIG    1       27.545 -17.594   4.110  0.00  0.00    +0.039 A 
ATOM      2  C   LIG    1       26.261 -18.176   4.052  0.00  0.00    +0.056 A 
ATOM      3  C   LIG    1       26.090 -19.636   4.318  0.00  0.00    +0.196 C 
ATOM      4  C   LIG    1       24.799 -20.077   4.876  0.00  0.00    +0.036 A 
ATOM      5  C   LIG    1       23.679 -19.296   4.655  0.00  0.00    +0.051 A 
ATOM      6  C   LIG    1       23.788 -18.068   3.855  0.00  0.00    +0.198 C 
ATOM      7  O   LIG    1       22.820 -17.635   3.253  0.00  0.00    -0.286 OA
ATOM      8  C   LIG    1       22.481 -19.696   5.214  0.00  0.00    +0.123 A 
ATOM      9  N   LIG    1       22.358 -20.810   5.980  0.00  0.00    -0.263 NA
ATOM     10  C   LIG    1       23.469 -21.562   6.165  0.00  0.00    +0.111 A 
ATOM     11  C   LIG    1       24.704 -21.247   5.628  0.00  0.00    +0.032 A 
ATOM     12  O   LIG    1       26.978 -20.451   4.122  0.00  0.00    -0.286 OA
ATOM     13  C   LIG    1       25.110 -17.389   3.832  0.00  0.00    +0.056 A 
ATOM     14  C   LIG    1       25.197 -15.991   3.649  0.00  0.00    +0.039 A 
ATOM     15  C   LIG    1       26.476 -15.428   3.727  0.00  0.00    +0.025 A 
ATOM     16  C   LIG    1       27.618 -16.210   3.935  0.00  0.00    +0.025 A 
ENDROOT
BRANCH   1  17
ATOM     17  N   LIG    1       28.648 -18.337   4.515  0.00  0.00    -0.342 N 
ATOM     18  H   LIG    1       29.182 -18.744   3.739  0.00  0.00    +0.146 HD
BRANCH  17  19
ATOM     19  C   LIG    1       29.359 -18.122   5.768  0.00  0.00    +0.116 C 
BRANCH  19  20
ATOM     20  C   LIG    1       29.069 -19.276   6.745  0.00  0.00    +0.096 C 
BRANCH  20  21
ATOM     21  N   LIG    1       29.114 -20.591   6.101  0.00  0.00    -0.329 NA
ATOM     22  H   LIG    1       29.730 -21.209   6.630  0.00  0.00    +0.118 HD
ATOM     23  H   LIG    1       28.187 -21.011   6.149  0.00  0.00    +0.118 HD
ENDBRANCH  20  21
ENDBRANCH  19  20
ENDBRANCH  17  19
ENDBRANCH   1  17
BRANCH  14  24
ATOM     24  N   LIG    1       24.052 -15.180   3.582  0.00  0.00    -0.342 N 
ATOM     25  H   LIG    1       23.722 -15.081   2.616  0.00  0.00    +0.146 HD
BRANCH  24  26
ATOM     26  C   LIG    1       24.002 -13.923   4.347  0.00  0.00    +0.116 C 
BRANCH  26  27
ATOM     27  C   LIG    1       24.170 -12.700   3.421  0.00  0.00    +0.096 C 
BRANCH  27  28
ATOM     28  N   LIG    1       23.830 -12.985   2.026  0.00  0.00    -0.329 NA
ATOM     29  H   LIG    1       24.496 -13.654   1.643  0.00  0.00    +0.118 HD
ATOM     30  H   LIG    1       22.913 -13.432   1.994  0.00  0.00    +0.118 HD
ENDBRANCH  27  28
ENDBRANCH  26  27
ENDBRANCH  24  26
ENDBRANCH  14  24
TORSDOF 8
ENDMDL
MODEL 5
REMARK VINA RESULT:      -0.0      1.761      5.121
REMARK  Name = *****
REMARK                            x       y       z     vdW  Elec       q    Type
REMARK                         _______ _______ _______ _____ _____    ______ ____
ROOT
ATOM      1  C   LIG    1       27.094 -17.928   4.117  0.00  0.00    +0.039 A 
ATOM      2  C   LIG    1       26.286 -16.772   4.074  0.00  0.00    +0.056 A 
ATOM      3  C   LIG    1       26.917 -15.418   4.095  0.00  0.00    +0.196 C 
ATOM      4  C   LIG    1       26.193 -14.321   3.429  0.00  0.00    +0.036 A 
ATOM      5  C   LIG    1       24.821 -14.424   3.284  0.00  0.00    +0.051 A 
ATOM      6  C   LIG    1       24.113 -15.598   3.815  0.00  0.00    +0.198 C 
ATOM      7  O   LIG    1       22.940 -15.519   4.138  0.00  0.00    -0.286 OA
ATOM      8  C   LIG    1       24.154 -13.410   2.625  0.00  0.00    +0.123 A 
ATOM      9  N   LIG    1       24.786 -12.329   2.101  0.00  0.00    -0.263 NA
ATOM     10  C   LIG    1       26.127 -12.250   2.271  0.00  0.00    +0.111 A 
ATOM     11  C   LIG    1       26.871 -13.209   2.934  0.00  0.00    +0.032 A 
ATOM     12  O   LIG    1       28.005 -15.205   4.608  0.00  0.00    -0.286 OA
ATOM     13  C   LIG    1       24.886 -16.863   3.922  0.00  0.00    +0.056 A 
ATOM     14  C   LIG    1       24.235 -18.113   3.820  0.00  0.00    +0.039 A 
ATOM     15  C   LIG    1       25.053 -19.249   3.846  0.00  0.00    +0.025 A 
ATOM     16  C   LIG    1       26.441 -19.157   4.007  0.00  0.00    +0.025 A 
ENDROOT
BRANCH   1  17
ATOM     17  N   LIG    1       28.480 -17.832   4.073  0.00  0.00    -0.342 N 
ATOM     18  H   LIG    1       28.827 -17.105   3.436  0.00  0.00    +0.146 HD
BRANCH  17  19
ATOM     19  C   LIG    1       29.359 -18.231   5.164  0.00  0.00    +0.116 C 
BRANCH  19  20
ATOM     20  C   LIG    1       28.654 -19.266   6.059  0.00  0.00    +0.096 C 
BRANCH  20  21
ATOM     21  N   LIG    1       29.475 -20.453   6.311  0.00  0.00    -0.329 NA
ATOM     22  H   LIG    1       29.305 -20.792   7.258  0.00  0.00    +0.118 HD
ATOM     23  H   LIG    1       29.171 -21.200   5.686  0.00  0.00    +0.118 HD
ENDBRANCH  20  21
ENDBRANCH  19  20
ENDBRANCH  17  19
ENDBRANCH   1  17
BRANCH  14  24
ATOM     24  N   LIG    1       22.867 -18.214   3.517  0.00  0.00    -0.342 N 
ATOM     25  H   LIG    1       22.534 -17.381   3.021  0.00  0.00    +0.146 HD
BRANCH  24  26
ATOM     26  C   LIG    1       21.927 -18.700   4.540  0.00  0.00    +0.116 C 
BRANCH  26  27
ATOM     27  C   LIG    1       22.530 -19.875   5.338  0.00  0.00    +0.096 C 
BRANCH  27  28
ATOM     28  N   LIG    1       21.984 -21.175   4.943  0.00  0.00    -0.329 NA
ATOM     29  H   LIG    1       21.224 -21.039   4.280  0.00  0.00    +0.118 HD
ATOM     30  H   LIG    1       22.709 -21.704   4.456  0.00  0.00    +0.118 HD
ENDBRANCH  27  28
ENDBRANCH  26  27
ENDBRANCH  24  26
ENDBRANCH  14  24
TORSDOF 8
ENDMDL
MODEL 6
REMARK VINA RESULT:       0.4      1.854      5.527
REMARK  Name = *****
REMARK                            x       y       z     vdW  Elec       q    Type
REMARK                         _______ _______ _______ _____ _____    ______ ____
ROOT
ATOM      1  C   LIG    1       23.211 -19.785   4.646  0.00  0.00    +0.039 A 
ATOM      2  C   LIG    1       23.932 -18.677   4.153  0.00  0.00    +0.056 A 
ATOM      3  C   LIG    1       23.209 -17.430   3.760  0.00  0.00    +0.196 C 
ATOM      4  C   LIG    1       23.939 -16.156   3.877  0.00  0.00    +0.036 A 
ATOM      5  C   LIG    1       25.322 -16.177   3.829  0.00  0.00    +0.051 A 
ATOM      6  C   LIG    1       26.030 -17.451   3.638  0.00  0.00    +0.198 C 
ATOM      7  O   LIG    1       27.136 -17.473   3.126  0.00  0.00    -0.286 OA
ATOM      8  C   LIG    1       26.001 -14.984   3.978  0.00  0.00    +0.123 A 
ATOM      9  N   LIG    1       25.374 -13.798   4.184  0.00  0.00    -0.263 NA
ATOM     10  C   LIG    1       24.021 -13.807   4.211  0.00  0.00    +0.111 A 
ATOM     11  C   LIG    1       23.260 -14.952   4.052  0.00  0.00    +0.032 A 
ATOM     12  O   LIG    1       22.046 -17.432   3.385  0.00  0.00    -0.286 OA
ATOM     13  C   LIG    1       25.342 -18.685   4.103  0.00  0.00    +0.056 A 
ATOM     14  C   LIG    1       26.089 -19.805   4.532  0.00  0.00    +0.039 A 
ATOM     15  C   LIG    1       25.359 -20.889   5.034  0.00  0.00    +0.025 A 
ATOM     16  C   LIG    1       23.960 -20.883   5.074  0.00  0.00    +0.025 A 
ENDROOT
BRANCH   1  17
ATOM     17  N   LIG    1       21.842 -19.703   4.872  0.00  0.00    -0.342 N 
ATOM     18  H   LIG    1       21.536 -18.797   5.245  0.00  0.00    +0.146 HD
BRANCH  17  19
ATOM     19  C   LIG    1       20.850 -20.495   4.158  0.00  0.00    +0.116 C 
BRANCH  19  20
ATOM     20  C   LIG    1       19.538 -19.701   4.021  0.00  0.00    +0.096 C 
BRANCH  20  21
ATOM     21  N   LIG    1       19.590 -18.699   2.955  0.00  0.00    -0.329 NA
ATOM     22  H   LIG    1       19.189 -17.822   3.290  0.00  0.00    +0.118 HD
ATOM     23  H   LIG    1       20.566 -18.498   2.741  0.00  0.00    +0.118 HD
ENDBRANCH  20  21
ENDBRANCH  19  20
ENDBRANCH  17  19
ENDBRANCH   1  17
BRANCH  14  24
ATOM     24  N   LIG    1       27.490 -19.768   4.630  0.00  0.00    -0.342 N 
ATOM     25  H   LIG    1       27.929 -20.308   3.877  0.00  0.00    +0.146 HD
BRANCH  24  26
ATOM     26  C   LIG    1       28.135 -19.959   5.938  0.00  0.00    +0.116 C 
BRANCH  26  27
ATOM     27  C   LIG    1       29.378 -19.056   6.084  0.00  0.00    +0.096 C 
BRANCH  27  28
ATOM     28  N   LIG    1       29.396 -17.947   5.129  0.00  0.00    -0.329 NA
ATOM     29  H   LIG    1       30.283 -17.941   4.630  0.00  0.00    +0.118 HD
ATOM     30  H   LIG    1       28.666 -18.099   4.431  0.00  0.00    +0.118 HD
ENDBRANCH  27  28
ENDBRANCH  26  27
ENDBRANCH  24  26
ENDBRANCH  14  24
TORSDOF 8
ENDMDL
MODEL 7
REMARK VINA RESULT:       0.9      1.886      6.719
REMARK  Name = *****
REMARK                            x       y       z     vdW  Elec       q    Type
REMARK                         _______ _______ _______ _____ _____    ______ ____
ROOT
ATOM      1  C   LIG    1       27.935 -18.860   4.685  0.00  0.00    +0.039 A 
ATOM      2  C   LIG    1       26.730 -18.333   4.175  0.00  0.00    +0.056 A 
ATOM      3  C   LIG    1       25.561 -19.234   3.941  0.00  0.00    +0.196 C 
ATOM      4  C   LIG    1       24.216 -18.641   4.044  0.00  0.00    +0.036 A 
ATOM      5  C   LIG    1       24.073 -17.281   3.834  0.00  0.00    +0.051 A 
ATOM      6  C   LIG    1       25.245 -16.465   3.489  0.00  0.00    +0.198 C 
ATOM      7  O   LIG    1       25.115 -15.434   2.852  0.00  0.00    -0.286 OA
ATOM      8  C   LIG    1       22.815 -16.726   3.970  0.00  0.00    +0.123 A 
ATOM      9  N   LIG    1       21.721 -17.452   4.314  0.00  0.00    -0.263 NA
ATOM     10  C   LIG    1       21.891 -18.782   4.499  0.00  0.00    +0.111 A 
ATOM     11  C   LIG    1       23.109 -19.424   4.365  0.00  0.00    +0.032 A 
ATOM     12  O   LIG    1       25.684 -20.426   3.704  0.00  0.00    -0.286 OA
ATOM     13  C   LIG    1       26.570 -16.948   3.961  0.00  0.00    +0.056 A 
ATOM     14  C   LIG    1       27.611 -16.034   4.236  0.00  0.00    +0.039 A 
ATOM     15  C   LIG    1       28.794 -16.571   4.758  0.00  0.00    +0.025 A 
ATOM     16  C   LIG    1       28.955 -17.947   4.960  0.00  0.00    +0.025 A 
ENDROOT
BRANCH   1  17
ATOM     17  N   LIG    1       28.025 -20.192   5.074  0.00  0.00    -0.342 N 
ATOM     18  H   LIG    1       28.150 -20.845   4.293  0.00  0.00    +0.146 HD
BRANCH  17  19
ATOM     19  C   LIG    1       28.491 -20.628   6.384  0.00  0.00    +0.116 C 
BRANCH  19  20
ATOM     20  C   LIG    1       27.420 -21.501   7.062  0.00  0.00    +0.096 C 
BRANCH  20  21
ATOM     21  N   LIG    1       26.065 -21.210   6.588  0.00  0.00    -0.329 NA
ATOM     22  H   LIG    1       25.399 -21.353   7.347  0.00  0.00    +0.118 HD
ATOM     23  H   LIG    1       26.008 -20.221   6.346  0.00  0.00    +0.118 HD
ENDBRANCH  20  21
ENDBRANCH  19  20
ENDBRANCH  17  19
ENDBRANCH   1  17
BRANCH  14  24
ATOM     24  N   LIG    1       27.415 -14.644   4.172  0.00  0.00    -0.342 N 
ATOM     25  H   LIG    1       26.447 -14.417   3.918  0.00  0.00    +0.146 HD
BRANCH  24  26
ATOM     26  C   LIG    1       28.410 -13.796   3.497  0.00  0.00    +0.116 C 
BRANCH  26  27
ATOM     27  C   LIG    1       28.349 -12.344   4.016  0.00  0.00    +0.096 C 
BRANCH  27  28
ATOM     28  N   LIG    1       28.784 -12.214   5.408  0.00  0.00    -0.329 NA
ATOM     29  H   LIG    1       27.980 -12.311   6.026  0.00  0.00    +0.118 HD
ATOM     30  H   LIG    1       29.419 -12.982   5.630  0.00  0.00    +0.118 HD
ENDBRANCH  27  28
ENDBRANCH  26  27
ENDBRANCH  24  26
ENDBRANCH  14  24
TORSDOF 8
ENDMDL
MODEL 8
REMARK VINA RESULT:       1.2      1.819      5.703
REMARK  Name = *****
REMARK                            x       y       z     vdW  Elec       q    Type
REMARK                         _______ _______ _______ _____ _____    ______ ____
ROOT
ATOM      1  C   LIG    1       24.394 -18.473   3.831  0.00  0.00    +0.039 A 
ATOM      2  C   LIG    1       24.971 -17.189   3.743  0.00  0.00    +0.056 A 
ATOM      3  C   LIG    1       24.097 -15.985   3.604  0.00  0.00    +0.196 C 
ATOM      4  C   LIG    1       24.604 -14.712   4.145  0.00  0.00    +0.036 A 
ATOM      5  C   LIG    1       25.972 -14.542   4.270  0.00  0.00    +0.051 A 
ATOM      6  C   LIG    1       26.886 -15.611   3.842  0.00  0.00    +0.198 C 
ATOM      7  O   LIG    1       28.022 -15.347   3.488  0.00  0.00    -0.286 OA
ATOM      8  C   LIG    1       26.438 -13.361   4.814  0.00  0.00    +0.123 A 
ATOM      9  N   LIG    1       25.616 -12.370   5.243  0.00  0.00    -0.263 NA
ATOM     10  C   LIG    1       24.284 -12.560   5.094  0.00  0.00    +0.111 A 
ATOM     11  C   LIG    1       23.731 -13.702   4.543  0.00  0.00    +0.032 A 
ATOM     12  O   LIG    1       22.987 -16.031   3.096  0.00  0.00    -0.286 OA
ATOM     13  C   LIG    1       26.364 -17.002   3.875  0.00  0.00    +0.056 A 
ATOM     14  C   LIG    1       27.237 -18.092   4.084  0.00  0.00    +0.039 A 
ATOM     15  C   LIG    1       26.647 -19.358   4.186  0.00  0.00    +0.025 A 
ATOM     16  C   LIG    1       25.266 -19.543   4.046  0.00  0.00    +0.025 A 
ENDROOT
BRANCH   1  17
ATOM     17  N   LIG    1       23.014 -18.634   3.894  0.00  0.00    -0.342 N 
ATOM     18  H   LIG    1       22.564 -18.722   2.976  0.00  0.00    +0.146 HD
BRANCH  17  19
ATOM     19  C   LIG    1       22.313 -19.208   5.034  0.00  0.00    +0.116 C 
BRANCH  19  20
ATOM     20  C   LIG    1       22.048 -20.704   4.793  0.00  0.00    +0.096 C 
BRANCH  20  21
ATOM     21  N   LIG    1       22.941 -21.571   5.565  0.00  0.00    -0.329 NA
ATOM     22  H   LIG    1       22.930 -21.288   6.545  0.00  0.00    +0.118 HD
ATOM     23  H   LIG    1       22.573 -22.522   5.543  0.00  0.00    +0.118 HD
ENDBRANCH  20  21
ENDBRANCH  19  20
ENDBRANCH  17  19
ENDBRANCH   1  17
BRANCH  14  24
ATOM     24  N   LIG    1       28.601 -17.906   4.367  0.00  0.00    -0.342 N 
ATOM     25  H   LIG    1       29.190 -18.278   3.615  0.00  0.00    +0.146 HD
BRANCH  24  26
ATOM     26  C   LIG    1       29.115 -18.203   5.713  0.00  0.00    +0.116 C 
BRANCH  26  27
ATOM     27  C   LIG    1       29.432 -19.706   5.870  0.00  0.00    +0.096 C 
BRANCH  27  28
ATOM     28  N   LIG    1       28.786 -20.310   7.036  0.00  0.00    -0.329 NA
ATOM     29  H   LIG    1       28.275 -21.142   6.749  0.00  0.00    +0.118 HD
ATOM     30  H   LIG    1       29.506 -20.617   7.691  0.00  0.00    +0.118 HD
ENDBRANCH  27  28
ENDBRANCH  26  27
ENDBRANCH  24  26
ENDBRANCH  14  24
TORSDOF 8
ENDMDL
MODEL 9
REMARK VINA RESULT:       1.2      1.914      4.755
REMARK  Name = *****
REMARK                            x       y       z     vdW  Elec       q    Type
REMARK                         _______ _______ _______ _____ _____    ______ ____
ROOT
ATOM      1  C   LIG    1       25.803 -17.227   3.716  0.00  0.00    +0.039 A 
ATOM      2  C   LIG    1       24.819 -18.044   4.311  0.00  0.00    +0.056 A 
ATOM      3  C   LIG    1       23.376 -17.672   4.205  0.00  0.00    +0.196 C 
ATOM      4  C   LIG    1       22.390 -18.767   4.231  0.00  0.00    +0.036 A 
ATOM      5  C   LIG    1       22.737 -19.958   4.844  0.00  0.00    +0.051 A 
ATOM      6  C   LIG    1       24.057 -20.101   5.474  0.00  0.00    +0.198 C 
ATOM      7  O   LIG    1       24.222 -20.887   6.391  0.00  0.00    -0.286 OA
ATOM      8  C   LIG    1       21.821 -20.992   4.831  0.00  0.00    +0.123 A 
ATOM      9  N   LIG    1       20.607 -20.896   4.231  0.00  0.00    -0.263 NA
ATOM     10  C   LIG    1       20.291 -19.714   3.654  0.00  0.00    +0.111 A 
ATOM     11  C   LIG    1       21.138 -18.620   3.637  0.00  0.00    +0.032 A 
ATOM     12  O   LIG    1       23.000 -16.518   4.069  0.00  0.00    -0.286 OA
ATOM     13  C   LIG    1       25.160 -19.264   4.934  0.00  0.00    +0.056 A 
ATOM     14  C   LIG    1       26.499 -19.709   5.000  0.00  0.00    +0.039 A 
ATOM     15  C   LIG    1       27.460 -18.895   4.390  0.00  0.00    +0.025 A 
ATOM     16  C   LIG    1       27.123 -17.681   3.781  0.00  0.00    +0.025 A 
ENDROOT
BRANCH   1  17
ATOM     17  N   LIG    1       25.447 -16.129   2.940  0.00  0.00    -0.342 N 
ATOM     18  H   LIG    1       24.460 -16.120   2.661  0.00  0.00    +0.146 HD
BRANCH  17  19
ATOM     19  C   LIG    1       26.137 -14.847   2.979  0.00  0.00    +0.116 C 
BRANCH  19  20
ATOM     20  C   LIG    1       25.585 -13.985   4.129  0.00  0.00    +0.096 C 
BRANCH  20  21
ATOM     21  N   LIG    1       24.128 -13.846   4.087  0.00  0.00    -0.329 NA
ATOM     22  H   LIG    1       23.692 -14.740   4.314  0.00  0.00    +0.118 HD
ATOM     23  H   LIG    1       23.839 -13.199   4.820  0.00  0.00    +0.118 HD
ENDBRANCH  20  21
ENDBRANCH  19  20
ENDBRANCH  17  19
ENDBRANCH   1  17
BRANCH  14  24
ATOM     24  N   LIG    1       26.832 -20.987   5.481  0.00  0.00    -0.342 N 
ATOM     25  H   LIG    1       26.135 -21.683   5.198  0.00  0.00    +0.146 HD
BRANCH  24  26
ATOM     26  C   LIG    1       27.288 -21.148   6.870  0.00  0.00    +0.116 C 
BRANCH  26  27
ATOM     27  C   LIG    1       28.827 -21.240   6.945  0.00  0.00    +0.096 C 
BRANCH  27  28
ATOM     28  N   LIG    1       29.475 -19.932   7.061  0.00  0.00    -0.329 NA
ATOM     29  H   LIG    1       30.371 -20.037   7.532  0.00  0.00    +0.118 HD
ATOM     30  H   LIG    1       29.674 -19.577   6.125  0.00  0.00    +0.118 HD
ENDBRANCH  27  28
ENDBRANCH  26  27
ENDBRANCH  24  26
ENDBRANCH  14  24
TORSDOF 8
ENDMDL
