MODEL 1
REMARK VINA RESULT:      -3.8      0.000      0.000
REMARK  Name = *****
REMARK                            x       y       z     vdW  Elec       q    Type
REMARK                         _______ _______ _______ _____ _____    ______ ____
ROOT
ATOM      1  C   LIG    1       25.711 -17.344   3.001  0.00  0.00    +0.151 C 
ENDROOT
BRANCH   1   2
ATOM      2  N   LIG    1       24.955 -18.389   3.737  0.00  0.00    -0.348 NA
ATOM      3  C   LIG    1       25.607 -19.508   4.258  0.00  0.00    +0.135 C 
ATOM      4  C   LIG    1       25.002 -20.489   4.938  0.00  0.00    +0.180 C 
ATOM      5  C   LIG    1       23.527 -20.391   5.135  0.00  0.00    +0.223 C 
ATOM      6  O   LIG    1       22.932 -21.243   5.789  0.00  0.00    -0.284 OA
ATOM      7  C   LIG    1       22.828 -19.249   4.502  0.00  0.00    +0.072 C 
ATOM      8  C   LIG    1       23.568 -18.343   3.847  0.00  0.00    +0.089 C 
BRANCH   4   9
ATOM      9  O   LIG    1       25.678 -21.571   5.460  0.00  0.00    -0.502 OA
ATOM     10  H   LIG    1       26.573 -21.227   5.668  0.00  0.00    +0.292 HD
ENDBRANCH   4   9
ENDBRANCH   1   2
BRANCH   1  11
ATOM     11  CA  LIG    1       25.756 -16.009   3.778  0.00  0.00    +0.180 C 
BRANCH  11  12
ATOM     12  N   LIG    1       24.446 -15.267   3.815  0.00  0.00    -0.317 NA
ATOM     13  H1  LIG    1       24.205 -15.002   2.855  0.00  0.00    +0.119 HD
ATOM     14  H2  LIG    1       23.730 -15.967   4.045  0.00  0.00    +0.119 HD
ENDBRANCH  11  12
BRANCH  11  15
ATOM     15  C   LIG    1       26.806 -15.097   3.141  0.00  0.00    +0.324 C 
ATOM     16  O   LIG    1       26.682 -14.521   2.069  0.00  0.00    -0.249 OA
BRANCH  15  17
ATOM     17  OXT LIG    1       27.922 -15.014   3.908  0.00  0.00    -0.479 OA
ATOM     18  HXT LIG    1       28.437 -15.843   3.729  0.00  0.00    +0.295 HD
ENDBRANCH  15  17
ENDBRANCH  11  15
ENDBRANCH   1  11
TORSDOF 6
ENDMDL
MODEL 2
REMARK VINA RESULT:      -3.5      3.094      4.036
REMARK  Name = *****
REMARK                            x       y       z     vdW  Elec       q    Type
REMARK                         _______ _______ _______ _____ _____    ______ ____
ROOT
ATOM      1  C   LIG    1       26.560 -19.461   4.535  0.00  0.00    +0.151 C 
ENDROOT
BRANCH   1   2
ATOM      2  N   LIG    1       25.138 -19.876   4.623  0.00  0.00    -0.348 NA
ATOM      3  C   LIG    1       24.113 -18.980   4.321  0.00  0.00    +0.135 C 
ATOM      4  C   LIG    1       22.808 -19.276   4.368  0.00  0.00    +0.180 C 
ATOM      5  C   LIG    1       22.424 -20.654   4.793  0.00  0.00    +0.223 C 
ATOM      6  O   LIG    1       21.242 -20.988   4.812  0.00  0.00    -0.284 OA
ATOM      7  C   LIG    1       23.512 -21.572   5.200  0.00  0.00    +0.072 C 
ATOM      8  C   LIG    1       24.775 -21.132   5.102  0.00  0.00    +0.089 C 
BRANCH   4   9
ATOM      9  O   LIG    1       21.819 -18.374   4.042  0.00  0.00    -0.502 OA
ATOM     10  H   LIG    1       21.620 -18.555   3.098  0.00  0.00    +0.292 HD
ENDBRANCH   4   9
ENDBRANCH   1   2
BRANCH   1  11
ATOM     11  CA  LIG    1       27.425 -20.125   5.630  0.00  0.00    +0.180 C 
BRANCH  11  12
ATOM     12  N   LIG    1       26.742 -20.261   6.966  0.00  0.00    -0.317 NA
ATOM     13  H1  LIG    1       26.083 -19.481   7.065  0.00  0.00    +0.119 HD
ATOM     14  H2  LIG    1       26.120 -21.074   6.885  0.00  0.00    +0.119 HD
ENDBRANCH  11  12
BRANCH  11  15
ATOM     15  C   LIG    1       28.700 -19.303   5.826  0.00  0.00    +0.324 C 
ATOM     16  O   LIG    1       29.474 -19.414   6.766  0.00  0.00    -0.249 OA
BRANCH  15  17
ATOM     17  OXT LIG    1       28.868 -18.402   4.824  0.00  0.00    -0.479 OA
ATOM     18  HXT LIG    1       29.118 -17.550   5.264  0.00  0.00    +0.295 HD
ENDBRANCH  15  17
ENDBRANCH  11  15
ENDBRANCH   1  11
TORSDOF 6
ENDMDL
MODEL 3
REMARK VINA RESULT:      -3.4      1.795      5.608
REMARK  Name = *****
REMARK                            x       y       z     vdW  Elec       q    Type
REMARK                         _______ _______ _______ _____ _____    ______ ____
ROOT
ATOM      1  C   LIG    1       25.728 -18.200   2.968  0.00  0.00    +0.151 C 
ENDROOT
BRANCH   1   2
ATOM      2  N   LIG    1       25.770 -16.765   3.345  0.00  0.00    -0.348 NA
ATOM      3  C   LIG    1       26.987 -16.090   3.451  0.00  0.00    +0.135 C 
ATOM      4  C   LIG    1       27.112 -14.798   3.777  0.00  0.00    +0.180 C 
ATOM      5  C   LIG    1       25.865 -14.031   4.068  0.00  0.00    +0.223 C 
ATOM      6  O   LIG    1       25.923 -12.833   4.329  0.00  0.00    -0.284 OA
ATOM      7  C   LIG    1       24.585 -14.774   4.042  0.00  0.00    +0.072 C 
ATOM      8  C   LIG    1       24.616 -16.071   3.700  0.00  0.00    +0.089 C 
BRANCH   4   9
ATOM      9  O   LIG    1       28.329 -14.154   3.853  0.00  0.00    -0.502 OA
ATOM     10  H   LIG    1       28.764 -14.347   2.995  0.00  0.00    +0.292 HD
ENDBRANCH   4   9
ENDBRANCH   1   2
BRANCH   1  11
ATOM     11  CA  LIG    1       25.360 -19.101   4.168  0.00  0.00    +0.180 C 
BRANCH  11  12
ATOM     12  N   LIG    1       26.423 -20.099   4.547  0.00  0.00    -0.317 NA
ATOM     13  H1  LIG    1       27.279 -19.857   4.037  0.00  0.00    +0.119 HD
ATOM     14  H2  LIG    1       26.673 -19.891   5.521  0.00  0.00    +0.119 HD
ENDBRANCH  11  12
BRANCH  11  15
ATOM     15  C   LIG    1       24.077 -19.869   3.840  0.00  0.00    +0.324 C 
ATOM     16  O   LIG    1       24.031 -21.009   3.401  0.00  0.00    -0.249 OA
BRANCH  15  17
ATOM     17  OXT LIG    1       22.974 -19.115   4.079  0.00  0.00    -0.479 OA
ATOM     18  HXT LIG    1       22.205 -19.740   4.043  0.00  0.00    +0.295 HD
ENDBRANCH  15  17
ENDBRANCH  11  15
ENDBRANCH   1  11
TORSDOF 6
ENDMDL
MODEL 4
REMARK VINA RESULT:      -3.3      1.790      2.263
REMARK  Name = *****
REMARK                            x       y       z     vdW  Elec       q    Type
REMARK                         _______ _______ _______ _____ _____    ______ ____
ROOT
ATOM      1  C   LIG    1       24.077 -14.864   4.052  0.00  0.00    +0.151 C 
ENDROOT
BRANCH   1   2
ATOM      2  N   LIG    1       23.842 -16.329   4.078  0.00  0.00    -0.348 NA
ATOM      3  C   LIG    1       24.823 -17.218   3.638  0.00  0.00    +0.135 C 
ATOM      4  C   LIG    1       24.694 -18.550   3.635  0.00  0.00    +0.180 C 
ATOM      5  C   LIG    1       23.404 -19.123   4.117  0.00  0.00    +0.223 C 
ATOM      6  O   LIG    1       23.252 -20.341   4.175  0.00  0.00    -0.284 OA
ATOM      7  C   LIG    1       22.334 -18.174   4.497  0.00  0.00    +0.072 C 
ATOM      8  C   LIG    1       22.609 -16.862   4.446  0.00  0.00    +0.089 C 
BRANCH   4   9
ATOM      9  O   LIG    1       25.692 -19.402   3.213  0.00  0.00    -0.502 OA
ATOM     10  H   LIG    1       25.556 -20.221   3.737  0.00  0.00    +0.292 HD
ENDBRANCH   4   9
ENDBRANCH   1   2
BRANCH   1  11
ATOM     11  CA  LIG    1       25.570 -14.522   3.850  0.00  0.00    +0.180 C 
BRANCH  11  12
ATOM     12  N   LIG    1       26.166 -13.669   4.939  0.00  0.00    -0.317 NA
ATOM     13  H1  LIG    1       25.877 -12.699   4.776  0.00  0.00    +0.119 HD
ATOM     14  H2  LIG    1       25.662 -13.915   5.800  0.00  0.00    +0.119 HD
ENDBRANCH  11  12
BRANCH  11  15
ATOM     15  C   LIG    1       25.737 -13.785   2.519  0.00  0.00    +0.324 C 
ATOM     16  O   LIG    1       24.938 -12.988   2.049  0.00  0.00    -0.249 OA
BRANCH  15  17
ATOM     17  OXT LIG    1       26.890 -14.141   1.897  0.00  0.00    -0.479 OA
ATOM     18  HXT LIG    1       26.727 -14.010   0.928  0.00  0.00    +0.295 HD
ENDBRANCH  15  17
ENDBRANCH  11  15
ENDBRANCH   1  11
TORSDOF 6
ENDMDL
MODEL 5
REMARK VINA RESULT:      -3.3      2.035      5.789
REMARK  Name = *****
REMARK                            x       y       z     vdW  Elec       q    Type
REMARK                         _______ _______ _______ _____ _____    ______ ____
ROOT
ATOM      1  C   LIG    1       25.769 -18.071   2.958  0.00  0.00    +0.151 C 
ENDROOT
BRANCH   1   2
ATOM      2  N   LIG    1       25.963 -16.674   3.421  0.00  0.00    -0.348 NA
ATOM      3  C   LIG    1       24.874 -15.815   3.575  0.00  0.00    +0.135 C 
ATOM      4  C   LIG    1       24.962 -14.547   3.993  0.00  0.00    +0.180 C 
ATOM      5  C   LIG    1       26.320 -14.008   4.296  0.00  0.00    +0.223 C 
ATOM      6  O   LIG    1       26.450 -12.864   4.723  0.00  0.00    -0.284 OA
ATOM      7  C   LIG    1       27.478 -14.895   4.044  0.00  0.00    +0.072 C 
ATOM      8  C   LIG    1       27.234 -16.144   3.621  0.00  0.00    +0.089 C 
BRANCH   4   9
ATOM      9  O   LIG    1       23.864 -13.730   4.156  0.00  0.00    -0.502 OA
ATOM     10  H   LIG    1       24.182 -12.998   4.727  0.00  0.00    +0.292 HD
ENDBRANCH   4   9
ENDBRANCH   1   2
BRANCH   1  11
ATOM     11  CA  LIG    1       25.419 -19.023   4.125  0.00  0.00    +0.180 C 
BRANCH  11  12
ATOM     12  N   LIG    1       26.471 -20.059   4.420  0.00  0.00    -0.317 NA
ATOM     13  H1  LIG    1       27.086 -20.127   3.602  0.00  0.00    +0.119 HD
ATOM     14  H2  LIG    1       27.086 -19.644   5.131  0.00  0.00    +0.119 HD
ENDBRANCH  11  12
BRANCH  11  15
ATOM     15  C   LIG    1       24.111 -19.747   3.802  0.00  0.00    +0.324 C 
ATOM     16  O   LIG    1       24.015 -20.928   3.499  0.00  0.00    -0.249 OA
BRANCH  15  17
ATOM     17  OXT LIG    1       23.048 -18.906   3.871  0.00  0.00    -0.479 OA
ATOM     18  HXT LIG    1       22.245 -19.469   3.724  0.00  0.00    +0.295 HD
ENDBRANCH  15  17
ENDBRANCH  11  15
ENDBRANCH   1  11
TORSDOF 6
ENDMDL
MODEL 6
REMARK VINA RESULT:      -3.3      0.703      1.790
REMARK  Name = *****
REMARK                            x       y       z     vdW  Elec       q    Type
REMARK                         _______ _______ _______ _____ _____    ______ ____
ROOT
ATOM      1  C   LIG    1       25.819 -17.338   2.947  0.00  0.00    +0.151 C 
ENDROOT
BRANCH   1   2
ATOM      2  N   LIG    1       25.221 -18.470   3.698  0.00  0.00    -0.348 NA
ATOM      3  C   LIG    1       23.838 -18.580   3.841  0.00  0.00    +0.135 C 
ATOM      4  C   LIG    1       23.219 -19.571   4.495  0.00  0.00    +0.180 C 
ATOM      5  C   LIG    1       24.069 -20.618   5.133  0.00  0.00    +0.223 C 
ATOM      6  O   LIG    1       23.549 -21.571   5.707  0.00  0.00    -0.284 OA
ATOM      7  C   LIG    1       25.537 -20.447   5.055  0.00  0.00    +0.072 C 
ATOM      8  C   LIG    1       26.013 -19.400   4.366  0.00  0.00    +0.089 C 
BRANCH   4   9
ATOM      9  O   LIG    1       21.848 -19.663   4.600  0.00  0.00    -0.502 OA
ATOM     10  H   LIG    1       21.697 -20.288   5.342  0.00  0.00    +0.292 HD
ENDBRANCH   4   9
ENDBRANCH   1   2
BRANCH   1  11
ATOM     11  CA  LIG    1       25.821 -16.033   3.774  0.00  0.00    +0.180 C 
BRANCH  11  12
ATOM     12  N   LIG    1       24.488 -15.336   3.839  0.00  0.00    -0.317 NA
ATOM     13  H1  LIG    1       24.299 -15.106   4.821  0.00  0.00    +0.119 HD
ATOM     14  H2  LIG    1       24.630 -14.412   3.413  0.00  0.00    +0.119 HD
ENDBRANCH  11  12
BRANCH  11  15
ATOM     15  C   LIG    1       26.840 -15.063   3.171  0.00  0.00    +0.324 C 
ATOM     16  O   LIG    1       26.701 -14.460   2.116  0.00  0.00    -0.249 OA
BRANCH  15  17
ATOM     17  OXT LIG    1       27.948 -14.963   3.948  0.00  0.00    -0.479 OA
ATOM     18  HXT LIG    1       27.926 -15.745   4.556  0.00  0.00    +0.295 HD
ENDBRANCH  15  17
ENDBRANCH  11  15
ENDBRANCH   1  11
TORSDOF 6
ENDMDL
MODEL 7
REMARK VINA RESULT:      -3.2      1.937      2.406
REMARK  Name = *****
REMARK                            x       y       z     vdW  Elec       q    Type
REMARK                         _______ _______ _______ _____ _____    ______ ____
ROOT
ATOM      1  C   LIG    1       27.310 -16.071   3.624  0.00  0.00    +0.151 C 
ENDROOT
BRANCH   1   2
ATOM      2  N   LIG    1       26.714 -17.408   3.868  0.00  0.00    -0.348 NA
ATOM      3  C   LIG    1       27.407 -18.377   4.593  0.00  0.00    +0.135 C 
ATOM      4  C   LIG    1       26.939 -19.602   4.863  0.00  0.00    +0.180 C 
ATOM      5  C   LIG    1       25.592 -19.963   4.334  0.00  0.00    +0.223 C 
ATOM      6  O   LIG    1       25.100 -21.058   4.590  0.00  0.00    -0.284 OA
ATOM      7  C   LIG    1       24.900 -18.963   3.489  0.00  0.00    +0.072 C 
ATOM      8  C   LIG    1       25.495 -17.776   3.303  0.00  0.00    +0.089 C 
BRANCH   4   9
ATOM      9  O   LIG    1       27.641 -20.530   5.602  0.00  0.00    -0.502 OA
ATOM     10  H   LIG    1       28.145 -21.046   4.937  0.00  0.00    +0.292 HD
ENDBRANCH   4   9
ENDBRANCH   1   2
BRANCH   1  11
ATOM     11  CA  LIG    1       26.259 -15.052   3.126  0.00  0.00    +0.180 C 
BRANCH  11  12
ATOM     12  N   LIG    1       26.742 -14.152   2.019  0.00  0.00    -0.317 NA
ATOM     13  H1  LIG    1       26.526 -13.185   2.281  0.00  0.00    +0.119 HD
ATOM     14  H2  LIG    1       27.768 -14.175   2.062  0.00  0.00    +0.119 HD
ENDBRANCH  11  12
BRANCH  11  15
ATOM     15  C   LIG    1       25.819 -14.175   4.300  0.00  0.00    +0.324 C 
ATOM     16  O   LIG    1       26.574 -13.584   5.060  0.00  0.00    -0.249 OA
BRANCH  15  17
ATOM     17  OXT LIG    1       24.467 -14.143   4.415  0.00  0.00    -0.479 OA
ATOM     18  HXT LIG    1       24.252 -13.276   4.844  0.00  0.00    +0.295 HD
ENDBRANCH  15  17
ENDBRANCH  11  15
ENDBRANCH   1  11
TORSDOF 6
ENDMDL
MODEL 8
REMARK VINA RESULT:      -3.1      1.846      2.964
REMARK  Name = *****
REMARK                            x       y       z     vdW  Elec       q    Type
REMARK                         _______ _______ _______ _____ _____    ______ ____
ROOT
ATOM      1  C   LIG    1       25.233 -14.605   3.705  0.00  0.00    +0.151 C 
ENDROOT
BRANCH   1   2
ATOM      2  N   LIG    1       24.911 -16.054   3.678  0.00  0.00    -0.348 NA
ATOM      3  C   LIG    1       23.659 -16.515   4.085  0.00  0.00    +0.135 C 
ATOM      4  C   LIG    1       23.287 -17.801   4.084  0.00  0.00    +0.180 C 
ATOM      5  C   LIG    1       24.289 -18.813   3.638  0.00  0.00    +0.223 C 
ATOM      6  O   LIG    1       23.983 -20.001   3.579  0.00  0.00    -0.284 OA
ATOM      7  C   LIG    1       25.645 -18.327   3.295  0.00  0.00    +0.072 C 
ATOM      8  C   LIG    1       25.871 -17.007   3.345  0.00  0.00    +0.089 C 
BRANCH   4   9
ATOM      9  O   LIG    1       22.033 -18.223   4.472  0.00  0.00    -0.502 OA
ATOM     10  H   LIG    1       21.651 -17.455   4.948  0.00  0.00    +0.292 HD
ENDBRANCH   4   9
ENDBRANCH   1   2
BRANCH   1  11
ATOM     11  CA  LIG    1       26.615 -14.331   4.340  0.00  0.00    +0.180 C 
BRANCH  11  12
ATOM     12  N   LIG    1       26.597 -13.321   5.456  0.00  0.00    -0.317 NA
ATOM     13  H1  LIG    1       26.921 -12.425   5.077  0.00  0.00    +0.119 HD
ATOM     14  H2  LIG    1       25.606 -13.137   5.657  0.00  0.00    +0.119 HD
ENDBRANCH  11  12
BRANCH  11  15
ATOM     15  C   LIG    1       27.571 -13.832   3.256  0.00  0.00    +0.324 C 
ATOM     16  O   LIG    1       28.642 -13.277   3.461  0.00  0.00    -0.249 OA
BRANCH  15  17
ATOM     17  OXT LIG    1       27.076 -14.062   2.013  0.00  0.00    -0.479 OA
ATOM     18  HXT LIG    1       26.148 -14.384   2.145  0.00  0.00    +0.295 HD
ENDBRANCH  15  17
ENDBRANCH  11  15
ENDBRANCH   1  11
TORSDOF 6
ENDMDL
MODEL 9
REMARK VINA RESULT:      -3.0      1.609      5.569
REMARK  Name = *****
REMARK                            x       y       z     vdW  Elec       q    Type
REMARK                         _______ _______ _______ _____ _____    ______ ____
ROOT
ATOM      1  C   LIG    1       24.845 -18.728   3.251  0.00  0.00    +0.151 C 
ENDROOT
BRANCH   1   2
ATOM      2  N   LIG    1       24.929 -17.266   3.491  0.00  0.00    -0.348 NA
ATOM      3  C   LIG    1       26.126 -16.577   3.294  0.00  0.00    +0.135 C 
ATOM      4  C   LIG    1       26.284 -15.261   3.480  0.00  0.00    +0.180 C 
ATOM      5  C   LIG    1       25.103 -14.480   3.951  0.00  0.00    +0.223 C 
ATOM      6  O   LIG    1       25.185 -13.264   4.096  0.00  0.00    -0.284 OA
ATOM      7  C   LIG    1       23.861 -15.230   4.246  0.00  0.00    +0.072 C 
ATOM      8  C   LIG    1       23.854 -16.551   4.013  0.00  0.00    +0.089 C 
BRANCH   4   9
ATOM      9  O   LIG    1       27.476 -14.606   3.255  0.00  0.00    -0.502 OA
ATOM     10  H   LIG    1       27.803 -14.972   2.405  0.00  0.00    +0.292 HD
ENDBRANCH   4   9
ENDBRANCH   1   2
BRANCH   1  11
ATOM     11  CA  LIG    1       25.079 -19.540   4.545  0.00  0.00    +0.180 C 
BRANCH  11  12
ATOM     12  N   LIG    1       26.315 -20.400   4.526  0.00  0.00    -0.317 NA
ATOM     13  H1  LIG    1       27.087 -19.852   4.920  0.00  0.00    +0.119 HD
ATOM     14  H2  LIG    1       26.166 -21.126   5.237  0.00  0.00    +0.119 HD
ENDBRANCH  11  12
BRANCH  11  15
ATOM     15  C   LIG    1       23.869 -20.445   4.790  0.00  0.00    +0.324 C 
ATOM     16  O   LIG    1       22.999 -20.248   5.626  0.00  0.00    -0.249 OA
BRANCH  15  17
ATOM     17  OXT LIG    1       23.884 -21.526   3.968  0.00  0.00    -0.479 OA
ATOM     18  HXT LIG    1       23.458 -22.261   4.479  0.00  0.00    +0.295 HD
ENDBRANCH  15  17
ENDBRANCH  11  15
ENDBRANCH   1  11
TORSDOF 6
ENDMDL
