MODEL 1
REMARK VINA RESULT:      -5.4      0.000      0.000
REMARK  Name = *****
REMARK                            x       y       z     vdW  Elec       q    Type
REMARK                         _______ _______ _______ _____ _____    ______ ____
ROOT
ATOM      1  C1* LIG    1       24.664 -21.230   5.279  0.00  0.00    +0.270 C 
ATOM      2  C2* LIG    1       23.500 -20.619   6.065  0.00  0.00    +0.197 C 
ATOM      3  C3* LIG    1       22.517 -20.279   4.957  0.00  0.00    +0.178 C 
ATOM      4  C4* LIG    1       23.420 -19.924   3.778  0.00  0.00    +0.177 C 
ATOM      5  O4* LIG    1       24.605 -20.737   3.917  0.00  0.00    -0.344 OA
ENDROOT
BRANCH   1   8
ATOM      6  C   LIG    1       27.792 -19.918   6.155  0.00  0.00    +0.236 A 
ATOM      7  N   LIG    1       26.710 -19.884   5.356  0.00  0.00    -0.142 NA
ATOM      8  N   LIG    1       25.971 -20.910   5.832  0.00  0.00    -0.220 N 
ATOM      9  C   LIG    1       26.638 -21.572   6.816  0.00  0.00    +0.223 A 
ATOM     10  N   LIG    1       27.780 -20.971   7.060  0.00  0.00    -0.211 NA
BRANCH   6  14
ATOM     11  N   LIG    1       29.256 -18.576   4.811  0.00  0.00    -0.323 N 
ATOM     12  H   LIG    1       28.779 -18.977   4.012  0.00  0.00    +0.145 HD
ATOM     13  H   LIG    1       30.004 -17.910   4.691  0.00  0.00    +0.145 HD
ATOM     14  C   LIG    1       28.895 -18.939   6.080  0.00  0.00    +0.281 C 
ATOM     15  O   LIG    1       29.475 -18.456   7.055  0.00  0.00    -0.267 OA
ENDBRANCH   6  14
ENDBRANCH   1   8
BRANCH   2  16
ATOM     16  O2* LIG    1       22.925 -21.544   6.997  0.00  0.00    -0.385 OA
ATOM     17  H2* LIG    1       22.292 -21.016   7.530  0.00  0.00    +0.210 HD
ENDBRANCH   2  16
BRANCH   3  18
ATOM     18  O3* LIG    1       21.765 -21.480   4.670  0.00  0.00    -0.386 OA
ATOM     19  H3* LIG    1       20.818 -21.249   4.718  0.00  0.00    +0.210 HD
ENDBRANCH   3  18
BRANCH   4  20
ATOM     20  C5* LIG    1       23.815 -18.442   3.709  0.00  0.00    +0.190 C 
BRANCH  20  21
ATOM     21  O5* LIG    1       25.178 -18.253   3.370  0.00  0.00    -0.392 OA
ATOM     22  H5* LIG    1       25.428 -18.933   2.700  0.00  0.00    +0.209 HD
ENDBRANCH  20  21
ENDBRANCH   4  20
TORSDOF 6
ENDMDL
MODEL 2
REMARK VINA RESULT:      -3.9      3.528      4.792
REMARK  Name = *****
REMARK                            x       y       z     vdW  Elec       q    Type
REMARK                         _______ _______ _______ _____ _____    ______ ____
ROOT
ATOM      1  C1* LIG    1       25.313 -18.699   3.436  0.00  0.00    +0.270 C 
ATOM      2  C2* LIG    1       25.643 -19.419   4.747  0.00  0.00    +0.197 C 
ATOM      3  C3* LIG    1       24.502 -20.418   4.852  0.00  0.00    +0.178 C 
ATOM      4  C4* LIG    1       23.328 -19.685   4.207  0.00  0.00    +0.177 C 
ATOM      5  O4* LIG    1       23.894 -18.841   3.180  0.00  0.00    -0.344 OA
ENDROOT
BRANCH   1   8
ATOM      6  C   LIG    1       25.410 -15.199   3.575  0.00  0.00    +0.236 A 
ATOM      7  N   LIG    1       24.686 -16.333   3.559  0.00  0.00    -0.142 NA
ATOM      8  N   LIG    1       25.642 -17.281   3.452  0.00  0.00    -0.220 N 
ATOM      9  C   LIG    1       26.873 -16.716   3.323  0.00  0.00    +0.223 A 
ATOM     10  N   LIG    1       26.773 -15.409   3.411  0.00  0.00    -0.211 NA
BRANCH   6  14
ATOM     11  N   LIG    1       23.899 -13.509   2.795  0.00  0.00    -0.323 N 
ATOM     12  H   LIG    1       23.670 -14.154   2.048  0.00  0.00    +0.145 HD
ATOM     13  H   LIG    1       23.460 -12.603   2.852  0.00  0.00    +0.145 HD
ATOM     14  C   LIG    1       24.822 -13.855   3.744  0.00  0.00    +0.281 C 
ATOM     15  O   LIG    1       25.105 -13.072   4.652  0.00  0.00    -0.267 OA
ENDBRANCH   6  14
ENDBRANCH   1   8
BRANCH   2  16
ATOM     16  O2* LIG    1       26.910 -20.088   4.699  0.00  0.00    -0.385 OA
ATOM     17  H2* LIG    1       27.553 -19.406   4.407  0.00  0.00    +0.210 HD
ENDBRANCH   2  16
BRANCH   3  18
ATOM     18  O3* LIG    1       24.870 -21.570   4.062  0.00  0.00    -0.386 OA
ATOM     19  H3* LIG    1       24.791 -22.355   4.637  0.00  0.00    +0.210 HD
ENDBRANCH   3  18
BRANCH   4  20
ATOM     20  C5* LIG    1       22.503 -18.832   5.181  0.00  0.00    +0.190 C 
BRANCH  20  21
ATOM     21  O5* LIG    1       22.111 -17.589   4.625  0.00  0.00    -0.392 OA
ATOM     22  H5* LIG    1       22.861 -17.241   4.087  0.00  0.00    +0.209 HD
ENDBRANCH  20  21
ENDBRANCH   4  20
TORSDOF 6
ENDMDL
MODEL 3
REMARK VINA RESULT:      -3.8      4.171      6.247
REMARK  Name = *****
REMARK                            x       y       z     vdW  Elec       q    Type
REMARK                         _______ _______ _______ _____ _____    ______ ____
ROOT
ATOM      1  C1* LIG    1       25.528 -15.275   2.962  0.00  0.00    +0.270 C 
ATOM      2  C2* LIG    1       25.027 -14.408   4.120  0.00  0.00    +0.197 C 
ATOM      3  C3* LIG    1       25.582 -13.041   3.751  0.00  0.00    +0.178 C 
ATOM      4  C4* LIG    1       26.896 -13.370   3.046  0.00  0.00    +0.177 C 
ATOM      5  O4* LIG    1       26.691 -14.635   2.380  0.00  0.00    -0.344 OA
ENDROOT
BRANCH   1   8
ATOM      6  C   LIG    1       25.732 -18.676   3.778  0.00  0.00    +0.236 A 
ATOM      7  N   LIG    1       24.982 -17.621   3.411  0.00  0.00    -0.142 NA
ATOM      8  N   LIG    1       25.894 -16.626   3.363  0.00  0.00    -0.220 N 
ATOM      9  C   LIG    1       27.115 -17.066   3.771  0.00  0.00    +0.223 A 
ATOM     10  N   LIG    1       27.060 -18.353   4.027  0.00  0.00    -0.211 NA
BRANCH   6  14
ATOM     11  N   LIG    1       25.802 -20.800   4.888  0.00  0.00    -0.323 N 
ATOM     12  H   LIG    1       26.549 -20.407   5.448  0.00  0.00    +0.145 HD
ATOM     13  H   LIG    1       25.487 -21.748   5.032  0.00  0.00    +0.145 HD
ATOM     14  C   LIG    1       25.204 -20.049   3.913  0.00  0.00    +0.281 C 
ATOM     15  O   LIG    1       24.296 -20.524   3.229  0.00  0.00    -0.267 OA
ENDBRANCH   6  14
ENDBRANCH   1   8
BRANCH   2  16
ATOM     16  O2* LIG    1       23.596 -14.377   4.201  0.00  0.00    -0.385 OA
ATOM     17  H2* LIG    1       23.344 -13.453   3.986  0.00  0.00    +0.210 HD
ENDBRANCH   2  16
BRANCH   3  18
ATOM     18  O3* LIG    1       24.651 -12.439   2.824  0.00  0.00    -0.386 OA
ATOM     19  H3* LIG    1       24.336 -13.144   2.228  0.00  0.00    +0.210 HD
ENDBRANCH   3  18
BRANCH   4  20
ATOM     20  C5* LIG    1       28.108 -13.469   3.982  0.00  0.00    +0.190 C 
BRANCH  20  21
ATOM     21  O5* LIG    1       29.342 -13.321   3.300  0.00  0.00    -0.392 OA
ATOM     22  H5* LIG    1       29.686 -12.415   3.476  0.00  0.00    +0.209 HD
ENDBRANCH  20  21
ENDBRANCH   4  20
TORSDOF 6
ENDMDL
MODEL 4
REMARK VINA RESULT:      -3.7      4.097      5.852
REMARK  Name = *****
REMARK                            x       y       z     vdW  Elec       q    Type
REMARK                         _______ _______ _______ _____ _____    ______ ____
ROOT
ATOM      1  C1* LIG    1       25.752 -15.338   2.941  0.00  0.00    +0.270 C 
ATOM      2  C2* LIG    1       25.130 -14.455   4.026  0.00  0.00    +0.197 C 
ATOM      3  C3* LIG    1       25.585 -13.068   3.601  0.00  0.00    +0.178 C 
ATOM      4  C4* LIG    1       26.952 -13.321   2.969  0.00  0.00    +0.177 C 
ATOM      5  O4* LIG    1       26.882 -14.634   2.370  0.00  0.00    -0.344 OA
ENDROOT
BRANCH   1   8
ATOM      6  C   LIG    1       27.405 -18.074   4.377  0.00  0.00    +0.236 A 
ATOM      7  N   LIG    1       27.398 -16.765   4.063  0.00  0.00    -0.142 NA
ATOM      8  N   LIG    1       26.211 -16.629   3.434  0.00  0.00    -0.220 N 
ATOM      9  C   LIG    1       25.587 -17.831   3.309  0.00  0.00    +0.223 A 
ATOM     10  N   LIG    1       26.297 -18.764   3.903  0.00  0.00    -0.211 NA
BRANCH   6  14
ATOM     11  N   LIG    1       28.320 -20.070   5.339  0.00  0.00    -0.323 N 
ATOM     12  H   LIG    1       27.504 -20.542   4.969  0.00  0.00    +0.145 HD
ATOM     13  H   LIG    1       29.023 -20.575   5.858  0.00  0.00    +0.145 HD
ATOM     14  C   LIG    1       28.484 -18.725   5.147  0.00  0.00    +0.281 C 
ATOM     15  O   LIG    1       29.475 -18.147   5.598  0.00  0.00    -0.267 OA
ENDBRANCH   6  14
ENDBRANCH   1   8
BRANCH   2  16
ATOM     16  O2* LIG    1       23.699 -14.542   4.048  0.00  0.00    -0.385 OA
ATOM     17  H2* LIG    1       23.499 -15.432   4.412  0.00  0.00    +0.210 HD
ENDBRANCH   2  16
BRANCH   3  18
ATOM     18  O3* LIG    1       24.650 -12.599   2.605  0.00  0.00    -0.386 OA
ATOM     19  H3* LIG    1       24.976 -12.898   1.735  0.00  0.00    +0.210 HD
ENDBRANCH   3  18
BRANCH   4  20
ATOM     20  C5* LIG    1       28.125 -13.266   3.957  0.00  0.00    +0.190 C 
BRANCH  20  21
ATOM     21  O5* LIG    1       29.387 -13.306   3.312  0.00  0.00    -0.392 OA
ATOM     22  H5* LIG    1       29.322 -12.796   2.471  0.00  0.00    +0.209 HD
ENDBRANCH  20  21
ENDBRANCH   4  20
TORSDOF 6
ENDMDL
MODEL 5
REMARK VINA RESULT:      -2.8      3.007      4.197
REMARK  Name = *****
REMARK                            x       y       z     vdW  Elec       q    Type
REMARK                         _______ _______ _______ _____ _____    ______ ____
ROOT
ATOM      1  C1* LIG    1       23.420 -19.212   3.999  0.00  0.00    +0.270 C 
ATOM      2  C2* LIG    1       23.813 -20.687   3.880  0.00  0.00    +0.197 C 
ATOM      3  C3* LIG    1       22.995 -21.320   4.994  0.00  0.00    +0.178 C 
ATOM      4  C4* LIG    1       22.941 -20.227   6.059  0.00  0.00    +0.177 C 
ATOM      5  O4* LIG    1       22.952 -18.970   5.348  0.00  0.00    -0.344 OA
ENDROOT
BRANCH   1   8
ATOM      6  C   LIG    1       25.562 -16.502   3.410  0.00  0.00    +0.236 A 
ATOM      7  N   LIG    1       24.318 -16.960   3.641  0.00  0.00    -0.142 NA
ATOM      8  N   LIG    1       24.514 -18.295   3.716  0.00  0.00    -0.220 N 
ATOM      9  C   LIG    1       25.811 -18.610   3.452  0.00  0.00    +0.223 A 
ATOM     10  N   LIG    1       26.507 -17.510   3.269  0.00  0.00    -0.211 NA
BRANCH   6  14
ATOM     11  N   LIG    1       25.534 -14.314   4.389  0.00  0.00    -0.323 N 
ATOM     12  H   LIG    1       25.065 -14.745   5.176  0.00  0.00    +0.145 HD
ATOM     13  H   LIG    1       25.737 -13.326   4.381  0.00  0.00    +0.145 HD
ATOM     14  C   LIG    1       25.900 -15.069   3.307  0.00  0.00    +0.281 C 
ATOM     15  O   LIG    1       26.470 -14.546   2.347  0.00  0.00    -0.267 OA
ENDBRANCH   6  14
ENDBRANCH   1   8
BRANCH   2  16
ATOM     16  O2* LIG    1       23.464 -21.245   2.606  0.00  0.00    -0.385 OA
ATOM     17  H2* LIG    1       22.721 -21.860   2.786  0.00  0.00    +0.210 HD
ENDBRANCH   2  16
BRANCH   3  18
ATOM     18  O3* LIG    1       21.674 -21.572   4.464  0.00  0.00    -0.386 OA
ATOM     19  H3* LIG    1       21.361 -20.742   4.057  0.00  0.00    +0.210 HD
ENDBRANCH   3  18
BRANCH   4  20
ATOM     20  C5* LIG    1       24.102 -20.264   7.062  0.00  0.00    +0.190 C 
BRANCH  20  21
ATOM     21  O5* LIG    1       24.789 -21.505   7.061  0.00  0.00    -0.392 OA
ATOM     22  H5* LIG    1       25.442 -21.497   7.799  0.00  0.00    +0.209 HD
ENDBRANCH  20  21
ENDBRANCH   4  20
TORSDOF 6
ENDMDL
MODEL 6
REMARK VINA RESULT:      -2.5      4.862      7.387
REMARK  Name = *****
REMARK                            x       y       z     vdW  Elec       q    Type
REMARK                         _______ _______ _______ _____ _____    ______ ____
ROOT
ATOM      1  C1* LIG    1       25.511 -14.460   4.211  0.00  0.00    +0.270 C 
ATOM      2  C2* LIG    1       26.363 -14.820   2.991  0.00  0.00    +0.197 C 
ATOM      3  C3* LIG    1       26.880 -13.458   2.557  0.00  0.00    +0.178 C 
ATOM      4  C4* LIG    1       25.739 -12.512   2.923  0.00  0.00    +0.177 C 
ATOM      5  O4* LIG    1       25.112 -13.072   4.098  0.00  0.00    -0.344 OA
ENDROOT
BRANCH   1   8
ATOM      6  C   LIG    1       23.042 -16.945   4.283  0.00  0.00    +0.236 A 
ATOM      7  N   LIG    1       24.290 -16.569   3.949  0.00  0.00    -0.142 NA
ATOM      8  N   LIG    1       24.314 -15.277   4.346  0.00  0.00    -0.220 N 
ATOM      9  C   LIG    1       23.096 -14.891   4.814  0.00  0.00    +0.223 A 
ATOM     10  N   LIG    1       22.272 -15.915   4.807  0.00  0.00    -0.211 NA
BRANCH   6  14
ATOM     11  N   LIG    1       23.492 -19.287   4.026  0.00  0.00    -0.323 N 
ATOM     12  H   LIG    1       24.472 -19.035   4.079  0.00  0.00    +0.145 HD
ATOM     13  H   LIG    1       23.207 -20.246   3.905  0.00  0.00    +0.145 HD
ATOM     14  C   LIG    1       22.528 -18.319   4.109  0.00  0.00    +0.281 C 
ATOM     15  O   LIG    1       21.335 -18.621   4.041  0.00  0.00    -0.267 OA
ENDBRANCH   6  14
ENDBRANCH   1   8
BRANCH   2  16
ATOM     16  O2* LIG    1       27.446 -15.700   3.322  0.00  0.00    -0.385 OA
ATOM     17  H2* LIG    1       28.203 -15.395   2.776  0.00  0.00    +0.210 HD
ENDBRANCH   2  16
BRANCH   3  18
ATOM     18  O3* LIG    1       28.048 -13.170   3.358  0.00  0.00    -0.386 OA
ATOM     19  H3* LIG    1       28.828 -13.469   2.854  0.00  0.00    +0.210 HD
ENDBRANCH   3  18
BRANCH   4  20
ATOM     20  C5* LIG    1       24.692 -12.327   1.817  0.00  0.00    +0.190 C 
BRANCH  20  21
ATOM     21  O5* LIG    1       23.642 -11.453   2.195  0.00  0.00    -0.392 OA
ATOM     22  H5* LIG    1       24.039 -10.667   2.639  0.00  0.00    +0.209 HD
ENDBRANCH  20  21
ENDBRANCH   4  20
TORSDOF 6
ENDMDL
