MODEL 1
REMARK VINA RESULT:      34.6      0.000      0.000
REMARK  Name = *****
REMARK                            x       y       z     vdW  Elec       q    Type
REMARK                         _______ _______ _______ _____ _____    ______ ____
ROOT
ATOM      1  C   LIG    1       21.300 -18.446   3.212  0.00  0.00    +0.283 C 
ATOM      2  C   LIG    1       22.760 -19.031   3.202  0.00  0.00    +0.208 C 
ATOM      3  C   LIG    1       22.979 -19.955   4.463  0.00  0.00    +0.179 C 
ATOM      4  C   LIG    1       21.660 -20.332   5.174  0.00  0.00    +0.177 C 
ATOM      5  C   LIG    1       20.709 -20.662   4.042  0.00  0.00    +0.178 C 
ATOM      6  O   LIG    1       20.292 -19.466   3.386  0.00  0.00    -0.341 OA
ENDROOT
BRANCH   3   7
ATOM      7  O   LIG    1       23.838 -19.385   5.460  0.00  0.00    -0.386 OA
ATOM      8  H   LIG    1       24.534 -20.032   5.659  0.00  0.00    +0.210 HD
ENDBRANCH   3   7
BRANCH   4   9
ATOM      9  O   LIG    1       21.885 -21.444   6.043  0.00  0.00    -0.387 OA
ATOM     10  H   LIG    1       21.045 -21.569   6.527  0.00  0.00    +0.210 HD
ENDBRANCH   4   9
BRANCH   1  11
ATOM     11  O   LIG    1       21.177 -17.405   4.198  0.00  0.00    -0.338 OA
BRANCH  11  14
ATOM     12  C   LIG    1       22.124 -15.664   6.705  0.00  0.00    +0.010 C 
ATOM     13  C   LIG    1       22.795 -16.167   5.659  0.00  0.00    -0.045 C 
ATOM     14  C   LIG    1       22.249 -16.454   4.257  0.00  0.00    +0.094 C 
ATOM     15  C   LIG    1       21.788 -15.108   3.650  0.00  0.00    +0.040 C 
ATOM     16  C   LIG    1       22.843 -13.993   3.849  0.00  0.00    +0.007 C 
ATOM     17  C   LIG    1       24.330 -14.455   3.656  0.00  0.00    +0.002 C 
ATOM     18  C   LIG    1       24.562 -15.924   4.091  0.00  0.00    -0.019 C 
ATOM     19  C   LIG    1       25.952 -16.338   3.642  0.00  0.00    +0.008 C 
ATOM     20  C   LIG    1       26.985 -15.643   4.487  0.00  0.00    +0.006 C 
ATOM     21  C   LIG    1       26.882 -14.094   4.558  0.00  0.00    +0.012 C 
ATOM     22  C   LIG    1       28.138 -13.360   3.906  0.00  0.00    +0.068 C 
ATOM     23  C   LIG    1       29.453 -14.179   4.076  0.00  0.00    +0.023 C 
ATOM     24  C   LIG    1       27.909 -13.146   2.397  0.00  0.00    +0.018 C 
ATOM     25  C   LIG    1       26.511 -12.704   1.983  0.00  0.00    +0.002 C 
ATOM     26  C   LIG    1       25.602 -12.319   3.138  0.00  0.00    +0.007 C 
ATOM     27  C   LIG    1       25.442 -13.442   4.204  0.00  0.00    -0.025 C 
ATOM     28  C   LIG    1       24.900 -12.720   5.477  0.00  0.00    +0.012 C 
ATOM     29  C   LIG    1       23.508 -16.832   3.462  0.00  0.00    +0.047 C 
ATOM     30  C   LIG    1       24.298 -16.198   5.588  0.00  0.00    +0.040 C 
BRANCH  22  31
ATOM     31  C   LIG    1       28.419 -12.019   4.650  0.00  0.00    +0.311 C 
ATOM     32  O   LIG    1       29.475 -11.447   4.685  0.00  0.00    -0.250 OA
BRANCH  31  33
ATOM     33  O   LIG    1       27.332 -11.463   5.245  0.00  0.00    -0.480 OA
ATOM     34  H   LIG    1       26.538 -12.020   5.307  0.00  0.00    +0.295 HD
ENDBRANCH  31  33
ENDBRANCH  22  31
ENDBRANCH  11  14
ENDBRANCH   1  11
BRANCH   2  35
ATOM     35  O   LIG    1       23.061 -19.828   2.007  0.00  0.00    -0.338 OA
BRANCH  35  36
ATOM     36  C   LIG    1       24.120 -20.808   2.128  0.00  0.00    +0.282 C 
ATOM     37  C   LIG    1       25.517 -20.186   1.812  0.00  0.00    +0.201 C 
ATOM     38  C   LIG    1       25.874 -19.096   2.849  0.00  0.00    +0.179 C 
ATOM     39  C   LIG    1       24.953 -19.173   4.087  0.00  0.00    +0.177 C 
ATOM     40  C   LIG    1       24.871 -20.661   4.444  0.00  0.00    +0.178 C 
ATOM     41  O   LIG    1       24.148 -21.395   3.438  0.00  0.00    -0.341 OA
BRANCH  37  42
ATOM     42  O   LIG    1       26.511 -21.233   1.850  0.00  0.00    -0.384 OA
ATOM     43  H   LIG    1       26.326 -21.844   1.114  0.00  0.00    +0.210 HD
ENDBRANCH  37  42
BRANCH  38  44
ATOM     44  O   LIG    1       25.800 -17.812   2.218  0.00  0.00    -0.386 OA
ATOM     45  H   LIG    1       25.482 -17.176   2.882  0.00  0.00    +0.210 HD
ENDBRANCH  38  44
BRANCH  39  46
ATOM     46  O   LIG    1       25.468 -18.352   5.132  0.00  0.00    -0.387 OA
ATOM     47  H   LIG    1       24.746 -18.223   5.781  0.00  0.00    +0.210 HD
ENDBRANCH  39  46
BRANCH  40  48
ATOM     48  C   LIG    1       24.271 -20.953   5.825  0.00  0.00    +0.190 C 
BRANCH  48  49
ATOM     49  O   LIG    1       25.276 -21.295   6.785  0.00  0.00    -0.392 OA
ATOM     50  H   LIG    1       25.117 -22.208   7.081  0.00  0.00    +0.209 HD
ENDBRANCH  48  49
ENDBRANCH  40  48
ENDBRANCH  35  36
ENDBRANCH   2  35
BRANCH   5  51
ATOM     51  C   LIG    1       19.515 -21.558   4.376  0.00  0.00    +0.190 C 
BRANCH  51  52
ATOM     52  O   LIG    1       19.351 -21.572   5.806  0.00  0.00    -0.392 OA
ATOM     53  H   LIG    1       18.628 -20.943   5.986  0.00  0.00    +0.209 HD
ENDBRANCH  51  52
ENDBRANCH   5  51
TORSDOF 15
ENDMDL
