MODEL 1
REMARK VINA RESULT:      -4.5      0.000      0.000
REMARK  Name = *****
REMARK                            x       y       z     vdW  Elec       q    Type
REMARK                         _______ _______ _______ _____ _____    ______ ____
ROOT
ATOM      1  N   LYS A  3       25.359 -16.603   3.613  0.00  0.00    -0.301 N 
ATOM      2  H   LYS A  3       24.513 -17.016   3.227  0.00  0.00    +0.150 HD
ATOM      3  C   HIS A  2       26.453 -17.437   3.725  0.00  0.00    +0.239 C 
ATOM      4  O   HIS A  2       27.543 -16.975   4.070  0.00  0.00    -0.273 OA
ENDROOT
BRANCH   1   5
ATOM      5  CA  LYS A  3       25.411 -15.134   3.736  0.00  0.00    +0.182 C 
BRANCH   5   6
ATOM      6  C   LYS A  3       24.006 -14.549   4.117  0.00  0.00    +0.325 C 
ATOM      7  O   LYS A  3       23.055 -15.190   4.490  0.00  0.00    -0.249 OA
BRANCH   6   8
ATOM      8  OXT LYS A  3       23.938 -13.196   3.927  0.00  0.00    -0.479 OA
ATOM      9  HXT LYS A  3       23.022 -12.851   3.931  0.00  0.00    +0.295 HD
ENDBRANCH   6   8
ENDBRANCH   5   6
BRANCH   5  10
ATOM     10  CB  LYS A  3       25.920 -14.488   2.429  0.00  0.00    +0.034 C 
BRANCH  10  11
ATOM     11  CG  LYS A  3       27.314 -13.833   2.551  0.00  0.00    +0.003 C 
BRANCH  11  12
ATOM     12  CD  LYS A  3       27.659 -13.471   4.009  0.00  0.00    +0.015 C 
BRANCH  12  13
ATOM     13  CE  LYS A  3       28.904 -12.585   4.171  0.00  0.00    +0.077 C 
BRANCH  13  14
ATOM     14  NZ  LYS A  3       28.961 -11.945   5.481  0.00  0.00    -0.330 NA
ATOM     15  HZ1 LYS A  3       29.783 -12.281   5.984  0.00  0.00    +0.118 HD
ATOM     16  HZ2 LYS A  3       28.158 -12.242   6.037  0.00  0.00    +0.118 HD
ENDBRANCH  13  14
ENDBRANCH  12  13
ENDBRANCH  11  12
ENDBRANCH  10  11
ENDBRANCH   5  10
ENDBRANCH   1   5
BRANCH   3  17
ATOM     17  CA  HIS A  2       26.164 -18.975   3.635  0.00  0.00    +0.200 C 
BRANCH  17  18
ATOM     18  N   HIS A  2       26.369 -19.597   4.959  0.00  0.00    -0.241 NA
ATOM     19  C   GLY A  1       27.550 -19.703   5.463  0.00  0.00    +0.197 C 
BRANCH  19  20
ATOM     20  O   GLY A  1       28.709 -19.375   4.849  0.00  0.00    -0.495 OA
ATOM     21  H   GLY A  1       29.017 -20.019   4.201  0.00  0.00    +0.293 HD
ENDBRANCH  19  20
BRANCH  19  22
ATOM     22  CA  GLY A  1       27.853 -20.179   6.879  0.00  0.00    +0.174 C 
BRANCH  22  23
ATOM     23  N   GLY A  1       29.014 -21.073   6.912  0.00  0.00    -0.322 NA
ATOM     24  H1  GLY A  1       29.787 -20.627   6.424  0.00  0.00    +0.119 HD
ATOM     25  H2  GLY A  1       28.781 -21.920   6.393  0.00  0.00    +0.119 HD
ENDBRANCH  22  23
ENDBRANCH  19  22
ENDBRANCH  17  18
BRANCH  17  26
ATOM     26  CB  HIS A  2       24.766 -19.281   3.037  0.00  0.00    +0.091 C 
BRANCH  26  27
ATOM     27  CG  HIS A  2       23.820 -19.974   3.987  0.00  0.00    +0.038 A 
ATOM     28  ND1 HIS A  2       23.919 -21.315   4.294  0.00  0.00    -0.348 N 
ATOM     29  HD1 HIS A  2       24.564 -21.981   3.891  0.00  0.00    +0.167 HD
ATOM     30  CE1 HIS A  2       23.063 -21.571   5.327  0.00  0.00    +0.196 A 
ATOM     31  NE2 HIS A  2       22.296 -20.537   5.574  0.00  0.00    -0.244 NA
ATOM     32  CD2 HIS A  2       22.720 -19.556   4.713  0.00  0.00    +0.133 A 
ENDBRANCH  26  27
ENDBRANCH  17  26
ENDBRANCH   3  17
TORSDOF 15
ENDMDL
MODEL 2
REMARK VINA RESULT:      -4.0      2.141      6.935
REMARK  Name = *****
REMARK                            x       y       z     vdW  Elec       q    Type
REMARK                         _______ _______ _______ _____ _____    ______ ____
ROOT
ATOM      1  N   LYS A  3       24.393 -17.704   3.654  0.00  0.00    -0.301 N 
ATOM      2  H   LYS A  3       23.967 -16.935   4.165  0.00  0.00    +0.150 HD
ATOM      3  C   HIS A  2       25.704 -17.527   3.259  0.00  0.00    +0.239 C 
ATOM      4  O   HIS A  2       26.320 -18.462   2.743  0.00  0.00    -0.273 OA
ENDROOT
BRANCH   1   5
ATOM      5  CA  LYS A  3       23.685 -18.998   3.646  0.00  0.00    +0.182 C 
BRANCH   5   6
ATOM      6  C   LYS A  3       22.391 -18.939   4.531  0.00  0.00    +0.325 C 
ATOM      7  O   LYS A  3       21.701 -19.882   4.831  0.00  0.00    -0.249 OA
BRANCH   6   8
ATOM      8  OXT LYS A  3       22.074 -17.662   4.904  0.00  0.00    -0.479 OA
ATOM      9  HXT LYS A  3       21.849 -17.084   4.147  0.00  0.00    +0.295 HD
ENDBRANCH   6   8
ENDBRANCH   5   6
BRANCH   5  10
ATOM     10  CB  LYS A  3       24.609 -20.138   4.128  0.00  0.00    +0.034 C 
BRANCH  10  11
ATOM     11  CG  LYS A  3       24.675 -20.288   5.664  0.00  0.00    +0.003 C 
BRANCH  11  12
ATOM     12  CD  LYS A  3       25.930 -21.058   6.118  0.00  0.00    +0.015 C 
BRANCH  12  13
ATOM     13  CE  LYS A  3       27.163 -20.178   6.375  0.00  0.00    +0.077 C 
BRANCH  13  14
ATOM     14  NZ  LYS A  3       27.920 -19.916   5.156  0.00  0.00    -0.330 NA
ATOM     15  HZ1 LYS A  3       27.335 -20.123   4.345  0.00  0.00    +0.118 HD
ATOM     16  HZ2 LYS A  3       28.706 -20.566   5.100  0.00  0.00    +0.118 HD
ENDBRANCH  13  14
ENDBRANCH  12  13
ENDBRANCH  11  12
ENDBRANCH  10  11
ENDBRANCH   5  10
ENDBRANCH   1   5
BRANCH   3  17
ATOM     17  CA  HIS A  2       26.240 -16.054   3.277  0.00  0.00    +0.200 C 
BRANCH  17  18
ATOM     18  N   HIS A  2       25.153 -15.135   3.675  0.00  0.00    -0.241 NA
ATOM     19  C   GLY A  1       24.968 -14.022   3.051  0.00  0.00    +0.197 C 
BRANCH  19  20
ATOM     20  O   GLY A  1       25.753 -13.519   2.073  0.00  0.00    -0.495 OA
ATOM     21  H   GLY A  1       25.390 -12.746   1.624  0.00  0.00    +0.293 HD
ENDBRANCH  19  20
BRANCH  19  22
ATOM     22  CA  GLY A  1       23.787 -13.085   3.276  0.00  0.00    +0.174 C 
BRANCH  22  23
ATOM     23  N   GLY A  1       23.857 -11.910   2.403  0.00  0.00    -0.322 NA
ATOM     24  H1  GLY A  1       24.817 -11.572   2.382  0.00  0.00    +0.119 HD
ATOM     25  H2  GLY A  1       23.288 -11.170   2.814  0.00  0.00    +0.119 HD
ENDBRANCH  22  23
ENDBRANCH  19  22
ENDBRANCH  17  18
BRANCH  17  26
ATOM     26  CB  HIS A  2       27.510 -15.896   4.152  0.00  0.00    +0.091 C 
BRANCH  26  27
ATOM     27  CG  HIS A  2       27.935 -14.466   4.382  0.00  0.00    +0.038 A 
ATOM     28  ND1 HIS A  2       28.677 -13.752   3.465  0.00  0.00    -0.348 N 
ATOM     29  HD1 HIS A  2       29.065 -14.099   2.598  0.00  0.00    +0.167 HD
ATOM     30  CE1 HIS A  2       28.706 -12.450   3.876  0.00  0.00    +0.196 A 
ATOM     31  NE2 HIS A  2       28.197 -12.321   5.077  0.00  0.00    -0.244 NA
ATOM     32  CD2 HIS A  2       27.762 -13.576   5.425  0.00  0.00    +0.133 A 
ENDBRANCH  26  27
ENDBRANCH  17  26
ENDBRANCH   3  17
TORSDOF 15
ENDMDL
MODEL 3
REMARK VINA RESULT:      -3.7      1.854      2.605
REMARK  Name = *****
REMARK                            x       y       z     vdW  Elec       q    Type
REMARK                         _______ _______ _______ _____ _____    ______ ____
ROOT
ATOM      1  N   LYS A  3       26.345 -16.872   3.523  0.00  0.00    -0.301 N 
ATOM      2  H   LYS A  3       27.320 -17.099   3.703  0.00  0.00    +0.150 HD
ATOM      3  C   HIS A  2       25.427 -17.872   3.770  0.00  0.00    +0.239 C 
ATOM      4  O   HIS A  2       24.221 -17.631   3.690  0.00  0.00    -0.273 OA
ENDROOT
BRANCH   1   5
ATOM      5  CA  LYS A  3       26.000 -15.455   3.303  0.00  0.00    +0.182 C 
BRANCH   5   6
ATOM      6  C   LYS A  3       27.279 -14.548   3.351  0.00  0.00    +0.325 C 
ATOM      7  O   LYS A  3       27.963 -14.348   4.323  0.00  0.00    -0.249 OA
BRANCH   6   8
ATOM      8  OXT LYS A  3       27.527 -13.937   2.153  0.00  0.00    -0.479 OA
ATOM      9  HXT LYS A  3       28.481 -13.855   1.951  0.00  0.00    +0.295 HD
ENDBRANCH   6   8
ENDBRANCH   5   6
BRANCH   5  10
ATOM     10  CB  LYS A  3       24.965 -14.971   4.343  0.00  0.00    +0.034 C 
BRANCH  10  11
ATOM     11  CG  LYS A  3       23.745 -14.250   3.729  0.00  0.00    +0.003 C 
BRANCH  11  12
ATOM     12  CD  LYS A  3       24.162 -13.099   2.792  0.00  0.00    +0.015 C 
BRANCH  12  13
ATOM     13  CE  LYS A  3       23.876 -11.692   3.340  0.00  0.00    +0.077 C 
BRANCH  13  14
ATOM     14  NZ  LYS A  3       23.740 -11.680   4.793  0.00  0.00    -0.330 NA
ATOM     15  HZ1 LYS A  3       24.293 -12.442   5.189  0.00  0.00    +0.118 HD
ATOM     16  HZ2 LYS A  3       22.772 -11.887   5.042  0.00  0.00    +0.118 HD
ENDBRANCH  13  14
ENDBRANCH  12  13
ENDBRANCH  11  12
ENDBRANCH  10  11
ENDBRANCH   5  10
ENDBRANCH   1   5
BRANCH   3  17
ATOM     17  CA  HIS A  2       26.003 -19.325   3.900  0.00  0.00    +0.200 C 
BRANCH  17  18
ATOM     18  N   HIS A  2       26.413 -19.573   5.297  0.00  0.00    -0.241 NA
ATOM     19  C   GLY A  1       27.633 -19.875   5.584  0.00  0.00    +0.197 C 
BRANCH  19  20
ATOM     20  O   GLY A  1       28.627 -20.096   4.694  0.00  0.00    -0.495 OA
ATOM     21  H   GLY A  1       28.894 -19.319   4.189  0.00  0.00    +0.293 HD
ENDBRANCH  19  20
BRANCH  19  22
ATOM     22  CA  GLY A  1       28.192 -19.992   6.996  0.00  0.00    +0.174 C 
BRANCH  22  23
ATOM     23  N   GLY A  1       29.304 -20.945   7.059  0.00  0.00    -0.322 NA
ATOM     24  H1  GLY A  1       29.244 -21.575   6.262  0.00  0.00    +0.119 HD
ATOM     25  H2  GLY A  1       29.193 -21.514   7.899  0.00  0.00    +0.119 HD
ENDBRANCH  22  23
ENDBRANCH  19  22
ENDBRANCH  17  18
BRANCH  17  26
ATOM     26  CB  HIS A  2       25.024 -20.401   3.362  0.00  0.00    +0.091 C 
BRANCH  26  27
ATOM     27  CG  HIS A  2       23.974 -20.840   4.353  0.00  0.00    +0.038 A 
ATOM     28  ND1 HIS A  2       24.281 -21.514   5.516  0.00  0.00    -0.348 N 
ATOM     29  HD1 HIS A  2       25.195 -21.838   5.804  0.00  0.00    +0.167 HD
ATOM     30  CE1 HIS A  2       23.148 -21.572   6.277  0.00  0.00    +0.196 A 
ATOM     31  NE2 HIS A  2       22.105 -21.150   5.604  0.00  0.00    -0.244 NA
ATOM     32  CD2 HIS A  2       22.596 -20.742   4.389  0.00  0.00    +0.133 A 
ENDBRANCH  26  27
ENDBRANCH  17  26
ENDBRANCH   3  17
TORSDOF 15
ENDMDL
MODEL 4
REMARK VINA RESULT:      -3.6      1.749      2.435
REMARK  Name = *****
REMARK                            x       y       z     vdW  Elec       q    Type
REMARK                         _______ _______ _______ _____ _____    ______ ____
ROOT
ATOM      1  N   LYS A  3       26.964 -15.801   3.687  0.00  0.00    -0.301 N 
ATOM      2  H   LYS A  3       26.134 -15.887   3.104  0.00  0.00    +0.150 HD
ATOM      3  C   HIS A  2       27.574 -16.980   4.063  0.00  0.00    +0.239 C 
ATOM      4  O   HIS A  2       28.648 -16.949   4.667  0.00  0.00    -0.273 OA
ENDROOT
BRANCH   1   5
ATOM      5  CA  LYS A  3       27.572 -14.464   3.821  0.00  0.00    +0.182 C 
BRANCH   5   6
ATOM      6  C   LYS A  3       27.179 -13.798   5.186  0.00  0.00    +0.325 C 
ATOM      7  O   LYS A  3       26.206 -14.069   5.845  0.00  0.00    -0.249 OA
BRANCH   6   8
ATOM      8  OXT LYS A  3       28.046 -12.804   5.547  0.00  0.00    -0.479 OA
ATOM      9  HXT LYS A  3       28.813 -12.722   4.944  0.00  0.00    +0.295 HD
ENDBRANCH   6   8
ENDBRANCH   5   6
BRANCH   5  10
ATOM     10  CB  LYS A  3       27.163 -13.550   2.645  0.00  0.00    +0.034 C 
BRANCH  10  11
ATOM     11  CG  LYS A  3       25.719 -13.777   2.143  0.00  0.00    +0.003 C 
BRANCH  11  12
ATOM     12  CD  LYS A  3       24.768 -12.646   2.579  0.00  0.00    +0.015 C 
BRANCH  12  13
ATOM     13  CE  LYS A  3       23.852 -12.999   3.761  0.00  0.00    +0.077 C 
BRANCH  13  14
ATOM     14  NZ  LYS A  3       23.852 -14.428   4.054  0.00  0.00    -0.330 NA
ATOM     15  HZ1 LYS A  3       24.743 -14.684   4.482  0.00  0.00    +0.118 HD
ATOM     16  HZ2 LYS A  3       23.809 -14.952   3.179  0.00  0.00    +0.118 HD
ENDBRANCH  13  14
ENDBRANCH  12  13
ENDBRANCH  11  12
ENDBRANCH  10  11
ENDBRANCH   5  10
ENDBRANCH   1   5
BRANCH   3  17
ATOM     17  CA  HIS A  2       26.719 -18.284   3.902  0.00  0.00    +0.200 C 
BRANCH  17  18
ATOM     18  N   HIS A  2       26.664 -19.004   5.192  0.00  0.00    -0.241 NA
ATOM     19  C   GLY A  1       27.635 -19.764   5.566  0.00  0.00    +0.197 C 
BRANCH  19  20
ATOM     20  O   GLY A  1       28.729 -20.074   4.834  0.00  0.00    -0.495 OA
ATOM     21  H   GLY A  1       29.468 -20.426   5.345  0.00  0.00    +0.293 HD
ENDBRANCH  19  20
BRANCH  19  22
ATOM     22  CA  GLY A  1       27.750 -20.420   6.936  0.00  0.00    +0.174 C 
BRANCH  22  23
ATOM     23  N   GLY A  1       28.986 -21.197   7.062  0.00  0.00    -0.322 NA
ATOM     24  H1  GLY A  1       29.638 -20.897   6.340  0.00  0.00    +0.119 HD
ATOM     25  H2  GLY A  1       28.769 -22.177   6.881  0.00  0.00    +0.119 HD
ENDBRANCH  22  23
ENDBRANCH  19  22
ENDBRANCH  17  18
BRANCH  17  26
ATOM     26  CB  HIS A  2       25.313 -18.003   3.312  0.00  0.00    +0.091 C 
BRANCH  26  27
ATOM     27  CG  HIS A  2       24.231 -18.931   3.807  0.00  0.00    +0.038 A 
ATOM     28  ND1 HIS A  2       24.386 -20.300   3.853  0.00  0.00    -0.348 N 
ATOM     29  HD1 HIS A  2       25.179 -20.831   3.518  0.00  0.00    +0.167 HD
ATOM     30  CE1 HIS A  2       23.325 -20.818   4.539  0.00  0.00    +0.196 A 
ATOM     31  NE2 HIS A  2       22.417 -19.900   4.769  0.00  0.00    -0.244 NA
ATOM     32  CD2 HIS A  2       22.945 -18.734   4.272  0.00  0.00    +0.133 A 
ENDBRANCH  26  27
ENDBRANCH  17  26
ENDBRANCH   3  17
TORSDOF 15
ENDMDL
MODEL 5
REMARK VINA RESULT:      -3.5      2.170      7.455
REMARK  Name = *****
REMARK                            x       y       z     vdW  Elec       q    Type
REMARK                         _______ _______ _______ _____ _____    ______ ____
ROOT
ATOM      1  N   LYS A  3       24.487 -17.188   3.648  0.00  0.00    -0.301 N 
ATOM      2  H   LYS A  3       23.698 -16.551   3.570  0.00  0.00    +0.150 HD
ATOM      3  C   HIS A  2       25.741 -16.634   3.489  0.00  0.00    +0.239 C 
ATOM      4  O   HIS A  2       26.744 -17.322   3.689  0.00  0.00    -0.273 OA
ENDROOT
BRANCH   1   5
ATOM      5  CA  LYS A  3       24.230 -18.534   4.194  0.00  0.00    +0.182 C 
BRANCH   5   6
ATOM      6  C   LYS A  3       24.935 -19.638   3.330  0.00  0.00    +0.325 C 
ATOM      7  O   LYS A  3       24.518 -20.092   2.293  0.00  0.00    -0.249 OA
BRANCH   6   8
ATOM      8  OXT LYS A  3       26.085 -20.096   3.910  0.00  0.00    -0.479 OA
ATOM      9  HXT LYS A  3       25.943 -20.871   4.491  0.00  0.00    +0.295 HD
ENDBRANCH   6   8
ENDBRANCH   5   6
BRANCH   5  10
ATOM     10  CB  LYS A  3       22.714 -18.815   4.282  0.00  0.00    +0.034 C 
BRANCH  10  11
ATOM     11  CG  LYS A  3       22.360 -20.156   4.962  0.00  0.00    +0.003 C 
BRANCH  11  12
ATOM     12  CD  LYS A  3       23.075 -20.327   6.316  0.00  0.00    +0.015 C 
BRANCH  12  13
ATOM     13  CE  LYS A  3       24.025 -21.531   6.391  0.00  0.00    +0.077 C 
BRANCH  13  14
ATOM     14  NZ  LYS A  3       25.401 -21.135   6.670  0.00  0.00    -0.330 NA
ATOM     15  HZ1 LYS A  3       25.933 -21.129   5.798  0.00  0.00    +0.118 HD
ATOM     16  HZ2 LYS A  3       25.844 -21.843   7.257  0.00  0.00    +0.118 HD
ENDBRANCH  13  14
ENDBRANCH  12  13
ENDBRANCH  11  12
ENDBRANCH  10  11
ENDBRANCH   5  10
ENDBRANCH   1   5
BRANCH   3  17
ATOM     17  CA  HIS A  2       25.792 -15.217   2.820  0.00  0.00    +0.200 C 
BRANCH  17  18
ATOM     18  N   HIS A  2       24.958 -14.274   3.591  0.00  0.00    -0.241 NA
ATOM     19  C   GLY A  1       24.513 -13.191   3.051  0.00  0.00    +0.197 C 
BRANCH  19  20
ATOM     20  O   GLY A  1       24.812 -12.741   1.812  0.00  0.00    -0.495 OA
ATOM     21  H   GLY A  1       25.739 -12.832   1.563  0.00  0.00    +0.293 HD
ENDBRANCH  19  20
BRANCH  19  22
ATOM     22  CA  GLY A  1       23.520 -12.237   3.703  0.00  0.00    +0.174 C 
BRANCH  22  23
ATOM     23  N   GLY A  1       23.969 -11.817   5.034  0.00  0.00    -0.322 NA
ATOM     24  H1  GLY A  1       24.145 -10.815   5.022  0.00  0.00    +0.119 HD
ATOM     25  H2  GLY A  1       24.859 -12.275   5.232  0.00  0.00    +0.119 HD
ENDBRANCH  22  23
ENDBRANCH  19  22
ENDBRANCH  17  18
BRANCH  17  26
ATOM     26  CB  HIS A  2       27.244 -14.709   2.619  0.00  0.00    +0.091 C 
BRANCH  26  27
ATOM     27  CG  HIS A  2       27.721 -13.750   3.682  0.00  0.00    +0.038 A 
ATOM     28  ND1 HIS A  2       27.260 -13.786   4.981  0.00  0.00    -0.348 N 
ATOM     29  HD1 HIS A  2       26.534 -14.387   5.349  0.00  0.00    +0.167 HD
ATOM     30  CE1 HIS A  2       28.036 -12.942   5.723  0.00  0.00    +0.196 A 
ATOM     31  NE2 HIS A  2       28.833 -12.235   4.957  0.00  0.00    -0.244 NA
ATOM     32  CD2 HIS A  2       28.609 -12.690   3.682  0.00  0.00    +0.133 A 
ENDBRANCH  26  27
ENDBRANCH  17  26
ENDBRANCH   3  17
TORSDOF 15
ENDMDL
MODEL 6
REMARK VINA RESULT:      -3.3      1.868      7.592
REMARK  Name = *****
REMARK                            x       y       z     vdW  Elec       q    Type
REMARK                         _______ _______ _______ _____ _____    ______ ____
ROOT
ATOM      1  N   LYS A  3       26.273 -18.207   3.857  0.00  0.00    -0.301 N 
ATOM      2  H   LYS A  3       27.254 -18.304   3.605  0.00  0.00    +0.150 HD
ATOM      3  C   HIS A  2       25.660 -17.026   3.491  0.00  0.00    +0.239 C 
ATOM      4  O   HIS A  2       24.446 -16.888   3.655  0.00  0.00    -0.273 OA
ENDROOT
BRANCH   1   5
ATOM      5  CA  LYS A  3       25.557 -19.415   4.309  0.00  0.00    +0.182 C 
BRANCH   5   6
ATOM      6  C   LYS A  3       26.477 -20.312   5.211  0.00  0.00    +0.325 C 
ATOM      7  O   LYS A  3       26.094 -21.124   6.016  0.00  0.00    -0.249 OA
BRANCH   6   8
ATOM      8  OXT LYS A  3       27.805 -20.038   5.032  0.00  0.00    -0.479 OA
ATOM      9  HXT LYS A  3       28.390 -20.573   5.606  0.00  0.00    +0.295 HD
ENDBRANCH   6   8
ENDBRANCH   5   6
BRANCH   5  10
ATOM     10  CB  LYS A  3       25.034 -20.230   3.106  0.00  0.00    +0.034 C 
BRANCH  10  11
ATOM     11  CG  LYS A  3       23.715 -20.985   3.383  0.00  0.00    +0.003 C 
BRANCH  11  12
ATOM     12  CD  LYS A  3       22.889 -20.320   4.501  0.00  0.00    +0.015 C 
BRANCH  12  13
ATOM     13  CE  LYS A  3       22.581 -21.231   5.699  0.00  0.00    +0.077 C 
BRANCH  13  14
ATOM     14  NZ  LYS A  3       23.267 -20.802   6.913  0.00  0.00    -0.330 NA
ATOM     15  HZ1 LYS A  3       23.292 -19.781   6.942  0.00  0.00    +0.118 HD
ATOM     16  HZ2 LYS A  3       24.242 -21.099   6.873  0.00  0.00    +0.118 HD
ENDBRANCH  13  14
ENDBRANCH  12  13
ENDBRANCH  11  12
ENDBRANCH  10  11
ENDBRANCH   5  10
ENDBRANCH   1   5
BRANCH   3  17
ATOM     17  CA  HIS A  2       26.613 -15.840   3.112  0.00  0.00    +0.200 C 
BRANCH  17  18
ATOM     18  N   HIS A  2       25.810 -14.672   2.695  0.00  0.00    -0.241 NA
ATOM     19  C   GLY A  1       25.035 -14.071   3.531  0.00  0.00    +0.197 C 
BRANCH  19  20
ATOM     20  O   GLY A  1       24.783 -14.458   4.801  0.00  0.00    -0.495 OA
ATOM     21  H   GLY A  1       23.847 -14.492   5.033  0.00  0.00    +0.293 HD
ENDBRANCH  19  20
BRANCH  19  22
ATOM     22  CA  GLY A  1       24.292 -12.771   3.249  0.00  0.00    +0.174 C 
BRANCH  22  23
ATOM     23  N   GLY A  1       24.065 -12.579   1.813  0.00  0.00    -0.322 NA
ATOM     24  H1  GLY A  1       24.477 -11.693   1.530  0.00  0.00    +0.119 HD
ATOM     25  H2  GLY A  1       23.060 -12.506   1.654  0.00  0.00    +0.119 HD
ENDBRANCH  22  23
ENDBRANCH  19  22
ENDBRANCH  17  18
BRANCH  17  26
ATOM     26  CB  HIS A  2       27.620 -15.503   4.243  0.00  0.00    +0.091 C 
BRANCH  26  27
ATOM     27  CG  HIS A  2       28.065 -14.062   4.273  0.00  0.00    +0.038 A 
ATOM     28  ND1 HIS A  2       27.659 -13.176   5.248  0.00  0.00    -0.348 N 
ATOM     29  HD1 HIS A  2       26.995 -13.355   5.990  0.00  0.00    +0.167 HD
ATOM     30  CE1 HIS A  2       28.397 -12.035   5.110  0.00  0.00    +0.196 A 
ATOM     31  NE2 HIS A  2       29.107 -12.062   4.008  0.00  0.00    -0.244 NA
ATOM     32  CD2 HIS A  2       28.869 -13.294   3.452  0.00  0.00    +0.133 A 
ENDBRANCH  26  27
ENDBRANCH  17  26
ENDBRANCH   3  17
TORSDOF 15
ENDMDL
MODEL 7
REMARK VINA RESULT:      -3.1      2.266      4.346
REMARK  Name = *****
REMARK                            x       y       z     vdW  Elec       q    Type
REMARK                         _______ _______ _______ _____ _____    ______ ____
ROOT
ATOM      1  N   LYS A  3       24.957 -16.296   3.890  0.00  0.00    -0.301 N 
ATOM      2  H   LYS A  3       24.065 -16.296   4.379  0.00  0.00    +0.150 HD
ATOM      3  C   HIS A  2       25.459 -17.529   3.528  0.00  0.00    +0.239 C 
ATOM      4  O   HIS A  2       26.472 -17.597   2.828  0.00  0.00    -0.273 OA
ENDROOT
BRANCH   1   5
ATOM      5  CA  LYS A  3       25.458 -15.006   3.378  0.00  0.00    +0.182 C 
BRANCH   5   6
ATOM      6  C   LYS A  3       26.642 -14.471   4.257  0.00  0.00    +0.325 C 
ATOM      7  O   LYS A  3       26.530 -13.873   5.299  0.00  0.00    -0.249 OA
BRANCH   6   8
ATOM      8  OXT LYS A  3       27.861 -14.706   3.685  0.00  0.00    -0.479 OA
ATOM      9  HXT LYS A  3       27.893 -14.473   2.734  0.00  0.00    +0.295 HD
ENDBRANCH   6   8
ENDBRANCH   5   6
BRANCH   5  10
ATOM     10  CB  LYS A  3       24.324 -13.958   3.317  0.00  0.00    +0.034 C 
BRANCH  10  11
ATOM     11  CG  LYS A  3       24.752 -12.602   2.715  0.00  0.00    +0.003 C 
BRANCH  11  12
ATOM     12  CD  LYS A  3       23.839 -11.448   3.174  0.00  0.00    +0.015 C 
BRANCH  12  13
ATOM     13  CE  LYS A  3       23.510 -11.451   4.674  0.00  0.00    +0.077 C 
BRANCH  13  14
ATOM     14  NZ  LYS A  3       24.710 -11.447   5.505  0.00  0.00    -0.330 NA
ATOM     15  HZ1 LYS A  3       25.534 -11.384   4.905  0.00  0.00    +0.118 HD
ATOM     16  HZ2 LYS A  3       24.790 -12.344   5.986  0.00  0.00    +0.118 HD
ENDBRANCH  13  14
ENDBRANCH  12  13
ENDBRANCH  11  12
ENDBRANCH  10  11
ENDBRANCH   5  10
ENDBRANCH   1   5
BRANCH   3  17
ATOM     17  CA  HIS A  2       24.830 -18.772   4.248  0.00  0.00    +0.200 C 
BRANCH  17  18
ATOM     18  N   HIS A  2       23.445 -18.971   3.774  0.00  0.00    -0.241 NA
ATOM     19  C   GLY A  1       22.556 -19.508   4.538  0.00  0.00    +0.197 C 
BRANCH  19  20
ATOM     20  O   GLY A  1       22.773 -20.026   5.768  0.00  0.00    -0.495 OA
ATOM     21  H   GLY A  1       21.973 -20.221   6.269  0.00  0.00    +0.293 HD
ENDBRANCH  19  20
BRANCH  19  22
ATOM     22  CA  GLY A  1       21.072 -19.612   4.208  0.00  0.00    +0.174 C 
BRANCH  22  23
ATOM     23  N   GLY A  1       20.618 -18.476   3.400  0.00  0.00    -0.322 NA
ATOM     24  H1  GLY A  1       19.659 -18.645   3.104  0.00  0.00    +0.119 HD
ATOM     25  H2  GLY A  1       21.189 -18.434   2.555  0.00  0.00    +0.119 HD
ENDBRANCH  22  23
ENDBRANCH  19  22
ENDBRANCH  17  18
BRANCH  17  26
ATOM     26  CB  HIS A  2       25.703 -20.045   4.104  0.00  0.00    +0.091 C 
BRANCH  26  27
ATOM     27  CG  HIS A  2       26.657 -20.279   5.250  0.00  0.00    +0.038 A 
ATOM     28  ND1 HIS A  2       26.404 -21.185   6.259  0.00  0.00    -0.348 N 
ATOM     29  HD1 HIS A  2       25.562 -21.730   6.384  0.00  0.00    +0.167 HD
ATOM     30  CE1 HIS A  2       27.541 -21.307   7.005  0.00  0.00    +0.196 A 
ATOM     31  NE2 HIS A  2       28.433 -20.410   6.659  0.00  0.00    -0.244 NA
ATOM     32  CD2 HIS A  2       27.875 -19.731   5.605  0.00  0.00    +0.133 A 
ENDBRANCH  26  27
ENDBRANCH  17  26
ENDBRANCH   3  17
TORSDOF 15
ENDMDL
MODEL 8
REMARK VINA RESULT:      -3.0      2.022      5.785
REMARK  Name = *****
REMARK                            x       y       z     vdW  Elec       q    Type
REMARK                         _______ _______ _______ _____ _____    ______ ____
ROOT
ATOM      1  N   LYS A  3       23.907 -18.657   4.371  0.00  0.00    -0.301 N 
ATOM      2  H   LYS A  3       23.956 -18.058   5.191  0.00  0.00    +0.150 HD
ATOM      3  C   HIS A  2       25.110 -19.111   3.870  0.00  0.00    +0.239 C 
ATOM      4  O   HIS A  2       25.120 -19.936   2.954  0.00  0.00    -0.273 OA
ENDROOT
BRANCH   1   5
ATOM      5  CA  LYS A  3       22.586 -19.196   3.993  0.00  0.00    +0.182 C 
BRANCH   5   6
ATOM      6  C   LYS A  3       21.476 -18.091   4.093  0.00  0.00    +0.325 C 
ATOM      7  O   LYS A  3       20.416 -18.106   3.519  0.00  0.00    -0.249 OA
BRANCH   6   8
ATOM      8  OXT LYS A  3       21.858 -17.042   4.883  0.00  0.00    -0.479 OA
ATOM      9  HXT LYS A  3       22.646 -17.237   5.430  0.00  0.00    +0.295 HD
ENDBRANCH   6   8
ENDBRANCH   5   6
BRANCH   5  10
ATOM     10  CB  LYS A  3       22.212 -20.409   4.872  0.00  0.00    +0.034 C 
BRANCH  10  11
ATOM     11  CG  LYS A  3       22.690 -20.296   6.337  0.00  0.00    +0.003 C 
BRANCH  11  12
ATOM     12  CD  LYS A  3       23.519 -21.520   6.773  0.00  0.00    +0.015 C 
BRANCH  12  13
ATOM     13  CE  LYS A  3       25.017 -21.243   6.967  0.00  0.00    +0.077 C 
BRANCH  13  14
ATOM     14  NZ  LYS A  3       25.800 -21.571   5.781  0.00  0.00    -0.330 NA
ATOM     15  HZ1 LYS A  3       25.401 -22.397   5.332  0.00  0.00    +0.118 HD
ATOM     16  HZ2 LYS A  3       26.743 -21.840   6.063  0.00  0.00    +0.118 HD
ENDBRANCH  13  14
ENDBRANCH  12  13
ENDBRANCH  11  12
ENDBRANCH  10  11
ENDBRANCH   5  10
ENDBRANCH   1   5
BRANCH   3  17
ATOM     17  CA  HIS A  2       26.393 -18.349   4.350  0.00  0.00    +0.200 C 
BRANCH  17  18
ATOM     18  N   HIS A  2       27.373 -19.315   4.885  0.00  0.00    -0.241 NA
ATOM     19  C   GLY A  1       28.474 -18.911   5.421  0.00  0.00    +0.197 C 
BRANCH  19  20
ATOM     20  O   GLY A  1       28.908 -17.632   5.476  0.00  0.00    -0.495 OA
ATOM     21  H   GLY A  1       28.411 -17.014   4.927  0.00  0.00    +0.293 HD
ENDBRANCH  19  20
BRANCH  19  22
ATOM     22  CA  GLY A  1       29.472 -19.809   6.141  0.00  0.00    +0.174 C 
BRANCH  22  23
ATOM     23  N   GLY A  1       28.852 -21.062   6.582  0.00  0.00    -0.322 NA
ATOM     24  H1  GLY A  1       28.793 -21.060   7.598  0.00  0.00    +0.119 HD
ATOM     25  H2  GLY A  1       29.464 -21.833   6.318  0.00  0.00    +0.119 HD
ENDBRANCH  22  23
ENDBRANCH  19  22
ENDBRANCH  17  18
BRANCH  17  26
ATOM     26  CB  HIS A  2       26.988 -17.437   3.246  0.00  0.00    +0.091 C 
BRANCH  26  27
ATOM     27  CG  HIS A  2       26.817 -15.959   3.499  0.00  0.00    +0.038 A 
ATOM     28  ND1 HIS A  2       27.852 -15.148   3.914  0.00  0.00    -0.348 N 
ATOM     29  HD1 HIS A  2       28.791 -15.439   4.151  0.00  0.00    +0.167 HD
ATOM     30  CE1 HIS A  2       27.423 -13.854   3.843  0.00  0.00    +0.196 A 
ATOM     31  NE2 HIS A  2       26.137 -13.794   3.592  0.00  0.00    -0.244 NA
ATOM     32  CD2 HIS A  2       25.738 -15.098   3.429  0.00  0.00    +0.133 A 
ENDBRANCH  26  27
ENDBRANCH  17  26
ENDBRANCH   3  17
TORSDOF 15
ENDMDL
MODEL 9
REMARK VINA RESULT:      -2.7      2.136      2.798
REMARK  Name = *****
REMARK                            x       y       z     vdW  Elec       q    Type
REMARK                         _______ _______ _______ _____ _____    ______ ____
ROOT
ATOM      1  N   LYS A  3       24.551 -15.206   3.918  0.00  0.00    -0.301 N 
ATOM      2  H   LYS A  3       25.299 -15.785   3.545  0.00  0.00    +0.150 HD
ATOM      3  C   HIS A  2       23.451 -15.871   4.418  0.00  0.00    +0.239 C 
ATOM      4  O   HIS A  2       22.562 -15.241   4.994  0.00  0.00    -0.273 OA
ENDROOT
BRANCH   1   5
ATOM      5  CA  LYS A  3       24.837 -13.776   4.142  0.00  0.00    +0.182 C 
BRANCH   5   6
ATOM      6  C   LYS A  3       24.772 -12.969   2.798  0.00  0.00    +0.325 C 
ATOM      7  O   LYS A  3       25.714 -12.483   2.224  0.00  0.00    -0.249 OA
BRANCH   6   8
ATOM      8  OXT LYS A  3       23.490 -12.814   2.347  0.00  0.00    -0.479 OA
ATOM      9  HXT LYS A  3       23.421 -12.826   1.371  0.00  0.00    +0.295 HD
ENDBRANCH   6   8
ENDBRANCH   5   6
BRANCH   5  10
ATOM     10  CB  LYS A  3       26.216 -13.587   4.811  0.00  0.00    +0.034 C 
BRANCH  10  11
ATOM     11  CG  LYS A  3       27.323 -14.503   4.241  0.00  0.00    +0.003 C 
BRANCH  11  12
ATOM     12  CD  LYS A  3       28.594 -13.715   3.870  0.00  0.00    +0.015 C 
BRANCH  12  13
ATOM     13  CE  LYS A  3       28.536 -12.215   4.197  0.00  0.00    +0.077 C 
BRANCH  13  14
ATOM     14  NZ  LYS A  3       29.157 -11.903   5.480  0.00  0.00    -0.330 NA
ATOM     15  HZ1 LYS A  3       29.604 -12.743   5.850  0.00  0.00    +0.118 HD
ATOM     16  HZ2 LYS A  3       28.432 -11.658   6.155  0.00  0.00    +0.118 HD
ENDBRANCH  13  14
ENDBRANCH  12  13
ENDBRANCH  11  12
ENDBRANCH  10  11
ENDBRANCH   5  10
ENDBRANCH   1   5
BRANCH   3  17
ATOM     17  CA  HIS A  2       23.300 -17.374   3.997  0.00  0.00    +0.200 C 
BRANCH  17  18
ATOM     18  N   HIS A  2       24.573 -18.086   4.231  0.00  0.00    -0.241 NA
ATOM     19  C   GLY A  1       24.906 -19.100   3.508  0.00  0.00    +0.197 C 
BRANCH  19  20
ATOM     20  O   GLY A  1       24.141 -19.684   2.559  0.00  0.00    -0.495 OA
ATOM     21  H   GLY A  1       23.360 -20.140   2.895  0.00  0.00    +0.293 HD
ENDBRANCH  19  20
BRANCH  19  22
ATOM     22  CA  GLY A  1       26.258 -19.800   3.560  0.00  0.00    +0.174 C 
BRANCH  22  23
ATOM     23  N   GLY A  1       26.486 -20.438   4.861  0.00  0.00    -0.322 NA
ATOM     24  H1  GLY A  1       27.479 -20.637   4.960  0.00  0.00    +0.119 HD
ATOM     25  H2  GLY A  1       25.998 -21.334   4.868  0.00  0.00    +0.119 HD
ENDBRANCH  22  23
ENDBRANCH  19  22
ENDBRANCH  17  18
BRANCH  17  26
ATOM     26  CB  HIS A  2       22.091 -18.063   4.683  0.00  0.00    +0.091 C 
BRANCH  26  27
ATOM     27  CG  HIS A  2       22.414 -19.389   5.327  0.00  0.00    +0.038 A 
ATOM     28  ND1 HIS A  2       22.204 -20.597   4.696  0.00  0.00    -0.348 N 
ATOM     29  HD1 HIS A  2       21.770 -20.740   3.793  0.00  0.00    +0.167 HD
ATOM     30  CE1 HIS A  2       22.789 -21.571   5.452  0.00  0.00    +0.196 A 
ATOM     31  NE2 HIS A  2       23.192 -21.096   6.606  0.00  0.00    -0.244 NA
ATOM     32  CD2 HIS A  2       22.916 -19.752   6.563  0.00  0.00    +0.133 A 
ENDBRANCH  26  27
ENDBRANCH  17  26
ENDBRANCH   3  17
TORSDOF 15
ENDMDL
