MODEL 1
REMARK VINA RESULT:      -2.8      0.000      0.000
REMARK  Name = *****
REMARK                            x       y       z     vdW  Elec       q    Type
REMARK                         _______ _______ _______ _____ _____    ______ ____
ROOT
ATOM      1  O   LIG    1       25.306 -16.377   3.154  0.00  0.00    -0.340 OA
ENDROOT
BRANCH   1   6
ATOM      2  C   LIG    1       25.345 -19.567   4.806  0.00  0.00    +0.178 C 
ATOM      3  C   LIG    1       23.970 -20.098   4.389  0.00  0.00    +0.177 C 
ATOM      4  C   LIG    1       22.949 -18.986   4.627  0.00  0.00    +0.179 C 
ATOM      5  C   LIG    1       23.331 -17.692   3.897  0.00  0.00    +0.201 C 
ATOM      6  C   LIG    1       24.826 -17.342   4.099  0.00  0.00    +0.282 C 
ATOM      7  O   LIG    1       25.676 -18.488   3.923  0.00  0.00    -0.341 OA
BRANCH   3   8
ATOM      8  O   LIG    1       23.937 -20.426   2.985  0.00  0.00    -0.387 OA
ATOM      9  H   LIG    1       23.003 -20.387   2.699  0.00  0.00    +0.210 HD
ENDBRANCH   3   8
BRANCH   4  10
ATOM     10  O   LIG    1       21.648 -19.383   4.168  0.00  0.00    -0.386 OA
ATOM     11  H   LIG    1       21.785 -19.738   3.263  0.00  0.00    +0.210 HD
ENDBRANCH   4  10
BRANCH   5  12
ATOM     12  O   LIG    1       22.473 -16.640   4.388  0.00  0.00    -0.384 OA
ATOM     13  H   LIG    1       21.576 -17.037   4.415  0.00  0.00    +0.210 HD
ENDBRANCH   5  12
BRANCH   2  14
ATOM     14  C   LIG    1       26.437 -20.635   4.719  0.00  0.00    +0.190 C 
BRANCH  14  15
ATOM     15  O   LIG    1       27.709 -20.062   4.995  0.00  0.00    -0.392 OA
ATOM     16  H   LIG    1       28.066 -20.519   5.771  0.00  0.00    +0.209 HD
ENDBRANCH  14  15
ENDBRANCH   2  14
ENDBRANCH   1   6
BRANCH   1  17
ATOM     17  C   LIG    1       25.162 -14.980   3.474  0.00  0.00    +0.183 C 
ATOM     18  C   LIG    1       26.087 -14.550   4.630  0.00  0.00    +0.179 C 
ATOM     19  C   LIG    1       27.560 -14.658   4.210  0.00  0.00    +0.201 C 
ATOM     20  C   LIG    1       27.803 -13.853   2.918  0.00  0.00    +0.279 C 
ATOM     21  O   LIG    1       26.915 -14.241   1.873  0.00  0.00    -0.341 OA
ATOM     22  C   LIG    1       25.508 -14.203   2.177  0.00  0.00    +0.178 C 
BRANCH  18  23
ATOM     23  O   LIG    1       25.795 -13.211   5.048  0.00  0.00    -0.386 OA
ATOM     24  H   LIG    1       24.877 -13.027   4.767  0.00  0.00    +0.210 HD
ENDBRANCH  18  23
BRANCH  19  25
ATOM     25  O   LIG    1       27.925 -16.033   4.031  0.00  0.00    -0.384 OA
ATOM     26  H   LIG    1       28.669 -16.211   4.647  0.00  0.00    +0.210 HD
ENDBRANCH  19  25
BRANCH  20  27
ATOM     27  O   LIG    1       27.762 -12.450   3.120  0.00  0.00    -0.365 OA
ATOM     28  H   LIG    1       27.550 -12.300   4.064  0.00  0.00    +0.213 HD
ENDBRANCH  20  27
BRANCH  22  29
ATOM     29  C   LIG    1       24.951 -12.769   2.137  0.00  0.00    +0.190 C 
BRANCH  29  30
ATOM     30  O   LIG    1       23.693 -12.711   2.808  0.00  0.00    -0.392 OA
ATOM     31  H   LIG    1       23.458 -11.761   2.831  0.00  0.00    +0.209 HD
ENDBRANCH  29  30
ENDBRANCH  22  29
ENDBRANCH   1  17
TORSDOF 12
ENDMDL
MODEL 2
REMARK VINA RESULT:      -2.4      1.384      6.092
REMARK  Name = *****
REMARK                            x       y       z     vdW  Elec       q    Type
REMARK                         _______ _______ _______ _____ _____    ______ ____
ROOT
ATOM      1  O   LIG    1       25.131 -17.530   3.881  0.00  0.00    -0.340 OA
ENDROOT
BRANCH   1   6
ATOM      2  C   LIG    1       26.433 -14.350   2.834  0.00  0.00    +0.178 C 
ATOM      3  C   LIG    1       25.793 -13.441   3.890  0.00  0.00    +0.177 C 
ATOM      4  C   LIG    1       24.313 -13.809   3.985  0.00  0.00    +0.179 C 
ATOM      5  C   LIG    1       24.111 -15.299   4.285  0.00  0.00    +0.201 C 
ATOM      6  C   LIG    1       25.009 -16.189   3.391  0.00  0.00    +0.282 C 
ATOM      7  O   LIG    1       26.358 -15.696   3.322  0.00  0.00    -0.341 OA
BRANCH   3   8
ATOM      8  O   LIG    1       26.379 -13.654   5.191  0.00  0.00    -0.387 OA
ATOM      9  H   LIG    1       26.206 -12.852   5.722  0.00  0.00    +0.210 HD
ENDBRANCH   3   8
BRANCH   4  10
ATOM     10  O   LIG    1       23.669 -13.059   5.027  0.00  0.00    -0.386 OA
ATOM     11  H   LIG    1       22.740 -12.941   4.731  0.00  0.00    +0.210 HD
ENDBRANCH   4  10
BRANCH   5  12
ATOM     12  O   LIG    1       22.712 -15.602   4.091  0.00  0.00    -0.384 OA
ATOM     13  H   LIG    1       22.357 -14.840   3.584  0.00  0.00    +0.210 HD
ENDBRANCH   5  12
BRANCH   2  14
ATOM     14  C   LIG    1       27.898 -13.997   2.568  0.00  0.00    +0.190 C 
BRANCH  14  15
ATOM     15  O   LIG    1       28.275 -12.855   3.327  0.00  0.00    -0.392 OA
ATOM     16  H   LIG    1       27.458 -12.418   3.610  0.00  0.00    +0.209 HD
ENDBRANCH  14  15
ENDBRANCH   2  14
ENDBRANCH   1   6
BRANCH   1  17
ATOM     17  C   LIG    1       24.195 -18.518   3.407  0.00  0.00    +0.183 C 
ATOM     18  C   LIG    1       24.869 -19.881   3.150  0.00  0.00    +0.179 C 
ATOM     19  C   LIG    1       25.375 -20.489   4.466  0.00  0.00    +0.201 C 
ATOM     20  C   LIG    1       24.224 -20.574   5.487  0.00  0.00    +0.279 C 
ATOM     21  O   LIG    1       23.592 -19.312   5.685  0.00  0.00    -0.341 OA
ATOM     22  C   LIG    1       23.108 -18.643   4.505  0.00  0.00    +0.178 C 
BRANCH  18  23
ATOM     23  O   LIG    1       23.963 -20.787   2.509  0.00  0.00    -0.386 OA
ATOM     24  H   LIG    1       23.757 -21.482   3.164  0.00  0.00    +0.210 HD
ENDBRANCH  18  23
BRANCH  19  25
ATOM     25  O   LIG    1       26.463 -19.712   4.986  0.00  0.00    -0.384 OA
ATOM     26  H   LIG    1       26.101 -19.181   5.728  0.00  0.00    +0.210 HD
ENDBRANCH  19  25
BRANCH  20  27
ATOM     27  O   LIG    1       23.268 -21.572   5.167  0.00  0.00    -0.365 OA
ATOM     28  H   LIG    1       23.345 -22.274   5.844  0.00  0.00    +0.213 HD
ENDBRANCH  20  27
BRANCH  22  29
ATOM     29  C   LIG    1       21.781 -19.245   4.009  0.00  0.00    +0.190 C 
BRANCH  29  30
ATOM     30  O   LIG    1       20.871 -18.204   3.655  0.00  0.00    -0.392 OA
ATOM     31  H   LIG    1       20.356 -18.559   2.902  0.00  0.00    +0.209 HD
ENDBRANCH  29  30
ENDBRANCH  22  29
ENDBRANCH   1  17
TORSDOF 12
ENDMDL
MODEL 3
REMARK VINA RESULT:      -2.1      1.551      3.532
REMARK  Name = *****
REMARK                            x       y       z     vdW  Elec       q    Type
REMARK                         _______ _______ _______ _____ _____    ______ ____
ROOT
ATOM      1  O   LIG    1       25.485 -16.365   3.911  0.00  0.00    -0.340 OA
ENDROOT
BRANCH   1   6
ATOM      2  C   LIG    1       24.965 -19.880   3.379  0.00  0.00    +0.178 C 
ATOM      3  C   LIG    1       25.848 -20.450   4.494  0.00  0.00    +0.177 C 
ATOM      4  C   LIG    1       27.195 -19.731   4.435  0.00  0.00    +0.179 C 
ATOM      5  C   LIG    1       27.036 -18.208   4.524  0.00  0.00    +0.201 C 
ATOM      6  C   LIG    1       25.914 -17.694   3.590  0.00  0.00    +0.282 C 
ATOM      7  O   LIG    1       24.726 -18.499   3.682  0.00  0.00    -0.341 OA
BRANCH   3   8
ATOM      8  O   LIG    1       25.278 -20.200   5.796  0.00  0.00    -0.387 OA
ATOM      9  H   LIG    1       24.456 -19.689   5.659  0.00  0.00    +0.210 HD
ENDBRANCH   3   8
BRANCH   4  10
ATOM     10  O   LIG    1       28.043 -20.149   5.515  0.00  0.00    -0.386 OA
ATOM     11  H   LIG    1       27.498 -20.064   6.327  0.00  0.00    +0.210 HD
ENDBRANCH   4  10
BRANCH   5  12
ATOM     12  O   LIG    1       28.310 -17.613   4.194  0.00  0.00    -0.384 OA
ATOM     13  H   LIG    1       28.908 -18.373   4.025  0.00  0.00    +0.210 HD
ENDBRANCH   5  12
BRANCH   2  14
ATOM     14  C   LIG    1       23.622 -20.605   3.266  0.00  0.00    +0.190 C 
BRANCH  14  15
ATOM     15  O   LIG    1       23.496 -21.572   4.302  0.00  0.00    -0.392 OA
ATOM     16  H   LIG    1       23.049 -22.342   3.921  0.00  0.00    +0.209 HD
ENDBRANCH  14  15
ENDBRANCH   2  14
ENDBRANCH   1   6
BRANCH   1  17
ATOM     17  C   LIG    1       26.111 -15.263   3.227  0.00  0.00    +0.183 C 
ATOM     18  C   LIG    1       25.078 -14.281   2.639  0.00  0.00    +0.179 C 
ATOM     19  C   LIG    1       24.292 -13.589   3.761  0.00  0.00    +0.201 C 
ATOM     20  C   LIG    1       25.263 -12.913   4.749  0.00  0.00    +0.279 C 
ATOM     21  O   LIG    1       26.231 -13.829   5.255  0.00  0.00    -0.341 OA
ATOM     22  C   LIG    1       27.003 -14.554   4.279  0.00  0.00    +0.178 C 
BRANCH  18  23
ATOM     23  O   LIG    1       25.716 -13.300   1.812  0.00  0.00    -0.386 OA
ATOM     24  H   LIG    1       25.490 -12.429   2.192  0.00  0.00    +0.210 HD
ENDBRANCH  18  23
BRANCH  19  25
ATOM     25  O   LIG    1       23.453 -14.536   4.437  0.00  0.00    -0.384 OA
ATOM     26  H   LIG    1       22.633 -14.618   3.903  0.00  0.00    +0.210 HD
ENDBRANCH  19  25
BRANCH  20  27
ATOM     27  O   LIG    1       25.891 -11.761   4.213  0.00  0.00    -0.365 OA
ATOM     28  H   LIG    1       26.596 -12.071   3.609  0.00  0.00    +0.213 HD
ENDBRANCH  20  27
BRANCH  22  29
ATOM     29  C   LIG    1       28.120 -13.686   3.672  0.00  0.00    +0.190 C 
BRANCH  29  30
ATOM     30  O   LIG    1       28.574 -12.730   4.630  0.00  0.00    -0.392 OA
ATOM     31  H   LIG    1       28.619 -13.217   5.477  0.00  0.00    +0.209 HD
ENDBRANCH  29  30
ENDBRANCH  22  29
ENDBRANCH   1  17
TORSDOF 12
ENDMDL
MODEL 4
REMARK VINA RESULT:      -1.8      1.542      3.195
REMARK  Name = *****
REMARK                            x       y       z     vdW  Elec       q    Type
REMARK                         _______ _______ _______ _____ _____    ______ ____
ROOT
ATOM      1  O   LIG    1       25.888 -16.544   2.909  0.00  0.00    -0.340 OA
ENDROOT
BRANCH   1   6
ATOM      2  C   LIG    1       25.097 -20.018   3.373  0.00  0.00    +0.178 C 
ATOM      3  C   LIG    1       25.615 -20.218   4.802  0.00  0.00    +0.177 C 
ATOM      4  C   LIG    1       27.013 -19.605   4.881  0.00  0.00    +0.179 C 
ATOM      5  C   LIG    1       27.019 -18.134   4.450  0.00  0.00    +0.201 C 
ATOM      6  C   LIG    1       26.221 -17.918   3.140  0.00  0.00    +0.282 C 
ATOM      7  O   LIG    1       24.959 -18.607   3.160  0.00  0.00    -0.341 OA
BRANCH   3   8
ATOM      8  O   LIG    1       24.785 -19.534   5.762  0.00  0.00    -0.387 OA
ATOM      9  H   LIG    1       24.183 -18.949   5.262  0.00  0.00    +0.210 HD
ENDBRANCH   3   8
BRANCH   4  10
ATOM     10  O   LIG    1       27.523 -19.673   6.222  0.00  0.00    -0.386 OA
ATOM     11  H   LIG    1       28.471 -19.909   6.131  0.00  0.00    +0.210 HD
ENDBRANCH   4  10
BRANCH   5  12
ATOM     12  O   LIG    1       28.396 -17.725   4.300  0.00  0.00    -0.384 OA
ATOM     13  H   LIG    1       28.522 -17.612   3.333  0.00  0.00    +0.210 HD
ENDBRANCH   5  12
BRANCH   2  14
ATOM     14  C   LIG    1       23.745 -20.693   3.140  0.00  0.00    +0.190 C 
BRANCH  14  15
ATOM     15  O   LIG    1       23.432 -21.557   4.226  0.00  0.00    -0.392 OA
ATOM     16  H   LIG    1       22.611 -22.018   3.996  0.00  0.00    +0.209 HD
ENDBRANCH  14  15
ENDBRANCH   2  14
ENDBRANCH   1   6
BRANCH   1  17
ATOM     17  C   LIG    1       25.597 -15.711   4.049  0.00  0.00    +0.183 C 
ATOM     18  C   LIG    1       26.612 -14.561   4.202  0.00  0.00    +0.179 C 
ATOM     19  C   LIG    1       26.501 -13.583   3.024  0.00  0.00    +0.201 C 
ATOM     20  C   LIG    1       25.049 -13.085   2.883  0.00  0.00    +0.279 C 
ATOM     21  O   LIG    1       24.123 -14.164   2.777  0.00  0.00    -0.341 OA
ATOM     22  C   LIG    1       24.168 -15.155   3.822  0.00  0.00    +0.178 C 
BRANCH  18  23
ATOM     23  O   LIG    1       26.411 -13.863   5.437  0.00  0.00    -0.386 OA
ATOM     24  H   LIG    1       25.707 -14.344   5.916  0.00  0.00    +0.210 HD
ENDBRANCH  18  23
BRANCH  19  25
ATOM     25  O   LIG    1       26.945 -14.212   1.814  0.00  0.00    -0.384 OA
ATOM     26  H   LIG    1       27.921 -14.108   1.782  0.00  0.00    +0.210 HD
ENDBRANCH  19  25
BRANCH  20  27
ATOM     27  O   LIG    1       24.665 -12.191   3.914  0.00  0.00    -0.365 OA
ATOM     28  H   LIG    1       24.363 -12.733   4.670  0.00  0.00    +0.213 HD
ENDBRANCH  20  27
BRANCH  22  29
ATOM     29  C   LIG    1       23.473 -14.666   5.105  0.00  0.00    +0.190 C 
BRANCH  29  30
ATOM     30  O   LIG    1       22.332 -15.476   5.386  0.00  0.00    -0.392 OA
ATOM     31  H   LIG    1       22.153 -15.346   6.339  0.00  0.00    +0.209 HD
ENDBRANCH  29  30
ENDBRANCH  22  29
ENDBRANCH   1  17
TORSDOF 12
ENDMDL
MODEL 5
REMARK VINA RESULT:      -1.7      1.456      6.286
REMARK  Name = *****
REMARK                            x       y       z     vdW  Elec       q    Type
REMARK                         _______ _______ _______ _____ _____    ______ ____
ROOT
ATOM      1  O   LIG    1       25.490 -18.441   2.910  0.00  0.00    -0.340 OA
ENDROOT
BRANCH   1   6
ATOM      2  C   LIG    1       24.671 -15.101   3.949  0.00  0.00    +0.178 C 
ATOM      3  C   LIG    1       25.972 -14.381   3.578  0.00  0.00    +0.177 C 
ATOM      4  C   LIG    1       27.136 -15.218   4.109  0.00  0.00    +0.179 C 
ATOM      5  C   LIG    1       27.087 -16.661   3.591  0.00  0.00    +0.201 C 
ATOM      6  C   LIG    1       25.665 -17.263   3.708  0.00  0.00    +0.282 C 
ATOM      7  O   LIG    1       24.655 -16.350   3.247  0.00  0.00    -0.341 OA
BRANCH   3   8
ATOM      8  O   LIG    1       26.127 -14.280   2.147  0.00  0.00    -0.387 OA
ATOM      9  H   LIG    1       26.729 -14.997   1.869  0.00  0.00    +0.210 HD
ENDBRANCH   3   8
BRANCH   4  10
ATOM     10  O   LIG    1       28.393 -14.650   3.713  0.00  0.00    -0.386 OA
ATOM     11  H   LIG    1       29.044 -14.962   4.379  0.00  0.00    +0.210 HD
ENDBRANCH   4  10
BRANCH   5  12
ATOM     12  O   LIG    1       28.048 -17.431   4.344  0.00  0.00    -0.384 OA
ATOM     13  H   LIG    1       27.595 -17.645   5.189  0.00  0.00    +0.210 HD
ENDBRANCH   5  12
BRANCH   2  14
ATOM     14  C   LIG    1       23.427 -14.297   3.566  0.00  0.00    +0.190 C 
BRANCH  14  15
ATOM     15  O   LIG    1       23.800 -13.114   2.870  0.00  0.00    -0.392 OA
ATOM     16  H   LIG    1       24.668 -12.846   3.208  0.00  0.00    +0.209 HD
ENDBRANCH  14  15
ENDBRANCH   2  14
ENDBRANCH   1   6
BRANCH   1  17
ATOM     17  C   LIG    1       24.330 -19.260   3.150  0.00  0.00    +0.183 C 
ATOM     18  C   LIG    1       24.690 -20.754   3.283  0.00  0.00    +0.179 C 
ATOM     19  C   LIG    1       25.545 -20.992   4.535  0.00  0.00    +0.201 C 
ATOM     20  C   LIG    1       24.826 -20.437   5.781  0.00  0.00    +0.279 C 
ATOM     21  O   LIG    1       24.472 -19.066   5.625  0.00  0.00    -0.341 OA
ATOM     22  C   LIG    1       23.692 -18.732   4.460  0.00  0.00    +0.178 C 
BRANCH  18  23
ATOM     23  O   LIG    1       23.508 -21.562   3.336  0.00  0.00    -0.386 OA
ATOM     24  H   LIG    1       23.790 -22.443   3.652  0.00  0.00    +0.210 HD
ENDBRANCH  18  23
BRANCH  19  25
ATOM     25  O   LIG    1       26.836 -20.387   4.378  0.00  0.00    -0.384 OA
ATOM     26  H   LIG    1       27.375 -21.008   3.841  0.00  0.00    +0.210 HD
ENDBRANCH  19  25
BRANCH  20  27
ATOM     27  O   LIG    1       23.701 -21.209   6.164  0.00  0.00    -0.365 OA
ATOM     28  H   LIG    1       22.928 -20.852   5.683  0.00  0.00    +0.213 HD
ENDBRANCH  20  27
BRANCH  22  29
ATOM     29  C   LIG    1       22.211 -19.110   4.635  0.00  0.00    +0.190 C 
BRANCH  29  30
ATOM     30  O   LIG    1       21.388 -18.253   3.843  0.00  0.00    -0.392 OA
ATOM     31  H   LIG    1       21.967 -17.937   3.120  0.00  0.00    +0.209 HD
ENDBRANCH  29  30
ENDBRANCH  22  29
ENDBRANCH   1  17
TORSDOF 12
ENDMDL
MODEL 6
REMARK VINA RESULT:      -1.0      1.167      2.570
REMARK  Name = *****
REMARK                            x       y       z     vdW  Elec       q    Type
REMARK                         _______ _______ _______ _____ _____    ______ ____
ROOT
ATOM      1  O   LIG    1       25.361 -15.788   2.684  0.00  0.00    -0.340 OA
ENDROOT
BRANCH   1   6
ATOM      2  C   LIG    1       25.405 -18.980   4.333  0.00  0.00    +0.178 C 
ATOM      3  C   LIG    1       23.943 -19.397   4.141  0.00  0.00    +0.177 C 
ATOM      4  C   LIG    1       23.064 -18.207   4.527  0.00  0.00    +0.179 C 
ATOM      5  C   LIG    1       23.429 -16.945   3.737  0.00  0.00    +0.201 C 
ATOM      6  C   LIG    1       24.960 -16.716   3.699  0.00  0.00    +0.282 C 
ATOM      7  O   LIG    1       25.677 -17.926   3.400  0.00  0.00    -0.341 OA
BRANCH   3   8
ATOM      8  O   LIG    1       23.664 -19.714   2.762  0.00  0.00    -0.387 OA
ATOM      9  H   LIG    1       22.766 -19.382   2.563  0.00  0.00    +0.210 HD
ENDBRANCH   3   8
BRANCH   4  10
ATOM     10  O   LIG    1       21.679 -18.497   4.281  0.00  0.00    -0.386 OA
ATOM     11  H   LIG    1       21.249 -17.626   4.138  0.00  0.00    +0.210 HD
ENDBRANCH   4  10
BRANCH   5  12
ATOM     12  O   LIG    1       22.745 -15.830   4.349  0.00  0.00    -0.384 OA
ATOM     13  H   LIG    1       21.880 -15.781   3.889  0.00  0.00    +0.210 HD
ENDBRANCH   5  12
BRANCH   2  14
ATOM     14  C   LIG    1       26.380 -20.131   4.083  0.00  0.00    +0.190 C 
BRANCH  14  15
ATOM     15  O   LIG    1       27.488 -20.040   4.971  0.00  0.00    -0.392 OA
ATOM     16  H   LIG    1       27.975 -19.236   4.737  0.00  0.00    +0.209 HD
ENDBRANCH  14  15
ENDBRANCH   2  14
ENDBRANCH   1   6
BRANCH   1  17
ATOM     17  C   LIG    1       26.238 -14.707   3.055  0.00  0.00    +0.183 C 
ATOM     18  C   LIG    1       25.873 -13.391   2.340  0.00  0.00    +0.179 C 
ATOM     19  C   LIG    1       24.496 -12.891   2.799  0.00  0.00    +0.201 C 
ATOM     20  C   LIG    1       24.463 -12.766   4.335  0.00  0.00    +0.279 C 
ATOM     21  O   LIG    1       24.836 -13.983   4.977  0.00  0.00    -0.341 OA
ATOM     22  C   LIG    1       26.102 -14.552   4.592  0.00  0.00    +0.178 C 
BRANCH  18  23
ATOM     23  O   LIG    1       26.865 -12.385   2.583  0.00  0.00    -0.386 OA
ATOM     24  H   LIG    1       27.547 -12.800   3.146  0.00  0.00    +0.210 HD
ENDBRANCH  18  23
BRANCH  19  25
ATOM     25  O   LIG    1       23.467 -13.777   2.336  0.00  0.00    -0.384 OA
ATOM     26  H   LIG    1       22.966 -13.291   1.645  0.00  0.00    +0.210 HD
ENDBRANCH  19  25
BRANCH  20  27
ATOM     27  O   LIG    1       25.235 -11.681   4.822  0.00  0.00    -0.365 OA
ATOM     28  H   LIG    1       24.828 -11.391   5.663  0.00  0.00    +0.213 HD
ENDBRANCH  20  27
BRANCH  22  29
ATOM     29  C   LIG    1       27.283 -13.822   5.256  0.00  0.00    +0.190 C 
BRANCH  29  30
ATOM     30  O   LIG    1       26.971 -13.516   6.615  0.00  0.00    -0.392 OA
ATOM     31  H   LIG    1       27.091 -12.548   6.694  0.00  0.00    +0.209 HD
ENDBRANCH  29  30
ENDBRANCH  22  29
ENDBRANCH   1  17
TORSDOF 12
ENDMDL
MODEL 7
REMARK VINA RESULT:      -0.6      1.480      6.731
REMARK  Name = *****
REMARK                            x       y       z     vdW  Elec       q    Type
REMARK                         _______ _______ _______ _____ _____    ______ ____
ROOT
ATOM      1  O   LIG    1       24.959 -17.921   3.553  0.00  0.00    -0.340 OA
ENDROOT
BRANCH   1   6
ATOM      2  C   LIG    1       24.675 -14.375   4.060  0.00  0.00    +0.178 C 
ATOM      3  C   LIG    1       25.876 -13.893   3.237  0.00  0.00    +0.177 C 
ATOM      4  C   LIG    1       27.079 -14.754   3.621  0.00  0.00    +0.179 C 
ATOM      5  C   LIG    1       26.796 -16.250   3.437  0.00  0.00    +0.201 C 
ATOM      6  C   LIG    1       25.420 -16.648   4.024  0.00  0.00    +0.282 C 
ATOM      7  O   LIG    1       24.387 -15.720   3.653  0.00  0.00    -0.341 OA
BRANCH   3   8
ATOM      8  O   LIG    1       25.648 -14.069   1.824  0.00  0.00    -0.387 OA
ATOM      9  H   LIG    1       26.450 -13.757   1.360  0.00  0.00    +0.210 HD
ENDBRANCH   3   8
BRANCH   4  10
ATOM     10  O   LIG    1       28.221 -14.419   2.818  0.00  0.00    -0.386 OA
ATOM     11  H   LIG    1       28.319 -15.157   2.178  0.00  0.00    +0.210 HD
ENDBRANCH   4  10
BRANCH   5  12
ATOM     12  O   LIG    1       27.869 -16.982   4.068  0.00  0.00    -0.384 OA
ATOM     13  H   LIG    1       27.676 -17.926   3.879  0.00  0.00    +0.210 HD
ENDBRANCH   5  12
BRANCH   2  14
ATOM     14  C   LIG    1       23.432 -13.511   3.843  0.00  0.00    +0.190 C 
BRANCH  14  15
ATOM     15  O   LIG    1       23.745 -12.395   3.019  0.00  0.00    -0.392 OA
ATOM     16  H   LIG    1       24.409 -11.870   3.491  0.00  0.00    +0.209 HD
ENDBRANCH  14  15
ENDBRANCH   2  14
ENDBRANCH   1   6
BRANCH   1  17
ATOM     17  C   LIG    1       24.869 -19.006   4.496  0.00  0.00    +0.183 C 
ATOM     18  C   LIG    1       23.617 -18.895   5.390  0.00  0.00    +0.179 C 
ATOM     19  C   LIG    1       22.341 -19.059   4.553  0.00  0.00    +0.201 C 
ATOM     20  C   LIG    1       22.394 -20.380   3.758  0.00  0.00    +0.279 C 
ATOM     21  O   LIG    1       23.575 -20.477   2.965  0.00  0.00    -0.341 OA
ATOM     22  C   LIG    1       24.828 -20.307   3.654  0.00  0.00    +0.178 C 
BRANCH  18  23
ATOM     23  O   LIG    1       23.646 -19.876   6.434  0.00  0.00    -0.386 OA
ATOM     24  H   LIG    1       23.964 -19.417   7.237  0.00  0.00    +0.210 HD
ENDBRANCH  18  23
BRANCH  19  25
ATOM     25  O   LIG    1       22.178 -17.939   3.672  0.00  0.00    -0.384 OA
ATOM     26  H   LIG    1       22.523 -17.153   4.148  0.00  0.00    +0.210 HD
ENDBRANCH  19  25
BRANCH  20  27
ATOM     27  O   LIG    1       22.239 -21.528   4.575  0.00  0.00    -0.365 OA
ATOM     28  H   LIG    1       23.109 -21.712   4.983  0.00  0.00    +0.213 HD
ENDBRANCH  20  27
BRANCH  22  29
ATOM     29  C   LIG    1       25.230 -21.572   4.434  0.00  0.00    +0.190 C 
BRANCH  29  30
ATOM     30  O   LIG    1       26.119 -21.232   5.497  0.00  0.00    -0.392 OA
ATOM     31  H   LIG    1       26.862 -20.760   5.069  0.00  0.00    +0.209 HD
ENDBRANCH  29  30
ENDBRANCH  22  29
ENDBRANCH   1  17
TORSDOF 12
ENDMDL
