MODEL 1
REMARK VINA RESULT:      -8.2      0.000      0.000
REMARK  Name = *****
REMARK                            x       y       z     vdW  Elec       q    Type
REMARK                         _______ _______ _______ _____ _____    ______ ____
ROOT
ATOM      1  S   LIG    1       26.417 -21.414   7.799  0.00  0.00    +0.075 S 
ATOM      2  O   LIG    1       26.721 -20.342   8.719  0.00  0.00    -0.150 OA
ATOM      3  O   LIG    1       25.956 -22.699   8.301  0.00  0.00    -0.150 OA
ENDROOT
BRANCH   1   4
ATOM      4  C   LIG    1       25.228 -20.802   6.636  0.00  0.00    +0.109 A 
ATOM      5  C   LIG    1       25.628 -20.401   5.357  0.00  0.00    +0.030 A 
ATOM      6  C   LIG    1       24.659 -19.933   4.460  0.00  0.00    +0.024 A 
ATOM      7  C   LIG    1       23.307 -19.889   4.820  0.00  0.00    +0.025 A 
ATOM      8  C   LIG    1       22.949 -20.212   6.132  0.00  0.00    +0.024 A 
ATOM      9  C   LIG    1       23.902 -20.674   7.035  0.00  0.00    +0.030 A 
BRANCH   7  10
ATOM     10  N   LIG    1       22.362 -19.311   3.965  0.00  0.00    -0.358 N 
ATOM     11  H   LIG    1       22.345 -19.719   3.036  0.00  0.00    +0.142 HD
ATOM     12  H   LIG    1       21.434 -19.241   4.372  0.00  0.00    +0.142 HD
ENDBRANCH   7  10
ENDBRANCH   1   4
BRANCH   1  13
ATOM     13  N   LIG    1       27.789 -21.638   6.874  0.00  0.00    -0.184 N 
ATOM     14  H   LIG    1       27.563 -21.531   5.890  0.00  0.00    +0.177 HD
BRANCH  13  18
ATOM     15  C   LIG    1       31.017 -19.254   7.587  0.00  0.00    +0.156 A 
ATOM     16  C   LIG    1       30.094 -19.023   6.588  0.00  0.00    +0.161 A 
ATOM     17  N   LIG    1       29.010 -19.792   6.364  0.00  0.00    -0.218 NA
ATOM     18  C   LIG    1       28.861 -20.816   7.202  0.00  0.00    +0.235 A 
ATOM     19  N   LIG    1       29.686 -21.173   8.189  0.00  0.00    -0.218 NA
ATOM     20  C   LIG    1       30.767 -20.376   8.352  0.00  0.00    +0.161 A 
BRANCH  15  22
ATOM     21  C   LIG    1       31.991 -17.606   8.937  0.00  0.00    +0.277 C 
ATOM     22  O   LIG    1       32.128 -18.512   7.841  0.00  0.00    -0.492 OA
ENDBRANCH  15  22
ENDBRANCH  13  18
ENDBRANCH   1  13
TORSDOF 5
ENDMDL
MODEL 2
REMARK VINA RESULT:      -8.1      3.212      4.917
REMARK  Name = *****
REMARK                            x       y       z     vdW  Elec       q    Type
REMARK                         _______ _______ _______ _____ _____    ______ ____
ROOT
ATOM      1  S   LIG    1       30.741 -19.565   8.186  0.00  0.00    +0.075 S 
ATOM      2  O   LIG    1       30.799 -20.200   9.483  0.00  0.00    -0.150 OA
ATOM      3  O   LIG    1       31.838 -19.727   7.245  0.00  0.00    -0.150 OA
ENDROOT
BRANCH   1   4
ATOM      4  C   LIG    1       29.240 -20.086   7.401  0.00  0.00    +0.109 A 
ATOM      5  C   LIG    1       28.531 -21.189   7.886  0.00  0.00    +0.030 A 
ATOM      6  C   LIG    1       27.342 -21.564   7.248  0.00  0.00    +0.024 A 
ATOM      7  C   LIG    1       26.851 -20.837   6.157  0.00  0.00    +0.025 A 
ATOM      8  C   LIG    1       27.624 -19.795   5.639  0.00  0.00    +0.024 A 
ATOM      9  C   LIG    1       28.810 -19.413   6.261  0.00  0.00    +0.030 A 
BRANCH   7  10
ATOM     10  N   LIG    1       25.729 -21.286   5.451  0.00  0.00    -0.358 N 
ATOM     11  H   LIG    1       24.938 -20.652   5.489  0.00  0.00    +0.142 HD
ATOM     12  H   LIG    1       25.938 -21.582   4.501  0.00  0.00    +0.142 HD
ENDBRANCH   7  10
ENDBRANCH   1   4
BRANCH   1  13
ATOM     13  N   LIG    1       30.489 -17.939   8.472  0.00  0.00    -0.184 N 
ATOM     14  H   LIG    1       29.494 -17.754   8.554  0.00  0.00    +0.177 HD
BRANCH  13  18
ATOM     15  C   LIG    1       32.293 -16.218  11.697  0.00  0.00    +0.156 A 
ATOM     16  C   LIG    1       30.931 -16.411  11.587  0.00  0.00    +0.161 A 
ATOM     17  N   LIG    1       30.330 -17.003  10.536  0.00  0.00    -0.218 NA
ATOM     18  C   LIG    1       31.155 -17.427   9.579  0.00  0.00    +0.235 A 
ATOM     19  N   LIG    1       32.482 -17.283   9.541  0.00  0.00    -0.218 NA
ATOM     20  C   LIG    1       33.025 -16.663  10.613  0.00  0.00    +0.161 A 
BRANCH  15  22
ATOM     21  C   LIG    1       32.342 -15.851  14.010  0.00  0.00    +0.277 C 
ATOM     22  O   LIG    1       32.938 -15.617  12.733  0.00  0.00    -0.492 OA
ENDBRANCH  15  22
ENDBRANCH  13  18
ENDBRANCH   1  13
TORSDOF 5
ENDMDL
MODEL 3
REMARK VINA RESULT:      -8.0      2.637      3.243
REMARK  Name = *****
REMARK                            x       y       z     vdW  Elec       q    Type
REMARK                         _______ _______ _______ _____ _____    ______ ____
ROOT
ATOM      1  S   LIG    1       26.254 -21.458   7.648  0.00  0.00    +0.075 S 
ATOM      2  O   LIG    1       25.454 -20.372   7.130  0.00  0.00    -0.150 OA
ATOM      3  O   LIG    1       26.510 -21.560   9.076  0.00  0.00    -0.150 OA
ENDROOT
BRANCH   1   4
ATOM      4  C   LIG    1       25.522 -22.975   7.095  0.00  0.00    +0.109 A 
ATOM      5  C   LIG    1       24.132 -23.106   7.022  0.00  0.00    +0.030 A 
ATOM      6  C   LIG    1       23.588 -24.314   6.568  0.00  0.00    +0.024 A 
ATOM      7  C   LIG    1       24.416 -25.370   6.169  0.00  0.00    +0.025 A 
ATOM      8  C   LIG    1       25.798 -25.243   6.336  0.00  0.00    +0.024 A 
ATOM      9  C   LIG    1       26.352 -24.049   6.789  0.00  0.00    +0.030 A 
BRANCH   7  10
ATOM     10  N   LIG    1       23.870 -26.614   5.832  0.00  0.00    -0.358 N 
ATOM     11  H   LIG    1       24.561 -27.312   5.580  0.00  0.00    +0.142 HD
ATOM     12  H   LIG    1       23.201 -26.963   6.513  0.00  0.00    +0.142 HD
ENDBRANCH   7  10
ENDBRANCH   1   4
BRANCH   1  13
ATOM     13  N   LIG    1       27.707 -21.403   6.825  0.00  0.00    -0.184 N 
ATOM     14  H   LIG    1       27.587 -20.902   5.950  0.00  0.00    +0.177 HD
BRANCH  13  18
ATOM     15  C   LIG    1       30.901 -19.692   8.691  0.00  0.00    +0.156 A 
ATOM     16  C   LIG    1       29.971 -18.988   7.954  0.00  0.00    +0.161 A 
ATOM     17  N   LIG    1       28.898 -19.543   7.357  0.00  0.00    -0.218 NA
ATOM     18  C   LIG    1       28.767 -20.856   7.538  0.00  0.00    +0.235 A 
ATOM     19  N   LIG    1       29.599 -21.663   8.200  0.00  0.00    -0.218 NA
ATOM     20  C   LIG    1       30.669 -21.052   8.760  0.00  0.00    +0.161 A 
BRANCH  15  22
ATOM     21  C   LIG    1       32.012 -17.747   9.378  0.00  0.00    +0.277 C 
ATOM     22  O   LIG    1       32.001 -19.175   9.300  0.00  0.00    -0.492 OA
ENDBRANCH  15  22
ENDBRANCH  13  18
ENDBRANCH   1  13
TORSDOF 5
ENDMDL
MODEL 4
REMARK VINA RESULT:      -7.7      2.606      7.190
REMARK  Name = *****
REMARK                            x       y       z     vdW  Elec       q    Type
REMARK                         _______ _______ _______ _____ _____    ______ ____
ROOT
ATOM      1  S   LIG    1       30.638 -18.965   7.426  0.00  0.00    +0.075 S 
ATOM      2  O   LIG    1       29.791 -18.157   6.578  0.00  0.00    -0.150 OA
ATOM      3  O   LIG    1       31.873 -19.527   6.902  0.00  0.00    -0.150 OA
ENDROOT
BRANCH   1   4
ATOM      4  C   LIG    1       31.019 -18.009   8.869  0.00  0.00    +0.109 A 
ATOM      5  C   LIG    1       32.244 -17.344   8.977  0.00  0.00    +0.030 A 
ATOM      6  C   LIG    1       32.506 -16.588  10.127  0.00  0.00    +0.024 A 
ATOM      7  C   LIG    1       31.551 -16.474  11.145  0.00  0.00    +0.025 A 
ATOM      8  C   LIG    1       30.373 -17.219  11.050  0.00  0.00    +0.024 A 
ATOM      9  C   LIG    1       30.101 -17.978   9.915  0.00  0.00    +0.030 A 
BRANCH   7  10
ATOM     10  N   LIG    1       31.863 -15.817  12.341  0.00  0.00    -0.358 N 
ATOM     11  H   LIG    1       32.659 -15.192  12.271  0.00  0.00    +0.142 HD
ATOM     12  H   LIG    1       31.062 -15.372  12.782  0.00  0.00    +0.142 HD
ENDBRANCH   7  10
ENDBRANCH   1   4
BRANCH   1  13
ATOM     13  N   LIG    1       29.673 -20.195   8.015  0.00  0.00    -0.184 N 
ATOM     14  H   LIG    1       29.642 -20.152   9.029  0.00  0.00    +0.177 HD
BRANCH  13  18
ATOM     15  C   LIG    1       25.839 -20.496   6.666  0.00  0.00    +0.156 A 
ATOM     16  C   LIG    1       26.184 -20.436   8.001  0.00  0.00    +0.161 A 
ATOM     17  N   LIG    1       27.447 -20.309   8.453  0.00  0.00    -0.218 NA
ATOM     18  C   LIG    1       28.380 -20.223   7.506  0.00  0.00    +0.235 A 
ATOM     19  N   LIG    1       28.195 -20.294   6.186  0.00  0.00    -0.218 NA
ATOM     20  C   LIG    1       26.908 -20.443   5.793  0.00  0.00    +0.161 A 
BRANCH  15  22
ATOM     21  C   LIG    1       23.580 -20.874   7.158  0.00  0.00    +0.277 C 
ATOM     22  O   LIG    1       24.581 -20.635   6.167  0.00  0.00    -0.492 OA
ENDBRANCH  15  22
ENDBRANCH  13  18
ENDBRANCH   1  13
TORSDOF 5
ENDMDL
MODEL 5
REMARK VINA RESULT:      -7.4      3.905      6.716
REMARK  Name = *****
REMARK                            x       y       z     vdW  Elec       q    Type
REMARK                         _______ _______ _______ _____ _____    ______ ____
ROOT
ATOM      1  S   LIG    1       24.159 -21.360   6.269  0.00  0.00    +0.075 S 
ATOM      2  O   LIG    1       23.237 -20.378   6.792  0.00  0.00    -0.150 OA
ATOM      3  O   LIG    1       24.063 -21.787   4.883  0.00  0.00    -0.150 OA
ENDROOT
BRANCH   1   4
ATOM      4  C   LIG    1       25.802 -20.763   6.565  0.00  0.00    +0.109 A 
ATOM      5  C   LIG    1       26.309 -20.696   7.866  0.00  0.00    +0.030 A 
ATOM      6  C   LIG    1       27.616 -20.231   8.061  0.00  0.00    +0.024 A 
ATOM      7  C   LIG    1       28.417 -19.861   6.974  0.00  0.00    +0.025 A 
ATOM      8  C   LIG    1       27.855 -19.854   5.695  0.00  0.00    +0.024 A 
ATOM      9  C   LIG    1       26.556 -20.311   5.487  0.00  0.00    +0.030 A 
BRANCH   7  10
ATOM     10  N   LIG    1       29.675 -19.285   7.182  0.00  0.00    -0.358 N 
ATOM     11  H   LIG    1       29.845 -18.454   6.625  0.00  0.00    +0.142 HD
ATOM     12  H   LIG    1       29.901 -19.143   8.163  0.00  0.00    +0.142 HD
ENDBRANCH   7  10
ENDBRANCH   1   4
BRANCH   1  13
ATOM     13  N   LIG    1       24.041 -22.692   7.271  0.00  0.00    -0.184 N 
ATOM     14  H   LIG    1       23.081 -22.807   7.579  0.00  0.00    +0.177 HD
BRANCH  13  18
ATOM     15  C   LIG    1       25.259 -26.312   5.848  0.00  0.00    +0.156 A 
ATOM     16  C   LIG    1       23.937 -25.937   5.971  0.00  0.00    +0.161 A 
ATOM     17  N   LIG    1       23.528 -24.732   6.415  0.00  0.00    -0.218 NA
ATOM     18  C   LIG    1       24.506 -23.882   6.724  0.00  0.00    +0.235 A 
ATOM     19  N   LIG    1       25.819 -24.118   6.680  0.00  0.00    -0.218 NA
ATOM     20  C   LIG    1       26.168 -25.351   6.246  0.00  0.00    +0.161 A 
BRANCH  15  22
ATOM     21  C   LIG    1       24.711 -28.533   5.343  0.00  0.00    +0.277 C 
ATOM     22  O   LIG    1       25.715 -27.518   5.415  0.00  0.00    -0.492 OA
ENDBRANCH  15  22
ENDBRANCH  13  18
ENDBRANCH   1  13
TORSDOF 5
ENDMDL
MODEL 6
REMARK VINA RESULT:      -7.3      7.072      9.019
REMARK  Name = *****
REMARK                            x       y       z     vdW  Elec       q    Type
REMARK                         _______ _______ _______ _____ _____    ______ ____
ROOT
ATOM      1  S   LIG    1       25.523 -26.354   5.973  0.00  0.00    +0.075 S 
ATOM      2  O   LIG    1       25.954 -26.214   4.601  0.00  0.00    -0.150 OA
ATOM      3  O   LIG    1       26.448 -26.843   6.983  0.00  0.00    -0.150 OA
ENDROOT
BRANCH   1   4
ATOM      4  C   LIG    1       24.891 -24.783   6.498  0.00  0.00    +0.109 A 
ATOM      5  C   LIG    1       25.752 -23.807   7.010  0.00  0.00    +0.030 A 
ATOM      6  C   LIG    1       25.219 -22.573   7.403  0.00  0.00    +0.024 A 
ATOM      7  C   LIG    1       23.852 -22.304   7.267  0.00  0.00    +0.025 A 
ATOM      8  C   LIG    1       23.003 -23.327   6.837  0.00  0.00    +0.024 A 
ATOM      9  C   LIG    1       23.519 -24.560   6.446  0.00  0.00    +0.030 A 
BRANCH   7  10
ATOM     10  N   LIG    1       23.307 -21.117   7.772  0.00  0.00    -0.358 N 
ATOM     11  H   LIG    1       22.608 -21.260   8.493  0.00  0.00    +0.142 HD
ATOM     12  H   LIG    1       24.007 -20.433   8.046  0.00  0.00    +0.142 HD
ENDBRANCH   7  10
ENDBRANCH   1   4
BRANCH   1  13
ATOM     13  N   LIG    1       24.168 -27.329   5.941  0.00  0.00    -0.184 N 
ATOM     14  H   LIG    1       23.631 -27.144   5.099  0.00  0.00    +0.177 HD
BRANCH  13  18
ATOM     15  C   LIG    1       25.025 -31.277   6.486  0.00  0.00    +0.156 A 
ATOM     16  C   LIG    1       24.300 -30.514   7.380  0.00  0.00    +0.161 A 
ATOM     17  N   LIG    1       23.991 -29.216   7.193  0.00  0.00    -0.218 NA
ATOM     18  C   LIG    1       24.421 -28.692   6.047  0.00  0.00    +0.235 A 
ATOM     19  N   LIG    1       25.151 -29.300   5.109  0.00  0.00    -0.218 NA
ATOM     20  C   LIG    1       25.448 -30.595   5.361  0.00  0.00    +0.161 A 
BRANCH  15  22
ATOM     21  C   LIG    1       26.722 -32.880   6.289  0.00  0.00    +0.277 C 
ATOM     22  O   LIG    1       25.368 -32.584   6.639  0.00  0.00    -0.492 OA
ENDBRANCH  15  22
ENDBRANCH  13  18
ENDBRANCH   1  13
TORSDOF 5
ENDMDL
MODEL 7
REMARK VINA RESULT:      -7.3      3.910      6.681
REMARK  Name = *****
REMARK                            x       y       z     vdW  Elec       q    Type
REMARK                         _______ _______ _______ _____ _____    ______ ____
ROOT
ATOM      1  S   LIG    1       24.232 -21.378   6.299  0.00  0.00    +0.075 S 
ATOM      2  O   LIG    1       23.303 -20.397   6.813  0.00  0.00    -0.150 OA
ATOM      3  O   LIG    1       24.149 -21.806   4.912  0.00  0.00    -0.150 OA
ENDROOT
BRANCH   1   4
ATOM      4  C   LIG    1       25.870 -20.777   6.609  0.00  0.00    +0.109 A 
ATOM      5  C   LIG    1       26.682 -20.352   5.552  0.00  0.00    +0.030 A 
ATOM      6  C   LIG    1       27.967 -19.871   5.836  0.00  0.00    +0.024 A 
ATOM      7  C   LIG    1       28.430 -19.791   7.155  0.00  0.00    +0.025 A 
ATOM      8  C   LIG    1       27.632 -20.305   8.181  0.00  0.00    +0.024 A 
ATOM      9  C   LIG    1       26.354 -20.789   7.913  0.00  0.00    +0.030 A 
BRANCH   7  10
ATOM     10  N   LIG    1       29.753 -19.424   7.422  0.00  0.00    -0.358 N 
ATOM     11  H   LIG    1       30.103 -18.684   6.823  0.00  0.00    +0.142 HD
ATOM     12  H   LIG    1       29.935 -19.242   8.405  0.00  0.00    +0.142 HD
ENDBRANCH   7  10
ENDBRANCH   1   4
BRANCH   1  13
ATOM     13  N   LIG    1       24.108 -22.709   7.300  0.00  0.00    -0.184 N 
ATOM     14  H   LIG    1       23.152 -22.807   7.626  0.00  0.00    +0.177 HD
BRANCH  13  18
ATOM     15  C   LIG    1       25.231 -26.348   5.848  0.00  0.00    +0.156 A 
ATOM     16  C   LIG    1       23.918 -25.942   5.981  0.00  0.00    +0.161 A 
ATOM     17  N   LIG    1       23.541 -24.731   6.435  0.00  0.00    -0.218 NA
ATOM     18  C   LIG    1       24.541 -23.906   6.743  0.00  0.00    +0.235 A 
ATOM     19  N   LIG    1       25.847 -24.173   6.691  0.00  0.00    -0.218 NA
ATOM     20  C   LIG    1       26.164 -25.412   6.247  0.00  0.00    +0.161 A 
BRANCH  15  22
ATOM     21  C   LIG    1       24.631 -28.557   5.350  0.00  0.00    +0.277 C 
ATOM     22  O   LIG    1       25.655 -27.562   5.405  0.00  0.00    -0.492 OA
ENDBRANCH  15  22
ENDBRANCH  13  18
ENDBRANCH   1  13
TORSDOF 5
ENDMDL
MODEL 8
REMARK VINA RESULT:      -7.3      4.986      6.992
REMARK  Name = *****
REMARK                            x       y       z     vdW  Elec       q    Type
REMARK                         _______ _______ _______ _____ _____    ______ ____
ROOT
ATOM      1  S   LIG    1       24.479 -23.372   6.236  0.00  0.00    +0.075 S 
ATOM      2  O   LIG    1       25.728 -23.162   6.933  0.00  0.00    -0.150 OA
ATOM      3  O   LIG    1       23.341 -23.948   6.934  0.00  0.00    -0.150 OA
ENDROOT
BRANCH   1   4
ATOM      4  C   LIG    1       23.988 -21.819   5.537  0.00  0.00    +0.109 A 
ATOM      5  C   LIG    1       24.574 -21.356   4.355  0.00  0.00    +0.030 A 
ATOM      6  C   LIG    1       24.152 -20.130   3.825  0.00  0.00    +0.024 A 
ATOM      7  C   LIG    1       23.144 -19.385   4.450  0.00  0.00    +0.025 A 
ATOM      8  C   LIG    1       22.641 -19.828   5.675  0.00  0.00    +0.024 A 
ATOM      9  C   LIG    1       23.053 -21.043   6.216  0.00  0.00    +0.030 A 
BRANCH   7  10
ATOM     10  N   LIG    1       22.812 -18.108   3.984  0.00  0.00    -0.358 N 
ATOM     11  H   LIG    1       23.428 -17.763   3.255  0.00  0.00    +0.142 HD
ATOM     12  H   LIG    1       21.832 -18.006   3.738  0.00  0.00    +0.142 HD
ENDBRANCH   7  10
ENDBRANCH   1   4
BRANCH   1  13
ATOM     13  N   LIG    1       24.842 -24.305   4.899  0.00  0.00    -0.184 N 
ATOM     14  H   LIG    1       25.672 -23.942   4.440  0.00  0.00    +0.177 HD
BRANCH  13  18
ATOM     15  C   LIG    1       25.382 -28.314   5.393  0.00  0.00    +0.156 A 
ATOM     16  C   LIG    1       26.360 -27.455   4.934  0.00  0.00    +0.161 A 
ATOM     17  N   LIG    1       26.197 -26.125   4.794  0.00  0.00    -0.218 NA
ATOM     18  C   LIG    1       25.000 -25.662   5.153  0.00  0.00    +0.235 A 
ATOM     19  N   LIG    1       23.959 -26.376   5.585  0.00  0.00    -0.218 NA
ATOM     20  C   LIG    1       24.176 -27.708   5.685  0.00  0.00    +0.161 A 
BRANCH  15  22
ATOM     21  C   LIG    1       24.547 -30.241   6.432  0.00  0.00    +0.277 C 
ATOM     22  O   LIG    1       25.501 -29.661   5.539  0.00  0.00    -0.492 OA
ENDBRANCH  15  22
ENDBRANCH  13  18
ENDBRANCH   1  13
TORSDOF 5
ENDMDL
MODEL 9
REMARK VINA RESULT:      -7.2      2.605      7.156
REMARK  Name = *****
REMARK                            x       y       z     vdW  Elec       q    Type
REMARK                         _______ _______ _______ _____ _____    ______ ____
ROOT
ATOM      1  S   LIG    1       30.698 -19.695   7.983  0.00  0.00    +0.075 S 
ATOM      2  O   LIG    1       31.752 -19.742   6.995  0.00  0.00    -0.150 OA
ATOM      3  O   LIG    1       30.306 -20.904   8.690  0.00  0.00    -0.150 OA
ENDROOT
BRANCH   1   4
ATOM      4  C   LIG    1       31.136 -18.458   9.175  0.00  0.00    +0.109 A 
ATOM      5  C   LIG    1       32.219 -17.605   8.946  0.00  0.00    +0.030 A 
ATOM      6  C   LIG    1       32.529 -16.631   9.905  0.00  0.00    +0.024 A 
ATOM      7  C   LIG    1       31.756 -16.492  11.064  0.00  0.00    +0.025 A 
ATOM      8  C   LIG    1       30.735 -17.415  11.308  0.00  0.00    +0.024 A 
ATOM      9  C   LIG    1       30.419 -18.390  10.365  0.00  0.00    +0.030 A 
BRANCH   7  10
ATOM     10  N   LIG    1       32.140 -15.600  12.071  0.00  0.00    -0.358 N 
ATOM     11  H   LIG    1       32.075 -15.984  13.008  0.00  0.00    +0.142 HD
ATOM     12  H   LIG    1       33.037 -15.155  11.900  0.00  0.00    +0.142 HD
ENDBRANCH   7  10
ENDBRANCH   1   4
BRANCH   1  13
ATOM     13  N   LIG    1       29.366 -19.043   7.215  0.00  0.00    -0.184 N 
ATOM     14  H   LIG    1       29.582 -18.872   6.238  0.00  0.00    +0.177 HD
BRANCH  13  18
ATOM     15  C   LIG    1       25.838 -21.080   7.340  0.00  0.00    +0.156 A 
ATOM     16  C   LIG    1       26.524 -20.798   6.176  0.00  0.00    +0.161 A 
ATOM     17  N   LIG    1       27.704 -20.148   6.130  0.00  0.00    -0.218 NA
ATOM     18  C   LIG    1       28.202 -19.796   7.314  0.00  0.00    +0.235 A 
ATOM     19  N   LIG    1       27.637 -19.979   8.510  0.00  0.00    -0.218 NA
ATOM     20  C   LIG    1       26.445 -20.617   8.491  0.00  0.00    +0.161 A 
BRANCH  15  22
ATOM     21  C   LIG    1       23.513 -20.909   7.106  0.00  0.00    +0.277 C 
ATOM     22  O   LIG    1       24.642 -21.722   7.432  0.00  0.00    -0.492 OA
ENDBRANCH  15  22
ENDBRANCH  13  18
ENDBRANCH   1  13
TORSDOF 5
ENDMDL
