MODEL 1
REMARK VINA RESULT:      66.1      0.000      0.000
REMARK  Name = *****
REMARK                            x       y       z     vdW  Elec       q    Type
REMARK                         _______ _______ _______ _____ _____    ______ ____
ROOT
ATOM      1  C   LIG    1       22.145 -15.493   1.849  0.00  0.00    +0.007 C 
ENDROOT
BRANCH   1   2
ATOM      2  C   LIG    1       21.315 -14.894   2.969  0.00  0.00    +0.041 C 
BRANCH   2   3
ATOM      3  C   LIG    1       19.854 -15.044   2.643  0.00  0.00    +0.232 C 
BRANCH   3   4
ATOM      4  O   LIG    1       19.731 -16.254   1.890  0.00  0.00    -0.465 OA
BRANCH   4   5
ATOM      5  C   LIG    1       19.484 -17.340   2.664  0.00  0.00    +0.312 C 
ATOM      6  O   LIG    1       19.406 -17.353   3.884  0.00  0.00    -0.251 OA
BRANCH   5   7
ATOM      7  C   LIG    1       19.354 -18.570   1.814  0.00  0.00    +0.171 C 
BRANCH   7   8
ATOM      8  C   LIG    1       20.684 -19.282   1.966  0.00  0.00    +0.145 C 
BRANCH   8   9
ATOM      9  N   LIG    1       20.904 -20.161   3.229  0.00  0.00    +0.247 N 
ATOM     10  C   LIG    1       22.456 -20.099   3.672  0.00  0.00    +0.102 C 
ATOM     11  C   LIG    1       22.651 -18.886   4.552  0.00  0.00    +0.008 A 
ATOM     12  C   LIG    1       21.670 -18.575   5.489  0.00  0.00    -0.030 A 
ATOM     13  C   LIG    1       21.760 -17.403   6.221  0.00  0.00    +0.053 A 
ATOM     14  C   LIG    1       22.822 -16.497   6.073  0.00  0.00    +0.162 A 
ATOM     15  C   LIG    1       23.801 -16.755   5.074  0.00  0.00    +0.162 A 
ATOM     16  C   LIG    1       20.472 -19.446   5.670  0.00  0.00    +0.086 C 
ATOM     17  C   LIG    1       23.701 -17.975   4.353  0.00  0.00    +0.059 A 
ATOM     18  C   LIG    1       19.865 -19.746   4.321  0.00  0.00    +0.138 C 
ATOM     19  C   LIG    1       20.510 -21.570   2.797  0.00  0.00    +0.193 C 
BRANCH  14  20
ATOM     20  O   LIG    1       22.632 -15.542   7.051  0.00  0.00    -0.491 OA
ATOM     21  C   LIG    1       21.671 -14.563   6.812  0.00  0.00    +0.277 C 
ENDBRANCH  14  20
BRANCH  15  22
ATOM     22  O   LIG    1       24.890 -16.051   4.582  0.00  0.00    -0.491 OA
ATOM     23  C   LIG    1       26.139 -16.221   5.197  0.00  0.00    +0.277 C 
ENDBRANCH  15  22
BRANCH  10  24
ATOM     24  C   LIG    1       23.008 -21.446   4.268  0.00  0.00    +0.095 C 
BRANCH  24  25
ATOM     25  C   LIG    1       24.342 -21.385   5.007  0.00  0.00    -0.038 A 
ATOM     26  C   LIG    1       25.550 -21.202   4.307  0.00  0.00    +0.053 A 
ATOM     27  C   LIG    1       26.792 -21.122   4.972  0.00  0.00    +0.162 A 
ATOM     28  C   LIG    1       26.848 -21.336   6.361  0.00  0.00    +0.162 A 
ATOM     29  C   LIG    1       25.650 -21.531   7.057  0.00  0.00    +0.050 A 
ATOM     30  C   LIG    1       24.417 -21.559   6.392  0.00  0.00    +0.007 A 
BRANCH  28  31
ATOM     31  O   LIG    1       28.068 -21.307   7.000  0.00  0.00    -0.491 OA
ATOM     32  C   LIG    1       29.213 -21.382   6.138  0.00  0.00    +0.277 C 
ENDBRANCH  28  31
BRANCH  27  33
ATOM     33  O   LIG    1       27.968 -20.866   4.306  0.00  0.00    -0.491 OA
ATOM     34  C   LIG    1       27.883 -20.819   2.882  0.00  0.00    +0.277 C 
ENDBRANCH  27  33
ENDBRANCH  24  25
ENDBRANCH  10  24
ENDBRANCH   8   9
ENDBRANCH   7   8
ENDBRANCH   5   7
ENDBRANCH   4   5
ENDBRANCH   3   4
ENDBRANCH   2   3
ENDBRANCH   1   2
BRANCH   1  35
ATOM     35  C   LIG    1       23.532 -15.657   2.320  0.00  0.00    +0.041 C 
BRANCH  35  36
ATOM     36  C   LIG    1       23.949 -14.384   3.126  0.00  0.00    +0.232 C 
BRANCH  36  37
ATOM     37  O   LIG    1       25.320 -14.295   3.301  0.00  0.00    -0.465 OA
BRANCH  37  38
ATOM     38  C   LIG    1       25.665 -14.305   4.516  0.00  0.00    +0.312 C 
ATOM     39  O   LIG    1       25.666 -15.507   5.123  0.00  0.00    -0.251 OA
BRANCH  38  40
ATOM     40  C   LIG    1       25.997 -13.090   5.181  0.00  0.00    +0.171 C 
BRANCH  40  41
ATOM     41  C   LIG    1       27.410 -12.608   4.945  0.00  0.00    +0.145 C 
BRANCH  41  43
ATOM     42  C   LIG    1       27.242 -13.573   2.379  0.00  0.00    +0.102 C 
ATOM     43  N   LIG    1       28.132 -12.854   3.589  0.00  0.00    +0.247 N 
ATOM     44  C   LIG    1       28.651 -11.449   3.248  0.00  0.00    +0.193 C 
ATOM     45  C   LIG    1       29.465 -13.596   3.558  0.00  0.00    +0.138 C 
ATOM     46  C   LIG    1       29.389 -15.064   3.839  0.00  0.00    +0.086 C 
ATOM     47  C   LIG    1       28.180 -15.790   3.299  0.00  0.00    -0.030 A 
ATOM     48  C   LIG    1       28.097 -17.177   3.698  0.00  0.00    +0.053 A 
ATOM     49  C   LIG    1       26.926 -17.956   3.562  0.00  0.00    +0.162 A 
ATOM     50  C   LIG    1       25.851 -17.325   2.763  0.00  0.00    +0.162 A 
ATOM     51  C   LIG    1       25.993 -15.942   2.281  0.00  0.00    +0.059 A 
ATOM     52  C   LIG    1       27.115 -15.122   2.626  0.00  0.00    +0.008 A 
BRANCH  50  53
ATOM     53  O   LIG    1       24.645 -17.998   2.606  0.00  0.00    -0.491 OA
ATOM     54  C   LIG    1       24.608 -19.405   2.277  0.00  0.00    +0.277 C 
ENDBRANCH  50  53
BRANCH  49  55
ATOM     55  O   LIG    1       26.715 -19.059   4.556  0.00  0.00    -0.491 OA
ATOM     56  C   LIG    1       26.532 -18.929   6.169  0.00  0.00    +0.277 C 
ENDBRANCH  49  55
BRANCH  42  57
ATOM     57  C   LIG    1       25.980 -12.734   1.900  0.00  0.00    +0.095 C 
BRANCH  57  61
ATOM     58  C   LIG    1       22.832 -11.732   4.840  0.00  0.00    +0.162 A 
ATOM     59  C   LIG    1       24.120 -11.985   5.256  0.00  0.00    +0.162 A 
ATOM     60  C   LIG    1       25.117 -11.965   4.250  0.00  0.00    +0.053 A 
ATOM     61  C   LIG    1       24.910 -12.220   2.891  0.00  0.00    -0.038 A 
ATOM     62  C   LIG    1       23.612 -11.972   2.481  0.00  0.00    +0.007 A 
ATOM     63  C   LIG    1       22.603 -11.706   3.441  0.00  0.00    +0.050 A 
BRANCH  58  65
ATOM     64  C   LIG    1       21.446 -12.328   6.699  0.00  0.00    +0.277 C 
ATOM     65  O   LIG    1       21.739 -11.448   5.615  0.00  0.00    -0.491 OA
ENDBRANCH  58  65
BRANCH  59  66
ATOM     66  O   LIG    1       24.639 -12.288   6.494  0.00  0.00    -0.491 OA
ATOM     67  C   LIG    1       25.905 -11.762   6.901  0.00  0.00    +0.277 C 
ENDBRANCH  59  66
ENDBRANCH  57  61
ENDBRANCH  42  57
ENDBRANCH  41  43
ENDBRANCH  40  41
ENDBRANCH  38  40
ENDBRANCH  37  38
ENDBRANCH  36  37
ENDBRANCH  35  36
ENDBRANCH   1  35
TORSDOF 26
ENDMDL
