MODEL 1
REMARK VINA RESULT:       4.0      0.000      0.000
REMARK  Name = *****
REMARK                            x       y       z     vdW  Elec       q    Type
REMARK                         _______ _______ _______ _____ _____    ______ ____
ROOT
ATOM      1  N   LIG    1       25.532 -15.971   3.489  0.00  0.00    -0.298 N 
ATOM      2  C   LIG    1       24.416 -16.792   3.893  0.00  0.00    +0.049 A 
ATOM      3  C   LIG    1       23.362 -16.283   4.683  0.00  0.00    +0.034 A 
ATOM      4  C   LIG    1       22.317 -17.128   5.084  0.00  0.00    +0.018 A 
ATOM      5  C   LIG    1       22.277 -18.453   4.649  0.00  0.00    +0.018 A 
ATOM      6  C   LIG    1       23.275 -18.942   3.804  0.00  0.00    +0.040 A 
ATOM      7  S   LIG    1       23.320 -14.571   5.194  0.00  0.00    -0.086 S 
ATOM      8  C   LIG    1       24.314 -13.843   3.899  0.00  0.00    +0.034 A 
ATOM      9  C   LIG    1       24.113 -12.502   3.564  0.00  0.00    +0.017 A 
ATOM     10  C   LIG    1       24.846 -11.907   2.535  0.00  0.00    +0.001 A 
ATOM     11  C   LIG    1       25.775 -12.664   1.819  0.00  0.00    +0.002 A 
ATOM     12  C   LIG    1       25.973 -14.002   2.140  0.00  0.00    +0.024 A 
ATOM     13  C   LIG    1       24.357 -18.121   3.453  0.00  0.00    +0.041 A 
ATOM     14  C   LIG    1       25.279 -14.602   3.203  0.00  0.00    +0.048 A 
ENDROOT
BRANCH   6  15
ATOM     15  S   LIG    1       23.143 -20.620   3.166  0.00  0.00    +0.051 S 
ATOM     16  O   LIG    1       23.045 -21.500   4.374  0.00  0.00    -0.252 OA
ATOM     17  C   LIG    1       24.838 -20.767   2.533  0.00  0.00    +0.127 C 
ENDBRANCH   6  15
BRANCH   1  18
ATOM     18  C   LIG    1       26.613 -16.165   4.526  0.00  0.00    +0.112 C 
BRANCH  18  19
ATOM     19  C   LIG    1       27.545 -17.389   4.346  0.00  0.00    +0.038 C 
BRANCH  19  22
ATOM     20  C   LIG    1       29.436 -19.728   4.884  0.00  0.00    +0.105 C 
ATOM     21  N   LIG    1       28.634 -19.064   5.912  0.00  0.00    -0.302 NA
ATOM     22  C   LIG    1       27.350 -18.482   5.436  0.00  0.00    +0.058 C 
ATOM     23  C   LIG    1       26.342 -19.578   5.041  0.00  0.00    +0.019 C 
ATOM     24  C   LIG    1       26.110 -20.558   6.194  0.00  0.00    +0.003 C 
ATOM     25  C   LIG    1       27.418 -21.090   6.770  0.00  0.00    +0.015 C 
ATOM     26  C   LIG    1       28.402 -19.955   7.061  0.00  0.00    +0.084 C 
ENDBRANCH  19  22
ENDBRANCH  18  19
ENDBRANCH   1  18
TORSDOF 4
ENDMDL
MODEL 2
REMARK VINA RESULT:       4.4      2.666      4.683
REMARK  Name = *****
REMARK                            x       y       z     vdW  Elec       q    Type
REMARK                         _______ _______ _______ _____ _____    ______ ____
ROOT
ATOM      1  N   LIG    1       25.468 -17.610   4.042  0.00  0.00    -0.298 N 
ATOM      2  C   LIG    1       26.800 -17.841   4.548  0.00  0.00    +0.049 A 
ATOM      3  C   LIG    1       27.870 -16.966   4.262  0.00  0.00    +0.034 A 
ATOM      4  C   LIG    1       29.155 -17.250   4.744  0.00  0.00    +0.018 A 
ATOM      5  C   LIG    1       29.370 -18.359   5.563  0.00  0.00    +0.018 A 
ATOM      6  C   LIG    1       28.302 -19.186   5.915  0.00  0.00    +0.040 A 
ATOM      7  S   LIG    1       27.630 -15.484   3.291  0.00  0.00    -0.086 S 
ATOM      8  C   LIG    1       25.891 -15.203   3.589  0.00  0.00    +0.034 A 
ATOM      9  C   LIG    1       25.391 -13.901   3.499  0.00  0.00    +0.017 A 
ATOM     10  C   LIG    1       24.045 -13.636   3.759  0.00  0.00    +0.001 A 
ATOM     11  C   LIG    1       23.193 -14.677   4.133  0.00  0.00    +0.002 A 
ATOM     12  C   LIG    1       23.686 -15.973   4.234  0.00  0.00    +0.024 A 
ATOM     13  C   LIG    1       27.027 -18.944   5.382  0.00  0.00    +0.041 A 
ATOM     14  C   LIG    1       25.026 -16.264   3.929  0.00  0.00    +0.048 A 
ENDROOT
BRANCH   6  15
ATOM     15  S   LIG    1       28.581 -20.544   7.062  0.00  0.00    +0.051 S 
ATOM     16  O   LIG    1       29.439 -21.523   6.321  0.00  0.00    -0.252 OA
ATOM     17  C   LIG    1       26.891 -21.208   7.061  0.00  0.00    +0.127 C 
ENDBRANCH   6  15
BRANCH   1  18
ATOM     18  C   LIG    1       25.357 -18.376   2.744  0.00  0.00    +0.112 C 
BRANCH  18  19
ATOM     19  C   LIG    1       24.019 -19.109   2.476  0.00  0.00    +0.038 C 
BRANCH  19  22
ATOM     20  C   LIG    1       22.290 -18.658   4.955  0.00  0.00    +0.105 C 
ATOM     21  N   LIG    1       22.375 -19.926   4.229  0.00  0.00    -0.302 NA
ATOM     22  C   LIG    1       23.673 -20.181   3.549  0.00  0.00    +0.058 C 
ATOM     23  C   LIG    1       24.806 -20.431   4.563  0.00  0.00    +0.019 C 
ATOM     24  C   LIG    1       24.451 -21.571   5.521  0.00  0.00    +0.003 C 
ATOM     25  C   LIG    1       23.075 -21.385   6.152  0.00  0.00    +0.015 C 
ATOM     26  C   LIG    1       22.015 -21.060   5.098  0.00  0.00    +0.084 C 
ENDBRANCH  19  22
ENDBRANCH  18  19
ENDBRANCH   1  18
TORSDOF 4
ENDMDL
MODEL 3
REMARK VINA RESULT:       4.8      1.988      5.865
REMARK  Name = *****
REMARK                            x       y       z     vdW  Elec       q    Type
REMARK                         _______ _______ _______ _____ _____    ______ ____
ROOT
ATOM      1  N   LIG    1       26.369 -18.456   4.623  0.00  0.00    -0.298 N 
ATOM      2  C   LIG    1       25.084 -19.113   4.610  0.00  0.00    +0.049 A 
ATOM      3  C   LIG    1       24.962 -20.518   4.681  0.00  0.00    +0.034 A 
ATOM      4  C   LIG    1       23.694 -21.114   4.628  0.00  0.00    +0.018 A 
ATOM      5  C   LIG    1       22.546 -20.323   4.572  0.00  0.00    +0.018 A 
ATOM      6  C   LIG    1       22.655 -18.931   4.581  0.00  0.00    +0.040 A 
ATOM      7  S   LIG    1       26.396 -21.572   4.841  0.00  0.00    -0.086 S 
ATOM      8  C   LIG    1       27.537 -20.422   5.597  0.00  0.00    +0.034 A 
ATOM      9  C   LIG    1       28.571 -20.919   6.395  0.00  0.00    +0.017 A 
ATOM     10  C   LIG    1       29.460 -20.051   7.030  0.00  0.00    +0.001 A 
ATOM     11  C   LIG    1       29.305 -18.671   6.884  0.00  0.00    +0.002 A 
ATOM     12  C   LIG    1       28.273 -18.169   6.101  0.00  0.00    +0.024 A 
ATOM     13  C   LIG    1       23.922 -18.330   4.568  0.00  0.00    +0.041 A 
ATOM     14  C   LIG    1       27.399 -19.030   5.416  0.00  0.00    +0.048 A 
ENDROOT
BRANCH   6  15
ATOM     15  S   LIG    1       21.158 -17.932   4.622  0.00  0.00    +0.051 S 
ATOM     16  O   LIG    1       20.571 -18.036   3.249  0.00  0.00    -0.252 OA
ATOM     17  C   LIG    1       21.960 -16.308   4.740  0.00  0.00    +0.127 C 
ENDBRANCH   6  15
BRANCH   1  18
ATOM     18  C   LIG    1       26.775 -18.266   3.180  0.00  0.00    +0.112 C 
BRANCH  18  19
ATOM     19  C   LIG    1       26.638 -16.838   2.596  0.00  0.00    +0.038 C 
BRANCH  19  22
ATOM     20  C   LIG    1       25.449 -14.068   2.099  0.00  0.00    +0.105 C 
ATOM     21  N   LIG    1       25.277 -14.828   3.337  0.00  0.00    -0.302 NA
ATOM     22  C   LIG    1       26.396 -15.746   3.678  0.00  0.00    +0.058 C 
ATOM     23  C   LIG    1       27.667 -14.970   4.071  0.00  0.00    +0.019 C 
ATOM     24  C   LIG    1       27.387 -13.992   5.215  0.00  0.00    +0.003 C 
ATOM     25  C   LIG    1       26.177 -13.109   4.934  0.00  0.00    +0.015 C 
ATOM     26  C   LIG    1       24.976 -13.937   4.470  0.00  0.00    +0.084 C 
ENDBRANCH  19  22
ENDBRANCH  18  19
ENDBRANCH   1  18
TORSDOF 4
ENDMDL
MODEL 4
REMARK VINA RESULT:       5.3      2.076      3.901
REMARK  Name = *****
REMARK                            x       y       z     vdW  Elec       q    Type
REMARK                         _______ _______ _______ _____ _____    ______ ____
ROOT
ATOM      1  N   LIG    1       25.287 -15.669   3.602  0.00  0.00    -0.298 N 
ATOM      2  C   LIG    1       24.231 -16.592   3.939  0.00  0.00    +0.049 A 
ATOM      3  C   LIG    1       23.058 -16.176   4.605  0.00  0.00    +0.034 A 
ATOM      4  C   LIG    1       22.075 -17.115   4.945  0.00  0.00    +0.018 A 
ATOM      5  C   LIG    1       22.218 -18.451   4.570  0.00  0.00    +0.018 A 
ATOM      6  C   LIG    1       23.338 -18.857   3.843  0.00  0.00    +0.040 A 
ATOM      7  S   LIG    1       22.786 -14.461   5.031  0.00  0.00    -0.086 S 
ATOM      8  C   LIG    1       23.817 -13.674   3.801  0.00  0.00    +0.034 A 
ATOM      9  C   LIG    1       23.508 -12.376   3.388  0.00  0.00    +0.017 A 
ATOM     10  C   LIG    1       24.269 -11.742   2.405  0.00  0.00    +0.001 A 
ATOM     11  C   LIG    1       25.338 -12.417   1.812  0.00  0.00    +0.002 A 
ATOM     12  C   LIG    1       25.645 -13.712   2.210  0.00  0.00    +0.024 A 
ATOM     13  C   LIG    1       24.356 -17.935   3.556  0.00  0.00    +0.041 A 
ATOM     14  C   LIG    1       24.919 -14.347   3.232  0.00  0.00    +0.048 A 
ENDROOT
BRANCH   6  15
ATOM     15  S   LIG    1       23.448 -20.561   3.273  0.00  0.00    +0.051 S 
ATOM     16  O   LIG    1       22.628 -21.359   4.240  0.00  0.00    -0.252 OA
ATOM     17  C   LIG    1       25.192 -20.840   3.692  0.00  0.00    +0.127 C 
ENDBRANCH   6  15
BRANCH   1  18
ATOM     18  C   LIG    1       26.278 -15.706   4.742  0.00  0.00    +0.112 C 
BRANCH  18  19
ATOM     19  C   LIG    1       27.780 -15.744   4.364  0.00  0.00    +0.038 C 
BRANCH  19  22
ATOM     20  C   LIG    1       26.609 -13.276   5.733  0.00  0.00    +0.105 C 
ATOM     21  N   LIG    1       28.032 -13.616   5.724  0.00  0.00    -0.302 NA
ATOM     22  C   LIG    1       28.495 -14.372   4.531  0.00  0.00    +0.058 C 
ATOM     23  C   LIG    1       28.468 -13.501   3.261  0.00  0.00    +0.019 C 
ATOM     24  C   LIG    1       29.282 -12.218   3.452  0.00  0.00    +0.003 C 
ATOM     25  C   LIG    1       28.898 -11.477   4.728  0.00  0.00    +0.015 C 
ATOM     26  C   LIG    1       28.865 -12.419   5.933  0.00  0.00    +0.084 C 
ENDBRANCH  19  22
ENDBRANCH  18  19
ENDBRANCH   1  18
TORSDOF 4
ENDMDL
MODEL 5
REMARK VINA RESULT:       5.4      2.589      5.861
REMARK  Name = *****
REMARK                            x       y       z     vdW  Elec       q    Type
REMARK                         _______ _______ _______ _____ _____    ______ ____
ROOT
ATOM      1  N   LIG    1       23.123 -17.842   4.124  0.00  0.00    -0.298 N 
ATOM      2  C   LIG    1       23.996 -18.859   4.659  0.00  0.00    +0.049 A 
ATOM      3  C   LIG    1       23.500 -19.968   5.378  0.00  0.00    +0.034 A 
ATOM      4  C   LIG    1       24.389 -20.911   5.911  0.00  0.00    +0.018 A 
ATOM      5  C   LIG    1       25.760 -20.797   5.678  0.00  0.00    +0.018 A 
ATOM      6  C   LIG    1       26.252 -19.746   4.903  0.00  0.00    +0.040 A 
ATOM      7  S   LIG    1       21.747 -20.208   5.629  0.00  0.00    -0.086 S 
ATOM      8  C   LIG    1       21.111 -19.297   4.229  0.00  0.00    +0.034 A 
ATOM      9  C   LIG    1       19.866 -19.649   3.702  0.00  0.00    +0.017 A 
ATOM     10  C   LIG    1       19.351 -18.983   2.587  0.00  0.00    +0.001 A 
ATOM     11  C   LIG    1       20.095 -17.970   1.980  0.00  0.00    +0.002 A 
ATOM     12  C   LIG    1       21.339 -17.622   2.493  0.00  0.00    +0.024 A 
ATOM     13  C   LIG    1       25.375 -18.763   4.421  0.00  0.00    +0.041 A 
ATOM     14  C   LIG    1       21.849 -18.248   3.642  0.00  0.00    +0.048 A 
ENDROOT
BRANCH   6  15
ATOM     15  S   LIG    1       28.010 -19.682   4.522  0.00  0.00    +0.051 S 
ATOM     16  O   LIG    1       28.689 -20.394   5.651  0.00  0.00    -0.252 OA
ATOM     17  C   LIG    1       28.247 -17.902   4.792  0.00  0.00    +0.127 C 
ENDBRANCH   6  15
BRANCH   1  18
ATOM     18  C   LIG    1       23.037 -16.751   5.166  0.00  0.00    +0.112 C 
BRANCH  18  19
ATOM     19  C   LIG    1       23.157 -15.291   4.662  0.00  0.00    +0.038 C 
BRANCH  19  22
ATOM     20  C   LIG    1       24.039 -12.576   3.573  0.00  0.00    +0.105 C 
ATOM     21  N   LIG    1       24.760 -13.324   4.603  0.00  0.00    -0.302 NA
ATOM     22  C   LIG    1       24.628 -14.803   4.521  0.00  0.00    +0.058 C 
ATOM     23  C   LIG    1       25.353 -15.371   3.286  0.00  0.00    +0.019 C 
ATOM     24  C   LIG    1       26.823 -14.946   3.263  0.00  0.00    +0.003 C 
ATOM     25  C   LIG    1       26.992 -13.442   3.451  0.00  0.00    +0.015 C 
ATOM     26  C   LIG    1       26.180 -12.934   4.645  0.00  0.00    +0.084 C 
ENDBRANCH  19  22
ENDBRANCH  18  19
ENDBRANCH   1  18
TORSDOF 4
ENDMDL
