MODEL 1
REMARK VINA RESULT:      -9.7      0.000      0.000
REMARK  Name = *****
REMARK                            x       y       z     vdW  Elec       q    Type
REMARK                         _______ _______ _______ _____ _____    ______ ____
ROOT
ATOM      1  C   LIG    1       25.819 -27.338   6.807  0.00  0.00    +0.077 C 
ENDROOT
BRANCH   1   3
ATOM      2  C   LIG    1       25.578 -28.968   9.060  0.00  0.00    +0.234 C 
ATOM      3  N   LIG    1       25.337 -27.881   8.219  0.00  0.00    -0.311 N 
ATOM      4  H   LIG    1       24.319 -27.834   8.271  0.00  0.00    +0.149 HD
ATOM      5  O   LIG    1       24.533 -29.510   9.487  0.00  0.00    -0.274 OA
BRANCH   2   6
ATOM      6  C   LIG    1       26.920 -29.461   9.802  0.00  0.00    +0.161 C 
BRANCH   6   9
ATOM      7  N   LIG    1       25.628 -32.261  10.001  0.00  0.00    -0.283 N 
ATOM      8  C   LIG    1       26.583 -31.874   9.092  0.00  0.00    +0.303 C 
ATOM      9  N   LIG    1       27.346 -30.725   9.184  0.00  0.00    -0.288 N 
ATOM     10  H   LIG    1       27.861 -30.518   8.320  0.00  0.00    +0.151 HD
ATOM     11  O   LIG    1       26.573 -32.443   7.983  0.00  0.00    -0.253 OA
ATOM     12  C   LIG    1       25.588 -32.024  11.465  0.00  0.00    +0.134 C 
BRANCH   7  13
ATOM     13  C   LIG    1       24.730 -33.361   9.541  0.00  0.00    +0.165 C 
BRANCH  13  17
ATOM     14  C   LIG    1       21.878 -31.888  10.652  0.00  0.00    +0.081 A 
ATOM     15  S   LIG    1       21.602 -33.141  11.842  0.00  0.00    -0.080 S 
ATOM     16  C   LIG    1       23.116 -33.711  11.439  0.00  0.00    +0.071 A 
ATOM     17  C   LIG    1       23.513 -33.121  10.228  0.00  0.00    +0.066 A 
ATOM     18  N   LIG    1       22.704 -32.183   9.697  0.00  0.00    -0.247 NA
BRANCH  14  20
ATOM     19  C   LIG    1       19.587 -31.074  10.358  0.00  0.00    +0.014 C 
ATOM     20  C   LIG    1       21.029 -30.694  10.637  0.00  0.00    +0.038 C 
ATOM     21  C   LIG    1       21.226 -29.911  11.929  0.00  0.00    +0.014 C 
ENDBRANCH  14  20
ENDBRANCH  13  17
ENDBRANCH   7  13
ENDBRANCH   6   9
BRANCH   6  22
ATOM     22  C   LIG    1       27.060 -29.170  11.382  0.00  0.00    +0.047 C 
BRANCH  22  23
ATOM     23  C   LIG    1       26.466 -27.825  12.623  0.00  0.00    +0.087 C 
BRANCH  23  24
ATOM     24  N   LIG    1       27.140 -26.798  13.472  0.00  0.00    -0.298 NA
ATOM     25  C   LIG    1       26.831 -26.803  14.877  0.00  0.00    +0.112 C 
ATOM     26  C   LIG    1       25.387 -27.262  14.939  0.00  0.00    +0.175 C 
ATOM     27  O   LIG    1       24.423 -26.708  13.864  0.00  0.00    -0.377 OA
ATOM     28  C   LIG    1       25.030 -25.427  13.752  0.00  0.00    +0.175 C 
ATOM     29  C   LIG    1       26.439 -25.561  13.041  0.00  0.00    +0.112 C 
ENDBRANCH  23  24
ENDBRANCH  22  23
ENDBRANCH   6  22
ENDBRANCH   2   6
ENDBRANCH   1   3
BRANCH   1  30
ATOM     30  C   LIG    1       25.382 -25.921   6.513  0.00  0.00    +0.024 C 
BRANCH  30  31
ATOM     31  C   LIG    1       26.352 -24.720   6.489  0.00  0.00    +0.024 C 
BRANCH  31  32
ATOM     32  C   LIG    1       25.714 -23.532   7.200  0.00  0.00    +0.081 C 
BRANCH  32  33
ATOM     33  N   LIG    1       26.633 -22.383   6.910  0.00  0.00    -0.278 N 
ATOM     34  H   LIG    1       26.332 -21.672   6.286  0.00  0.00    +0.152 HD
ATOM     35  C   LIG    1       26.930 -21.442   7.946  0.00  0.00    +0.401 C 
ATOM     36  O   LIG    1       26.087 -20.708   8.100  0.00  0.00    -0.227 OA
BRANCH  35  37
ATOM     37  O   LIG    1       28.297 -21.469   8.260  0.00  0.00    -0.445 OA
BRANCH  37  38
ATOM     38  C   LIG    1       30.065 -20.992   8.195  0.00  0.00    +0.278 C 
BRANCH  38  39
ATOM     39  C   LIG    1       30.958 -19.478   9.038  0.00  0.00    +0.046 A 
ATOM     40  S   LIG    1       30.357 -18.313  10.124  0.00  0.00    -0.077 S 
ATOM     41  C   LIG    1       30.869 -16.878   9.240  0.00  0.00    +0.156 A 
ATOM     42  N   LIG    1       31.898 -17.167   8.545  0.00  0.00    -0.255 NA
ATOM     43  C   LIG    1       31.955 -18.556   8.347  0.00  0.00    +0.125 A 
ENDBRANCH  38  39
ENDBRANCH  37  38
ENDBRANCH  35  37
ENDBRANCH  32  33
BRANCH  32  44
ATOM     44  C   LIG    1       24.132 -23.288   6.710  0.00  0.00    +0.057 C 
BRANCH  44  45
ATOM     45  C   LIG    1       23.719 -21.927   5.920  0.00  0.00    -0.046 A 
ATOM     46  C   LIG    1       22.917 -20.837   6.294  0.00  0.00    +0.003 A 
ATOM     47  C   LIG    1       22.791 -19.641   5.455  0.00  0.00    +0.000 A 
ATOM     48  C   LIG    1       23.333 -19.530   4.170  0.00  0.00    +0.000 A 
ATOM     49  C   LIG    1       24.118 -20.564   3.768  0.00  0.00    +0.000 A 
ATOM     50  C   LIG    1       24.326 -21.609   4.697  0.00  0.00    +0.003 A 
ENDBRANCH  44  45
ENDBRANCH  32  44
ENDBRANCH  31  32
ENDBRANCH  30  31
ENDBRANCH   1  30
BRANCH   1  51
ATOM     51  C   LIG    1       25.498 -28.252   5.423  0.00  0.00    +0.057 C 
BRANCH  51  52
ATOM     52  C   LIG    1       25.063 -29.942   5.436  0.00  0.00    -0.046 A 
ATOM     53  C   LIG    1       24.049 -30.576   6.198  0.00  0.00    +0.003 A 
ATOM     54  C   LIG    1       23.656 -31.971   6.026  0.00  0.00    +0.000 A 
ATOM     55  C   LIG    1       24.403 -32.873   5.288  0.00  0.00    +0.000 A 
ATOM     56  C   LIG    1       25.580 -32.391   4.796  0.00  0.00    +0.000 A 
ATOM     57  C   LIG    1       25.787 -30.960   4.725  0.00  0.00    +0.003 A 
ENDBRANCH  51  52
ENDBRANCH   1  51
TORSDOF 20
ENDMDL
MODEL 2
REMARK VINA RESULT:      -9.4      2.944     11.306
REMARK  Name = *****
REMARK                            x       y       z     vdW  Elec       q    Type
REMARK                         _______ _______ _______ _____ _____    ______ ____
ROOT
ATOM      1  C   LIG    1       26.237 -28.898   9.171  0.00  0.00    +0.077 C 
ENDROOT
BRANCH   1   3
ATOM      2  C   LIG    1       26.178 -27.315   6.872  0.00  0.00    +0.234 C 
ATOM      3  N   LIG    1       26.449 -27.662   8.196  0.00  0.00    -0.311 N 
ATOM      4  H   LIG    1       27.407 -27.324   8.281  0.00  0.00    +0.149 HD
ATOM      5  O   LIG    1       27.162 -26.820   6.276  0.00  0.00    -0.274 OA
BRANCH   2   6
ATOM      6  C   LIG    1       24.787 -27.165   6.075  0.00  0.00    +0.161 C 
BRANCH   6   9
ATOM      7  N   LIG    1       24.923 -24.077   6.101  0.00  0.00    -0.283 N 
ATOM      8  C   LIG    1       23.882 -24.845   6.565  0.00  0.00    +0.303 C 
ATOM      9  N   LIG    1       23.944 -26.206   6.803  0.00  0.00    -0.288 N 
ATOM     10  H   LIG    1       23.021 -26.626   6.961  0.00  0.00    +0.151 HD
ATOM     11  O   LIG    1       22.741 -24.346   6.508  0.00  0.00    -0.253 OA
ATOM     12  C   LIG    1       26.378 -24.247   6.334  0.00  0.00    +0.134 C 
BRANCH   7  13
ATOM     13  C   LIG    1       24.539 -22.713   5.633  0.00  0.00    +0.165 C 
BRANCH  13  17
ATOM     14  C   LIG    1       26.791 -20.655   7.127  0.00  0.00    +0.081 A 
ATOM     15  S   LIG    1       25.864 -20.590   8.610  0.00  0.00    -0.080 S 
ATOM     16  C   LIG    1       24.905 -21.777   7.940  0.00  0.00    +0.071 A 
ATOM     17  C   LIG    1       25.166 -21.843   6.561  0.00  0.00    +0.066 A 
ATOM     18  N   LIG    1       26.153 -21.064   6.075  0.00  0.00    -0.247 NA
BRANCH  14  20
ATOM     19  C   LIG    1       29.169 -21.021   7.586  0.00  0.00    +0.014 C 
ATOM     20  C   LIG    1       28.124 -20.049   7.070  0.00  0.00    +0.038 C 
ATOM     21  C   LIG    1       28.393 -19.538   5.661  0.00  0.00    +0.014 C 
ENDBRANCH  14  20
ENDBRANCH  13  17
ENDBRANCH   7  13
ENDBRANCH   6   9
BRANCH   6  22
ATOM     22  C   LIG    1       24.192 -28.473   5.344  0.00  0.00    +0.047 C 
BRANCH  22  23
ATOM     23  C   LIG    1       24.203 -30.375   5.634  0.00  0.00    +0.087 C 
BRANCH  23  24
ATOM     24  N   LIG    1       25.172 -31.480   5.371  0.00  0.00    -0.298 NA
ATOM     25  C   LIG    1       24.626 -32.752   4.977  0.00  0.00    +0.112 C 
ATOM     26  C   LIG    1       23.300 -32.830   5.708  0.00  0.00    +0.175 C 
ATOM     27  O   LIG    1       23.263 -32.309   7.164  0.00  0.00    -0.377 OA
ATOM     28  C   LIG    1       24.585 -32.706   7.507  0.00  0.00    +0.175 C 
ATOM     29  C   LIG    1       25.634 -31.794   6.747  0.00  0.00    +0.112 C 
ENDBRANCH  23  24
ENDBRANCH  22  23
ENDBRANCH   6  22
ENDBRANCH   2   6
ENDBRANCH   1   3
BRANCH   1  30
ATOM     30  C   LIG    1       24.796 -29.337   9.301  0.00  0.00    +0.024 C 
BRANCH  30  31
ATOM     31  C   LIG    1       24.321 -30.403  10.312  0.00  0.00    +0.024 C 
BRANCH  31  32
ATOM     32  C   LIG    1       22.859 -30.157  10.667  0.00  0.00    +0.081 C 
BRANCH  32  33
ATOM     33  N   LIG    1       22.092 -31.055   9.743  0.00  0.00    -0.278 N 
ATOM     34  H   LIG    1       22.570 -31.490   8.988  0.00  0.00    +0.152 HD
ATOM     35  C   LIG    1       21.591 -32.303  10.232  0.00  0.00    +0.401 C 
ATOM     36  O   LIG    1       22.402 -33.086  10.295  0.00  0.00    -0.227 OA
BRANCH  35  37
ATOM     37  O   LIG    1       20.189 -32.323  10.187  0.00  0.00    -0.445 OA
BRANCH  37  38
ATOM     38  C   LIG    1       18.467 -32.043  10.749  0.00  0.00    +0.278 C 
BRANCH  38  39
ATOM     39  C   LIG    1       17.818 -31.567  12.524  0.00  0.00    +0.046 A 
ATOM     40  S   LIG    1       16.467 -30.643  12.989  0.00  0.00    -0.077 S 
ATOM     41  C   LIG    1       17.304 -29.517  14.055  0.00  0.00    +0.156 A 
ATOM     42  N   LIG    1       18.340 -30.090  14.528  0.00  0.00    -0.255 NA
ATOM     43  C   LIG    1       18.701 -31.165  13.698  0.00  0.00    +0.125 A 
ENDBRANCH  38  39
ENDBRANCH  37  38
ENDBRANCH  35  37
ENDBRANCH  32  33
BRANCH  32  44
ATOM     44  C   LIG    1       22.558 -30.422  12.292  0.00  0.00    +0.057 C 
BRANCH  44  45
ATOM     45  C   LIG    1       21.913 -29.243  13.209  0.00  0.00    -0.046 A 
ATOM     46  C   LIG    1       21.848 -29.073  14.602  0.00  0.00    +0.003 A 
ATOM     47  C   LIG    1       21.326 -27.846  15.211  0.00  0.00    +0.000 A 
ATOM     48  C   LIG    1       20.729 -26.808  14.486  0.00  0.00    +0.000 A 
ATOM     49  C   LIG    1       20.771 -26.932  13.133  0.00  0.00    +0.000 A 
ATOM     50  C   LIG    1       21.437 -28.066  12.614  0.00  0.00    +0.003 A 
ENDBRANCH  44  45
ENDBRANCH  32  44
ENDBRANCH  31  32
ENDBRANCH  30  31
ENDBRANCH   1  30
BRANCH   1  51
ATOM     51  C   LIG    1       26.878 -28.831  10.732  0.00  0.00    +0.057 C 
BRANCH  51  52
ATOM     52  C   LIG    1       26.314 -27.753  11.984  0.00  0.00    -0.046 A 
ATOM     53  C   LIG    1       25.157 -27.883  12.791  0.00  0.00    +0.003 A 
ATOM     54  C   LIG    1       24.851 -27.010  13.919  0.00  0.00    +0.000 A 
ATOM     55  C   LIG    1       25.523 -25.821  14.150  0.00  0.00    +0.000 A 
ATOM     56  C   LIG    1       26.442 -25.478  13.202  0.00  0.00    +0.000 A 
ATOM     57  C   LIG    1       26.926 -26.487  12.285  0.00  0.00    +0.003 A 
ENDBRANCH  51  52
ENDBRANCH   1  51
TORSDOF 20
ENDMDL
MODEL 3
REMARK VINA RESULT:      -9.1      2.281     11.181
REMARK  Name = *****
REMARK                            x       y       z     vdW  Elec       q    Type
REMARK                         _______ _______ _______ _____ _____    ______ ____
ROOT
ATOM      1  C   LIG    1       25.745 -27.824   8.067  0.00  0.00    +0.077 C 
ENDROOT
BRANCH   1   3
ATOM      2  C   LIG    1       26.246 -26.052   5.969  0.00  0.00    +0.234 C 
ATOM      3  N   LIG    1       26.504 -27.059   6.900  0.00  0.00    -0.311 N 
ATOM      4  H   LIG    1       26.986 -27.735   6.309  0.00  0.00    +0.149 HD
ATOM      5  O   LIG    1       26.602 -26.348   4.805  0.00  0.00    -0.274 OA
BRANCH   2   6
ATOM      6  C   LIG    1       25.855 -24.502   6.159  0.00  0.00    +0.161 C 
BRANCH   6   9
ATOM      7  N   LIG    1       27.044 -22.059   7.632  0.00  0.00    -0.283 N 
ATOM      8  C   LIG    1       26.169 -22.976   8.162  0.00  0.00    +0.303 C 
ATOM      9  N   LIG    1       25.864 -24.201   7.598  0.00  0.00    -0.288 N 
ATOM     10  H   LIG    1       25.055 -24.654   8.039  0.00  0.00    +0.151 HD
ATOM     11  O   LIG    1       25.398 -22.573   9.056  0.00  0.00    -0.253 OA
ATOM     12  C   LIG    1       28.266 -22.299   6.826  0.00  0.00    +0.134 C 
BRANCH   7  13
ATOM     13  C   LIG    1       26.980 -20.700   8.246  0.00  0.00    +0.165 C 
BRANCH  13  17
ATOM     14  C   LIG    1       29.773 -18.809   7.846  0.00  0.00    +0.081 A 
ATOM     15  S   LIG    1       29.617 -18.810   6.103  0.00  0.00    -0.080 S 
ATOM     16  C   LIG    1       28.135 -19.531   6.339  0.00  0.00    +0.071 A 
ATOM     17  C   LIG    1       28.070 -20.007   7.659  0.00  0.00    +0.066 A 
ATOM     18  N   LIG    1       29.103 -19.723   8.477  0.00  0.00    -0.247 NA
BRANCH  14  20
ATOM     19  C   LIG    1       30.161 -17.112   9.569  0.00  0.00    +0.014 C 
ATOM     20  C   LIG    1       30.790 -17.973   8.489  0.00  0.00    +0.038 C 
ATOM     21  C   LIG    1       31.934 -18.849   8.982  0.00  0.00    +0.014 C 
ENDBRANCH  14  20
ENDBRANCH  13  17
ENDBRANCH   7  13
ENDBRANCH   6   9
BRANCH   6  22
ATOM     22  C   LIG    1       24.780 -23.865   5.139  0.00  0.00    +0.047 C 
BRANCH  22  23
ATOM     23  C   LIG    1       24.401 -22.130   4.398  0.00  0.00    +0.087 C 
BRANCH  23  24
ATOM     24  N   LIG    1       24.756 -20.725   4.757  0.00  0.00    -0.298 NA
ATOM     25  C   LIG    1       24.432 -20.286   6.087  0.00  0.00    +0.112 C 
ATOM     26  C   LIG    1       23.164 -21.041   6.431  0.00  0.00    +0.175 C 
ATOM     27  O   LIG    1       22.108 -21.196   5.311  0.00  0.00    -0.377 OA
ATOM     28  C   LIG    1       22.351 -19.939   4.691  0.00  0.00    +0.175 C 
ATOM     29  C   LIG    1       23.758 -19.963   3.964  0.00  0.00    +0.112 C 
ENDBRANCH  23  24
ENDBRANCH  22  23
ENDBRANCH   6  22
ENDBRANCH   2   6
ENDBRANCH   1   3
BRANCH   1  30
ATOM     30  C   LIG    1       26.662 -28.579   9.003  0.00  0.00    +0.024 C 
BRANCH  30  31
ATOM     31  C   LIG    1       26.713 -28.329  10.526  0.00  0.00    +0.024 C 
BRANCH  31  32
ATOM     32  C   LIG    1       25.458 -28.896  11.180  0.00  0.00    +0.081 C 
BRANCH  32  33
ATOM     33  N   LIG    1       25.766 -30.349  11.386  0.00  0.00    -0.278 N 
ATOM     34  H   LIG    1       26.638 -30.706  11.068  0.00  0.00    +0.152 HD
ATOM     35  C   LIG    1       25.971 -30.843  12.712  0.00  0.00    +0.401 C 
ATOM     36  O   LIG    1       26.999 -30.586  13.102  0.00  0.00    -0.227 OA
BRANCH  35  37
ATOM     37  O   LIG    1       24.987 -31.786  13.045  0.00  0.00    -0.445 OA
BRANCH  37  38
ATOM     38  C   LIG    1       23.329 -32.564  13.099  0.00  0.00    +0.278 C 
BRANCH  38  39
ATOM     39  C   LIG    1       22.011 -32.741  11.674  0.00  0.00    +0.046 A 
ATOM     40  S   LIG    1       21.817 -31.847  10.239  0.00  0.00    -0.077 S 
ATOM     41  C   LIG    1       20.114 -31.441  10.440  0.00  0.00    +0.156 A 
ATOM     42  N   LIG    1       19.555 -32.345  11.143  0.00  0.00    -0.255 NA
ATOM     43  C   LIG    1       20.530 -33.033  11.884  0.00  0.00    +0.125 A 
ENDBRANCH  38  39
ENDBRANCH  37  38
ENDBRANCH  35  37
ENDBRANCH  32  33
BRANCH  32  44
ATOM     44  C   LIG    1       25.058 -28.073  12.582  0.00  0.00    +0.057 C 
BRANCH  44  45
ATOM     45  C   LIG    1       23.499 -27.775  12.940  0.00  0.00    -0.046 A 
ATOM     46  C   LIG    1       22.866 -26.647  13.487  0.00  0.00    +0.003 A 
ATOM     47  C   LIG    1       21.407 -26.554  13.601  0.00  0.00    +0.000 A 
ATOM     48  C   LIG    1       20.534 -27.608  13.311  0.00  0.00    +0.000 A 
ATOM     49  C   LIG    1       21.106 -28.720  12.778  0.00  0.00    +0.000 A 
ATOM     50  C   LIG    1       22.499 -28.675  12.545  0.00  0.00    +0.003 A 
ENDBRANCH  44  45
ENDBRANCH  32  44
ENDBRANCH  31  32
ENDBRANCH  30  31
ENDBRANCH   1  30
BRANCH   1  51
ATOM     51  C   LIG    1       24.473 -28.865   7.674  0.00  0.00    +0.057 C 
BRANCH  51  52
ATOM     52  C   LIG    1       24.649 -30.329   6.741  0.00  0.00    -0.046 A 
ATOM     53  C   LIG    1       24.229 -31.638   7.085  0.00  0.00    +0.003 A 
ATOM     54  C   LIG    1       24.281 -32.774   6.171  0.00  0.00    +0.000 A 
ATOM     55  C   LIG    1       24.979 -32.741   4.975  0.00  0.00    +0.000 A 
ATOM     56  C   LIG    1       25.685 -31.598   4.744  0.00  0.00    +0.000 A 
ATOM     57  C   LIG    1       25.374 -30.405   5.502  0.00  0.00    +0.003 A 
ENDBRANCH  51  52
ENDBRANCH   1  51
TORSDOF 20
ENDMDL
MODEL 4
REMARK VINA RESULT:      -9.1      2.572     10.723
REMARK  Name = *****
REMARK                            x       y       z     vdW  Elec       q    Type
REMARK                         _______ _______ _______ _____ _____    ______ ____
ROOT
ATOM      1  C   LIG    1       25.671 -27.780   7.889  0.00  0.00    +0.077 C 
ENDROOT
BRANCH   1   3
ATOM      2  C   LIG    1       26.000 -26.017   5.751  0.00  0.00    +0.234 C 
ATOM      3  N   LIG    1       26.306 -27.061   6.624  0.00  0.00    -0.311 N 
ATOM      4  H   LIG    1       26.626 -27.766   5.960  0.00  0.00    +0.149 HD
ATOM      5  O   LIG    1       26.142 -26.319   4.543  0.00  0.00    -0.274 OA
BRANCH   2   6
ATOM      6  C   LIG    1       25.788 -24.442   6.010  0.00  0.00    +0.161 C 
BRANCH   6   9
ATOM      7  N   LIG    1       27.014 -22.052   7.540  0.00  0.00    -0.283 N 
ATOM      8  C   LIG    1       26.169 -23.002   8.065  0.00  0.00    +0.303 C 
ATOM      9  N   LIG    1       25.853 -24.204   7.459  0.00  0.00    -0.288 N 
ATOM     10  H   LIG    1       25.067 -24.684   7.912  0.00  0.00    +0.151 HD
ATOM     11  O   LIG    1       25.432 -22.646   9.005  0.00  0.00    -0.253 OA
ATOM     12  C   LIG    1       28.204 -22.244   6.676  0.00  0.00    +0.134 C 
BRANCH   7  13
ATOM     13  C   LIG    1       26.962 -20.722   8.215  0.00  0.00    +0.165 C 
BRANCH  13  17
ATOM     14  C   LIG    1       29.695 -18.725   7.926  0.00  0.00    +0.081 A 
ATOM     15  S   LIG    1       29.714 -18.875   6.182  0.00  0.00    -0.080 S 
ATOM     16  C   LIG    1       28.249 -19.652   6.336  0.00  0.00    +0.071 A 
ATOM     17  C   LIG    1       28.073 -20.023   7.680  0.00  0.00    +0.066 A 
ATOM     18  N   LIG    1       29.006 -19.620   8.565  0.00  0.00    -0.247 NA
BRANCH  14  20
ATOM     19  C   LIG    1       30.169 -17.557  10.026  0.00  0.00    +0.014 C 
ATOM     20  C   LIG    1       30.604 -17.789   8.590  0.00  0.00    +0.038 C 
ATOM     21  C   LIG    1       32.038 -18.281   8.448  0.00  0.00    +0.014 C 
ENDBRANCH  14  20
ENDBRANCH  13  17
ENDBRANCH   7  13
ENDBRANCH   6   9
BRANCH   6  22
ATOM     22  C   LIG    1       24.776 -23.647   5.038  0.00  0.00    +0.047 C 
BRANCH  22  23
ATOM     23  C   LIG    1       24.529 -21.834   4.443  0.00  0.00    +0.087 C 
BRANCH  23  24
ATOM     24  N   LIG    1       24.711 -20.485   5.056  0.00  0.00    -0.298 NA
ATOM     25  C   LIG    1       24.168 -20.284   6.373  0.00  0.00    +0.112 C 
ATOM     26  C   LIG    1       22.932 -21.161   6.405  0.00  0.00    +0.175 C 
ATOM     27  O   LIG    1       22.060 -21.201   5.128  0.00  0.00    -0.377 OA
ATOM     28  C   LIG    1       22.280 -19.849   4.745  0.00  0.00    +0.175 C 
ATOM     29  C   LIG    1       23.772 -19.669   4.244  0.00  0.00    +0.112 C 
ENDBRANCH  23  24
ENDBRANCH  22  23
ENDBRANCH   6  22
ENDBRANCH   2   6
ENDBRANCH   1   3
BRANCH   1  30
ATOM     30  C   LIG    1       26.688 -28.230   8.914  0.00  0.00    +0.024 C 
BRANCH  30  31
ATOM     31  C   LIG    1       26.448 -29.400   9.892  0.00  0.00    +0.024 C 
BRANCH  31  32
ATOM     32  C   LIG    1       25.695 -28.896  11.119  0.00  0.00    +0.081 C 
BRANCH  32  33
ATOM     33  N   LIG    1       25.241 -30.142  11.818  0.00  0.00    -0.278 N 
ATOM     34  H   LIG    1       25.470 -31.025  11.425  0.00  0.00    +0.152 HD
ATOM     35  C   LIG    1       25.811 -30.484  13.085  0.00  0.00    +0.401 C 
ATOM     36  O   LIG    1       26.838 -30.939  12.975  0.00  0.00    -0.227 OA
BRANCH  35  37
ATOM     37  O   LIG    1       24.829 -30.474  14.086  0.00  0.00    -0.445 OA
BRANCH  37  38
ATOM     38  C   LIG    1       23.418 -29.852  15.076  0.00  0.00    +0.278 C 
BRANCH  38  39
ATOM     39  C   LIG    1       21.773 -29.003  14.467  0.00  0.00    +0.046 A 
ATOM     40  S   LIG    1       21.292 -28.534  12.903  0.00  0.00    -0.077 S 
ATOM     41  C   LIG    1       20.870 -26.864  13.274  0.00  0.00    +0.156 A 
ATOM     42  N   LIG    1       20.520 -26.790  14.497  0.00  0.00    -0.255 NA
ATOM     43  C   LIG    1       21.040 -27.887  15.202  0.00  0.00    +0.125 A 
ENDBRANCH  38  39
ENDBRANCH  37  38
ENDBRANCH  35  37
ENDBRANCH  32  33
BRANCH  32  44
ATOM     44  C   LIG    1       26.641 -27.885  12.059  0.00  0.00    +0.057 C 
BRANCH  44  45
ATOM     45  C   LIG    1       25.946 -26.756  13.003  0.00  0.00    -0.046 A 
ATOM     46  C   LIG    1       24.667 -26.677  13.576  0.00  0.00    +0.003 A 
ATOM     47  C   LIG    1       24.300 -25.612  14.514  0.00  0.00    +0.000 A 
ATOM     48  C   LIG    1       25.123 -24.521  14.816  0.00  0.00    +0.000 A 
ATOM     49  C   LIG    1       26.372 -24.558  14.281  0.00  0.00    +0.000 A 
ATOM     50  C   LIG    1       26.709 -25.699  13.519  0.00  0.00    +0.003 A 
ENDBRANCH  44  45
ENDBRANCH  32  44
ENDBRANCH  31  32
ENDBRANCH  30  31
ENDBRANCH   1  30
BRANCH   1  51
ATOM     51  C   LIG    1       24.603 -29.067   7.653  0.00  0.00    +0.057 C 
BRANCH  51  52
ATOM     52  C   LIG    1       24.996 -30.527   6.781  0.00  0.00    -0.046 A 
ATOM     53  C   LIG    1       25.085 -31.848   7.287  0.00  0.00    +0.003 A 
ATOM     54  C   LIG    1       25.268 -33.028   6.449  0.00  0.00    +0.000 A 
ATOM     55  C   LIG    1       25.629 -32.949   5.114  0.00  0.00    +0.000 A 
ATOM     56  C   LIG    1       25.882 -31.692   4.652  0.00  0.00    +0.000 A 
ATOM     57  C   LIG    1       25.405 -30.550   5.403  0.00  0.00    +0.003 A 
ENDBRANCH  51  52
ENDBRANCH   1  51
TORSDOF 20
ENDMDL
MODEL 5
REMARK VINA RESULT:      -9.0      2.251     10.517
REMARK  Name = *****
REMARK                            x       y       z     vdW  Elec       q    Type
REMARK                         _______ _______ _______ _____ _____    ______ ____
ROOT
ATOM      1  C   LIG    1       24.888 -27.952   6.563  0.00  0.00    +0.077 C 
ENDROOT
BRANCH   1   3
ATOM      2  C   LIG    1       24.152 -25.260   6.511  0.00  0.00    +0.234 C 
ATOM      3  N   LIG    1       24.164 -26.605   6.138  0.00  0.00    -0.311 N 
ATOM      4  H   LIG    1       23.164 -26.775   6.038  0.00  0.00    +0.149 HD
ATOM      5  O   LIG    1       22.998 -24.794   6.658  0.00  0.00    -0.274 OA
BRANCH   2   6
ATOM      6  C   LIG    1       25.312 -24.144   6.503  0.00  0.00    +0.161 C 
BRANCH   6   9
ATOM      7  N   LIG    1       26.815 -21.642   7.521  0.00  0.00    -0.283 N 
ATOM      8  C   LIG    1       25.952 -22.421   8.254  0.00  0.00    +0.303 C 
ATOM      9  N   LIG    1       25.507 -23.677   7.884  0.00  0.00    -0.288 N 
ATOM     10  H   LIG    1       24.728 -24.011   8.463  0.00  0.00    +0.151 HD
ATOM     11  O   LIG    1       25.317 -21.858   9.167  0.00  0.00    -0.253 OA
ATOM     12  C   LIG    1       27.917 -22.068   6.624  0.00  0.00    +0.134 C 
BRANCH   7  13
ATOM     13  C   LIG    1       26.908 -20.219   7.963  0.00  0.00    +0.165 C 
BRANCH  13  17
ATOM     14  C   LIG    1       30.101 -19.130   8.359  0.00  0.00    +0.081 A 
ATOM     15  S   LIG    1       30.424 -19.213   6.642  0.00  0.00    -0.080 S 
ATOM     16  C   LIG    1       28.797 -19.517   6.455  0.00  0.00    +0.071 A 
ATOM     17  C   LIG    1       28.258 -19.868   7.704  0.00  0.00    +0.066 A 
ATOM     18  N   LIG    1       29.071 -19.798   8.777  0.00  0.00    -0.247 NA
BRANCH  14  20
ATOM     19  C   LIG    1       32.217 -17.901   8.469  0.00  0.00    +0.014 C 
ATOM     20  C   LIG    1       31.090 -18.536   9.262  0.00  0.00    +0.038 C 
ATOM     21  C   LIG    1       30.394 -17.582  10.225  0.00  0.00    +0.014 C 
ENDBRANCH  14  20
ENDBRANCH  13  17
ENDBRANCH   7  13
ENDBRANCH   6   9
BRANCH   6  22
ATOM     22  C   LIG    1       25.406 -23.162   5.227  0.00  0.00    +0.047 C 
BRANCH  22  23
ATOM     23  C   LIG    1       24.669 -21.465   4.701  0.00  0.00    +0.087 C 
BRANCH  23  24
ATOM     24  N   LIG    1       24.358 -20.183   5.400  0.00  0.00    -0.298 NA
ATOM     25  C   LIG    1       23.533 -20.262   6.576  0.00  0.00    +0.112 C 
ATOM     26  C   LIG    1       22.597 -21.422   6.298  0.00  0.00    +0.175 C 
ATOM     27  O   LIG    1       22.037 -21.550   4.862  0.00  0.00    -0.377 OA
ATOM     28  C   LIG    1       21.956 -20.155   4.600  0.00  0.00    +0.175 C 
ATOM     29  C   LIG    1       23.413 -19.553   4.443  0.00  0.00    +0.112 C 
ENDBRANCH  23  24
ENDBRANCH  22  23
ENDBRANCH   6  22
ENDBRANCH   2   6
ENDBRANCH   1   3
BRANCH   1  30
ATOM     30  C   LIG    1       26.078 -27.749   7.474  0.00  0.00    +0.024 C 
BRANCH  30  31
ATOM     31  C   LIG    1       26.039 -28.016   8.994  0.00  0.00    +0.024 C 
BRANCH  31  32
ATOM     32  C   LIG    1       26.856 -29.263   9.316  0.00  0.00    +0.081 C 
BRANCH  32  33
ATOM     33  N   LIG    1       26.810 -29.366  10.811  0.00  0.00    -0.278 N 
ATOM     34  H   LIG    1       26.837 -30.265  11.232  0.00  0.00    +0.152 HD
ATOM     35  C   LIG    1       27.921 -28.897  11.581  0.00  0.00    +0.401 C 
ATOM     36  O   LIG    1       28.778 -29.632  11.572  0.00  0.00    -0.227 OA
BRANCH  35  37
ATOM     37  O   LIG    1       27.536 -27.827  12.402  0.00  0.00    -0.445 OA
BRANCH  37  38
ATOM     38  C   LIG    1       26.540 -26.900  13.629  0.00  0.00    +0.278 C 
BRANCH  38  39
ATOM     39  C   LIG    1       24.646 -27.075  14.055  0.00  0.00    +0.046 A 
ATOM     40  S   LIG    1       23.636 -28.444  14.031  0.00  0.00    -0.077 S 
ATOM     41  C   LIG    1       22.353 -27.776  13.025  0.00  0.00    +0.156 A 
ATOM     42  N   LIG    1       22.326 -26.511  13.178  0.00  0.00    -0.255 NA
ATOM     43  C   LIG    1       23.567 -26.071  13.668  0.00  0.00    +0.125 A 
ENDBRANCH  38  39
ENDBRANCH  37  38
ENDBRANCH  35  37
ENDBRANCH  32  33
BRANCH  32  44
ATOM     44  C   LIG    1       26.275 -30.613   8.515  0.00  0.00    +0.057 C 
BRANCH  44  45
ATOM     45  C   LIG    1       24.923 -31.355   9.033  0.00  0.00    -0.046 A 
ATOM     46  C   LIG    1       24.645 -32.703   9.311  0.00  0.00    +0.003 A 
ATOM     47  C   LIG    1       23.373 -33.129   9.903  0.00  0.00    +0.000 A 
ATOM     48  C   LIG    1       22.287 -32.272  10.114  0.00  0.00    +0.000 A 
ATOM     49  C   LIG    1       22.512 -30.957   9.858  0.00  0.00    +0.000 A 
ATOM     50  C   LIG    1       23.816 -30.599   9.445  0.00  0.00    +0.003 A 
ENDBRANCH  44  45
ENDBRANCH  32  44
ENDBRANCH  31  32
ENDBRANCH  30  31
ENDBRANCH   1  30
BRANCH   1  51
ATOM     51  C   LIG    1       25.365 -29.041   5.362  0.00  0.00    +0.057 C 
BRANCH  51  52
ATOM     52  C   LIG    1       25.080 -30.762   5.423  0.00  0.00    -0.046 A 
ATOM     53  C   LIG    1       25.937 -31.804   4.990  0.00  0.00    +0.003 A 
ATOM     54  C   LIG    1       25.676 -33.220   5.224  0.00  0.00    +0.000 A 
ATOM     55  C   LIG    1       24.451 -33.694   5.662  0.00  0.00    +0.000 A 
ATOM     56  C   LIG    1       23.472 -32.752   5.783  0.00  0.00    +0.000 A 
ATOM     57  C   LIG    1       23.836 -31.352   5.838  0.00  0.00    +0.003 A 
ENDBRANCH  51  52
ENDBRANCH   1  51
TORSDOF 20
ENDMDL
MODEL 6
REMARK VINA RESULT:      -8.8      1.960     11.093
REMARK  Name = *****
REMARK                            x       y       z     vdW  Elec       q    Type
REMARK                         _______ _______ _______ _____ _____    ______ ____
ROOT
ATOM      1  C   LIG    1       24.860 -27.776   6.731  0.00  0.00    +0.077 C 
ENDROOT
BRANCH   1   3
ATOM      2  C   LIG    1       24.152 -25.082   6.540  0.00  0.00    +0.234 C 
ATOM      3  N   LIG    1       24.168 -26.441   6.221  0.00  0.00    -0.311 N 
ATOM      4  H   LIG    1       23.171 -26.607   6.083  0.00  0.00    +0.149 HD
ATOM      5  O   LIG    1       22.997 -24.602   6.616  0.00  0.00    -0.274 OA
BRANCH   2   6
ATOM      6  C   LIG    1       25.321 -23.976   6.539  0.00  0.00    +0.161 C 
BRANCH   6   9
ATOM      7  N   LIG    1       26.876 -21.505   7.554  0.00  0.00    -0.283 N 
ATOM      8  C   LIG    1       25.964 -22.239   8.274  0.00  0.00    +0.303 C 
ATOM      9  N   LIG    1       25.489 -23.486   7.916  0.00  0.00    -0.288 N 
ATOM     10  H   LIG    1       24.681 -23.782   8.476  0.00  0.00    +0.151 HD
ATOM     11  O   LIG    1       25.320 -21.635   9.155  0.00  0.00    -0.253 OA
ATOM     12  C   LIG    1       27.991 -21.986   6.702  0.00  0.00    +0.134 C 
BRANCH   7  13
ATOM     13  C   LIG    1       27.003 -20.077   7.969  0.00  0.00    +0.165 C 
BRANCH  13  17
ATOM     14  C   LIG    1       30.204 -19.069   8.493  0.00  0.00    +0.081 A 
ATOM     15  S   LIG    1       30.621 -19.258   6.804  0.00  0.00    -0.080 S 
ATOM     16  C   LIG    1       28.997 -19.520   6.539  0.00  0.00    +0.071 A 
ATOM     17  C   LIG    1       28.376 -19.783   7.772  0.00  0.00    +0.066 A 
ATOM     18  N   LIG    1       29.130 -19.679   8.885  0.00  0.00    -0.247 NA
BRANCH  14  20
ATOM     19  C   LIG    1       32.152 -17.594   8.661  0.00  0.00    +0.014 C 
ATOM     20  C   LIG    1       31.161 -18.457   9.418  0.00  0.00    +0.038 C 
ATOM     21  C   LIG    1       30.407 -17.719  10.517  0.00  0.00    +0.014 C 
ENDBRANCH  14  20
ENDBRANCH  13  17
ENDBRANCH   7  13
ENDBRANCH   6   9
BRANCH   6  22
ATOM     22  C   LIG    1       25.454 -23.018   5.249  0.00  0.00    +0.047 C 
BRANCH  22  23
ATOM     23  C   LIG    1       24.634 -21.399   4.608  0.00  0.00    +0.087 C 
BRANCH  23  24
ATOM     24  N   LIG    1       24.361 -20.050   5.187  0.00  0.00    -0.298 NA
ATOM     25  C   LIG    1       23.658 -20.005   6.441  0.00  0.00    +0.112 C 
ATOM     26  C   LIG    1       22.729 -21.202   6.391  0.00  0.00    +0.175 C 
ATOM     27  O   LIG    1       22.034 -21.502   5.043  0.00  0.00    -0.377 OA
ATOM     28  C   LIG    1       21.893 -20.147   4.634  0.00  0.00    +0.175 C 
ATOM     29  C   LIG    1       23.311 -19.547   4.265  0.00  0.00    +0.112 C 
ENDBRANCH  23  24
ENDBRANCH  22  23
ENDBRANCH   6  22
ENDBRANCH   2   6
ENDBRANCH   1   3
BRANCH   1  30
ATOM     30  C   LIG    1       25.930 -27.552   7.776  0.00  0.00    +0.024 C 
BRANCH  30  31
ATOM     31  C   LIG    1       26.615 -28.699   8.550  0.00  0.00    +0.024 C 
BRANCH  31  32
ATOM     32  C   LIG    1       25.725 -29.140   9.706  0.00  0.00    +0.081 C 
BRANCH  32  33
ATOM     33  N   LIG    1       25.358 -30.556   9.378  0.00  0.00    -0.278 N 
ATOM     34  H   LIG    1       25.539 -30.900   8.464  0.00  0.00    +0.152 HD
ATOM     35  C   LIG    1       26.075 -31.629   9.996  0.00  0.00    +0.401 C 
ATOM     36  O   LIG    1       27.082 -31.794   9.514  0.00  0.00    -0.227 OA
BRANCH  35  37
ATOM     37  O   LIG    1       25.219 -32.395  10.801  0.00  0.00    -0.445 OA
BRANCH  37  38
ATOM     38  C   LIG    1       23.704 -32.830  11.736  0.00  0.00    +0.278 C 
BRANCH  38  39
ATOM     39  C   LIG    1       21.975 -31.930  11.759  0.00  0.00    +0.046 A 
ATOM     40  S   LIG    1       20.403 -32.572  11.861  0.00  0.00    -0.077 S 
ATOM     41  C   LIG    1       19.720 -31.755  10.458  0.00  0.00    +0.156 A 
ATOM     42  N   LIG    1       20.348 -30.662  10.271  0.00  0.00    -0.255 NA
ATOM     43  C   LIG    1       21.604 -30.730  10.896  0.00  0.00    +0.125 A 
ENDBRANCH  38  39
ENDBRANCH  37  38
ENDBRANCH  35  37
ENDBRANCH  32  33
BRANCH  32  44
ATOM     44  C   LIG    1       26.484 -28.951  11.186  0.00  0.00    +0.057 C 
BRANCH  44  45
ATOM     45  C   LIG    1       26.050 -27.738  12.181  0.00  0.00    -0.046 A 
ATOM     46  C   LIG    1       26.683 -26.529  12.511  0.00  0.00    +0.003 A 
ATOM     47  C   LIG    1       26.032 -25.513  13.344  0.00  0.00    +0.000 A 
ATOM     48  C   LIG    1       24.804 -25.704  13.988  0.00  0.00    +0.000 A 
ATOM     49  C   LIG    1       24.157 -26.862  13.696  0.00  0.00    +0.000 A 
ATOM     50  C   LIG    1       24.772 -27.721  12.756  0.00  0.00    +0.003 A 
ENDBRANCH  44  45
ENDBRANCH  32  44
ENDBRANCH  31  32
ENDBRANCH  30  31
ENDBRANCH   1  30
BRANCH   1  51
ATOM     51  C   LIG    1       25.494 -28.856   5.598  0.00  0.00    +0.057 C 
BRANCH  51  52
ATOM     52  C   LIG    1       25.087 -30.552   5.518  0.00  0.00    -0.046 A 
ATOM     53  C   LIG    1       24.005 -31.220   6.143  0.00  0.00    +0.003 A 
ATOM     54  C   LIG    1       23.657 -32.614   5.891  0.00  0.00    +0.000 A 
ATOM     55  C   LIG    1       24.497 -33.486   5.220  0.00  0.00    +0.000 A 
ATOM     56  C   LIG    1       25.713 -32.975   4.877  0.00  0.00    +0.000 A 
ATOM     57  C   LIG    1       25.904 -31.540   4.867  0.00  0.00    +0.003 A 
ENDBRANCH  51  52
ENDBRANCH   1  51
TORSDOF 20
ENDMDL
MODEL 7
REMARK VINA RESULT:      -8.6      2.558     11.131
REMARK  Name = *****
REMARK                            x       y       z     vdW  Elec       q    Type
REMARK                         _______ _______ _______ _____ _____    ______ ____
ROOT
ATOM      1  C   LIG    1       25.693 -27.772   8.072  0.00  0.00    +0.077 C 
ENDROOT
BRANCH   1   3
ATOM      2  C   LIG    1       26.175 -26.009   5.963  0.00  0.00    +0.234 C 
ATOM      3  N   LIG    1       26.432 -27.030   6.879  0.00  0.00    -0.311 N 
ATOM      4  H   LIG    1       26.863 -27.721   6.265  0.00  0.00    +0.149 HD
ATOM      5  O   LIG    1       26.471 -26.311   4.784  0.00  0.00    -0.274 OA
BRANCH   2   6
ATOM      6  C   LIG    1       25.852 -24.446   6.176  0.00  0.00    +0.161 C 
BRANCH   6   9
ATOM      7  N   LIG    1       27.043 -21.996   7.636  0.00  0.00    -0.283 N 
ATOM      8  C   LIG    1       26.204 -22.936   8.185  0.00  0.00    +0.303 C 
ATOM      9  N   LIG    1       25.903 -24.160   7.617  0.00  0.00    -0.288 N 
ATOM     10  H   LIG    1       25.118 -24.633   8.079  0.00  0.00    +0.151 HD
ATOM     11  O   LIG    1       25.455 -22.557   9.108  0.00  0.00    -0.253 OA
ATOM     12  C   LIG    1       28.241 -22.203   6.787  0.00  0.00    +0.134 C 
BRANCH   7  13
ATOM     13  C   LIG    1       26.973 -20.645   8.267  0.00  0.00    +0.165 C 
BRANCH  13  17
ATOM     14  C   LIG    1       29.735 -18.693   7.950  0.00  0.00    +0.081 A 
ATOM     15  S   LIG    1       29.702 -18.796   6.203  0.00  0.00    -0.080 S 
ATOM     16  C   LIG    1       28.226 -19.549   6.379  0.00  0.00    +0.071 A 
ATOM     17  C   LIG    1       28.082 -19.952   7.717  0.00  0.00    +0.066 A 
ATOM     18  N   LIG    1       29.048 -19.591   8.585  0.00  0.00    -0.247 NA
BRANCH  14  20
ATOM     19  C   LIG    1       30.130 -17.335   9.949  0.00  0.00    +0.014 C 
ATOM     20  C   LIG    1       30.682 -17.792   8.612  0.00  0.00    +0.038 C 
ATOM     21  C   LIG    1       32.047 -18.461   8.699  0.00  0.00    +0.014 C 
ENDBRANCH  14  20
ENDBRANCH  13  17
ENDBRANCH   7  13
ENDBRANCH   6   9
BRANCH   6  22
ATOM     22  C   LIG    1       24.783 -23.755   5.185  0.00  0.00    +0.047 C 
BRANCH  22  23
ATOM     23  C   LIG    1       24.491 -22.012   4.426  0.00  0.00    +0.087 C 
BRANCH  23  24
ATOM     24  N   LIG    1       24.748 -20.609   4.867  0.00  0.00    -0.298 NA
ATOM     25  C   LIG    1       24.306 -20.244   6.186  0.00  0.00    +0.112 C 
ATOM     26  C   LIG    1       23.056 -21.075   6.403  0.00  0.00    +0.175 C 
ATOM     27  O   LIG    1       22.093 -21.230   5.202  0.00  0.00    -0.377 OA
ATOM     28  C   LIG    1       22.316 -19.937   4.653  0.00  0.00    +0.175 C 
ATOM     29  C   LIG    1       23.772 -19.860   4.034  0.00  0.00    +0.112 C 
ENDBRANCH  23  24
ENDBRANCH  22  23
ENDBRANCH   6  22
ENDBRANCH   2   6
ENDBRANCH   1   3
BRANCH   1  30
ATOM     30  C   LIG    1       26.630 -28.343   9.114  0.00  0.00    +0.024 C 
BRANCH  30  31
ATOM     31  C   LIG    1       26.626 -27.901  10.593  0.00  0.00    +0.024 C 
BRANCH  31  32
ATOM     32  C   LIG    1       25.764 -28.855  11.411  0.00  0.00    +0.081 C 
BRANCH  32  33
ATOM     33  N   LIG    1       26.643 -30.047  11.647  0.00  0.00    -0.278 N 
ATOM     34  H   LIG    1       27.369 -30.245  10.998  0.00  0.00    +0.152 HD
ATOM     35  C   LIG    1       27.545 -30.045  12.758  0.00  0.00    +0.401 C 
ATOM     36  O   LIG    1       28.466 -29.426  12.550  0.00  0.00    -0.227 OA
BRANCH  35  37
ATOM     37  O   LIG    1       27.212 -31.063  13.664  0.00  0.00    -0.445 OA
BRANCH  37  38
ATOM     38  C   LIG    1       26.228 -31.967  14.917  0.00  0.00    +0.278 C 
BRANCH  38  39
ATOM     39  C   LIG    1       24.369 -32.546  14.832  0.00  0.00    +0.046 A 
ATOM     40  S   LIG    1       23.558 -33.468  13.652  0.00  0.00    -0.077 S 
ATOM     41  C   LIG    1       22.213 -32.365  13.371  0.00  0.00    +0.156 A 
ATOM     42  N   LIG    1       22.009 -31.686  14.430  0.00  0.00    -0.255 NA
ATOM     43  C   LIG    1       23.168 -31.694  15.224  0.00  0.00    +0.125 A 
ENDBRANCH  38  39
ENDBRANCH  37  38
ENDBRANCH  35  37
ENDBRANCH  32  33
BRANCH  32  44
ATOM     44  C   LIG    1       25.189 -28.136  12.809  0.00  0.00    +0.057 C 
BRANCH  44  45
ATOM     45  C   LIG    1       23.608 -27.785  12.960  0.00  0.00    -0.046 A 
ATOM     46  C   LIG    1       22.946 -26.633  13.415  0.00  0.00    +0.003 A 
ATOM     47  C   LIG    1       21.488 -26.493  13.337  0.00  0.00    +0.000 A 
ATOM     48  C   LIG    1       20.626 -27.522  12.941  0.00  0.00    +0.000 A 
ATOM     49  C   LIG    1       21.226 -28.656  12.493  0.00  0.00    +0.000 A 
ATOM     50  C   LIG    1       22.639 -28.657  12.443  0.00  0.00    +0.003 A 
ENDBRANCH  44  45
ENDBRANCH  32  44
ENDBRANCH  31  32
ENDBRANCH  30  31
ENDBRANCH   1  30
BRANCH   1  51
ATOM     51  C   LIG    1       24.560 -28.973   7.716  0.00  0.00    +0.057 C 
BRANCH  51  52
ATOM     52  C   LIG    1       24.535 -30.555   8.451  0.00  0.00    -0.046 A 
ATOM     53  C   LIG    1       25.445 -31.623   8.254  0.00  0.00    +0.003 A 
ATOM     54  C   LIG    1       25.431 -32.857   9.032  0.00  0.00    +0.000 A 
ATOM     55  C   LIG    1       24.377 -33.210   9.857  0.00  0.00    +0.000 A 
ATOM     56  C   LIG    1       23.309 -32.362   9.833  0.00  0.00    +0.000 A 
ATOM     57  C   LIG    1       23.476 -31.026   9.302  0.00  0.00    +0.003 A 
ENDBRANCH  51  52
ENDBRANCH   1  51
TORSDOF 20
ENDMDL
MODEL 8
REMARK VINA RESULT:      -8.4      3.700     10.876
REMARK  Name = *****
REMARK                            x       y       z     vdW  Elec       q    Type
REMARK                         _______ _______ _______ _____ _____    ______ ____
ROOT
ATOM      1  C   LIG    1       23.602 -30.302  10.867  0.00  0.00    +0.077 C 
ENDROOT
BRANCH   1   3
ATOM      2  C   LIG    1       24.253 -29.624   8.239  0.00  0.00    +0.234 C 
ATOM      3  N   LIG    1       23.953 -30.447   9.325  0.00  0.00    -0.311 N 
ATOM      4  H   LIG    1       23.297 -31.094   8.888  0.00  0.00    +0.149 HD
ATOM      5  O   LIG    1       23.599 -29.902   7.208  0.00  0.00    -0.274 OA
BRANCH   2   6
ATOM      6  C   LIG    1       25.468 -28.598   7.986  0.00  0.00    +0.161 C 
BRANCH   6   9
ATOM      7  N   LIG    1       25.077 -26.369   5.881  0.00  0.00    -0.283 N 
ATOM      8  C   LIG    1       25.839 -27.503   5.727  0.00  0.00    +0.303 C 
ATOM      9  N   LIG    1       25.787 -28.612   6.551  0.00  0.00    -0.288 N 
ATOM     10  H   LIG    1       26.559 -29.268   6.387  0.00  0.00    +0.151 HD
ATOM     11  O   LIG    1       26.827 -27.423   4.971  0.00  0.00    -0.253 OA
ATOM     12  C   LIG    1       23.703 -26.240   6.425  0.00  0.00    +0.134 C 
BRANCH   7  13
ATOM     13  C   LIG    1       25.520 -25.198   5.068  0.00  0.00    +0.165 C 
BRANCH  13  17
ATOM     14  C   LIG    1       24.890 -22.078   6.254  0.00  0.00    +0.081 A 
ATOM     15  S   LIG    1       25.444 -22.493   7.861  0.00  0.00    -0.080 S 
ATOM     16  C   LIG    1       25.958 -23.933   7.199  0.00  0.00    +0.071 A 
ATOM     17  C   LIG    1       25.354 -24.092   5.941  0.00  0.00    +0.066 A 
ATOM     18  N   LIG    1       24.601 -23.075   5.477  0.00  0.00    -0.247 NA
BRANCH  14  20
ATOM     19  C   LIG    1       25.440 -20.179   4.808  0.00  0.00    +0.014 C 
ATOM     20  C   LIG    1       24.556 -20.688   5.932  0.00  0.00    +0.038 C 
ATOM     21  C   LIG    1       23.064 -20.574   5.649  0.00  0.00    +0.014 C 
ENDBRANCH  14  20
ENDBRANCH  13  17
ENDBRANCH   7  13
ENDBRANCH   6   9
BRANCH   6  22
ATOM     22  C   LIG    1       26.596 -28.468   9.131  0.00  0.00    +0.047 C 
BRANCH  22  23
ATOM     23  C   LIG    1       26.648 -28.125  11.023  0.00  0.00    +0.087 C 
BRANCH  23  24
ATOM     24  N   LIG    1       27.729 -27.940  12.036  0.00  0.00    -0.298 NA
ATOM     25  C   LIG    1       28.202 -29.118  12.714  0.00  0.00    +0.112 C 
ATOM     26  C   LIG    1       26.979 -30.009  12.809  0.00  0.00    +0.175 C 
ATOM     27  O   LIG    1       25.631 -29.327  13.141  0.00  0.00    -0.377 OA
ATOM     28  C   LIG    1       26.169 -28.322  13.993  0.00  0.00    +0.175 C 
ATOM     29  C   LIG    1       26.986 -27.271  13.134  0.00  0.00    +0.112 C 
ENDBRANCH  23  24
ENDBRANCH  22  23
ENDBRANCH   6  22
ENDBRANCH   2   6
ENDBRANCH   1   3
BRANCH   1  30
ATOM     30  C   LIG    1       23.461 -31.623  11.591  0.00  0.00    +0.024 C 
BRANCH  30  31
ATOM     31  C   LIG    1       22.418 -31.876  12.701  0.00  0.00    +0.024 C 
BRANCH  31  32
ATOM     32  C   LIG    1       21.923 -33.316  12.620  0.00  0.00    +0.081 C 
BRANCH  32  33
ATOM     33  N   LIG    1       20.767 -33.369  13.573  0.00  0.00    -0.278 N 
ATOM     34  H   LIG    1       20.852 -33.908  14.403  0.00  0.00    +0.152 HD
ATOM     35  C   LIG    1       20.396 -32.191  14.295  0.00  0.00    +0.401 C 
ATOM     36  O   LIG    1       21.086 -31.999  15.167  0.00  0.00    -0.227 OA
BRANCH  35  37
ATOM     37  O   LIG    1       19.103 -31.781  13.938  0.00  0.00    -0.445 OA
BRANCH  37  38
ATOM     38  C   LIG    1       17.695 -30.637  13.677  0.00  0.00    +0.278 C 
BRANCH  38  39
ATOM     39  C   LIG    1       17.278 -28.974  14.604  0.00  0.00    +0.046 A 
ATOM     40  S   LIG    1       15.775 -28.308  15.044  0.00  0.00    -0.077 S 
ATOM     41  C   LIG    1       15.999 -26.716  14.323  0.00  0.00    +0.156 A 
ATOM     42  N   LIG    1       17.246 -26.450  14.292  0.00  0.00    -0.255 NA
ATOM     43  C   LIG    1       17.982 -27.643  14.371  0.00  0.00    +0.125 A 
ENDBRANCH  38  39
ENDBRANCH  37  38
ENDBRANCH  35  37
ENDBRANCH  32  33
BRANCH  32  44
ATOM     44  C   LIG    1       21.544 -33.759  11.051  0.00  0.00    +0.057 C 
BRANCH  44  45
ATOM     45  C   LIG    1       20.194 -33.189  10.342  0.00  0.00    -0.046 A 
ATOM     46  C   LIG    1       19.207 -33.821   9.570  0.00  0.00    +0.003 A 
ATOM     47  C   LIG    1       17.991 -33.123   9.139  0.00  0.00    +0.000 A 
ATOM     48  C   LIG    1       17.768 -31.755   9.334  0.00  0.00    +0.000 A 
ATOM     49  C   LIG    1       18.701 -31.103  10.078  0.00  0.00    +0.000 A 
ATOM     50  C   LIG    1       19.762 -31.879  10.597  0.00  0.00    +0.003 A 
ENDBRANCH  44  45
ENDBRANCH  32  44
ENDBRANCH  31  32
ENDBRANCH  30  31
ENDBRANCH   1  30
BRANCH   1  51
ATOM     51  C   LIG    1       22.287 -29.345  11.324  0.00  0.00    +0.057 C 
BRANCH  51  52
ATOM     52  C   LIG    1       22.236 -28.365  12.766  0.00  0.00    -0.046 A 
ATOM     53  C   LIG    1       21.350 -28.478  13.867  0.00  0.00    +0.003 A 
ATOM     54  C   LIG    1       21.483 -27.710  15.100  0.00  0.00    +0.000 A 
ATOM     55  C   LIG    1       22.329 -26.619  15.215  0.00  0.00    +0.000 A 
ATOM     56  C   LIG    1       22.974 -26.258  14.069  0.00  0.00    +0.000 A 
ATOM     57  C   LIG    1       23.054 -27.200  12.972  0.00  0.00    +0.003 A 
ENDBRANCH  51  52
ENDBRANCH   1  51
TORSDOF 20
ENDMDL
MODEL 9
REMARK VINA RESULT:      -8.4      2.875     11.320
REMARK  Name = *****
REMARK                            x       y       z     vdW  Elec       q    Type
REMARK                         _______ _______ _______ _____ _____    ______ ____
ROOT
ATOM      1  C   LIG    1       25.668 -27.771   8.057  0.00  0.00    +0.077 C 
ENDROOT
BRANCH   1   3
ATOM      2  C   LIG    1       26.243 -26.031   5.951  0.00  0.00    +0.234 C 
ATOM      3  N   LIG    1       26.465 -27.028   6.902  0.00  0.00    -0.311 N 
ATOM      4  H   LIG    1       26.956 -27.717   6.332  0.00  0.00    +0.149 HD
ATOM      5  O   LIG    1       26.627 -26.345   4.801  0.00  0.00    -0.274 OA
BRANCH   2   6
ATOM      6  C   LIG    1       25.863 -24.475   6.111  0.00  0.00    +0.161 C 
BRANCH   6   9
ATOM      7  N   LIG    1       27.027 -21.995   7.543  0.00  0.00    -0.283 N 
ATOM      8  C   LIG    1       26.159 -22.911   8.088  0.00  0.00    +0.303 C 
ATOM      9  N   LIG    1       25.866 -24.148   7.545  0.00  0.00    -0.288 N 
ATOM     10  H   LIG    1       25.060 -24.600   7.992  0.00  0.00    +0.151 HD
ATOM     11  O   LIG    1       25.383 -22.499   8.972  0.00  0.00    -0.253 OA
ATOM     12  C   LIG    1       28.253 -22.239   6.744  0.00  0.00    +0.134 C 
BRANCH   7  13
ATOM     13  C   LIG    1       26.950 -20.626   8.132  0.00  0.00    +0.165 C 
BRANCH  13  17
ATOM     14  C   LIG    1       29.939 -19.016   8.254  0.00  0.00    +0.081 A 
ATOM     15  S   LIG    1       30.037 -18.906   6.511  0.00  0.00    -0.080 S 
ATOM     16  C   LIG    1       28.474 -19.481   6.489  0.00  0.00    +0.071 A 
ATOM     17  C   LIG    1       28.174 -20.019   7.752  0.00  0.00    +0.066 A 
ATOM     18  N   LIG    1       29.101 -19.889   8.722  0.00  0.00    -0.247 NA
BRANCH  14  20
ATOM     19  C   LIG    1       32.192 -18.058   8.296  0.00  0.00    +0.014 C 
ATOM     20  C   LIG    1       30.926 -18.327   9.088  0.00  0.00    +0.038 C 
ATOM     21  C   LIG    1       30.299 -17.081   9.698  0.00  0.00    +0.014 C 
ENDBRANCH  14  20
ENDBRANCH  13  17
ENDBRANCH   7  13
ENDBRANCH   6   9
BRANCH   6  22
ATOM     22  C   LIG    1       24.800 -23.847   5.074  0.00  0.00    +0.047 C 
BRANCH  22  23
ATOM     23  C   LIG    1       24.357 -22.102   4.396  0.00  0.00    +0.087 C 
BRANCH  23  24
ATOM     24  N   LIG    1       24.730 -20.702   4.754  0.00  0.00    -0.298 NA
ATOM     25  C   LIG    1       24.404 -20.254   6.082  0.00  0.00    +0.112 C 
ATOM     26  C   LIG    1       23.122 -20.991   6.418  0.00  0.00    +0.175 C 
ATOM     27  O   LIG    1       22.072 -21.133   5.292  0.00  0.00    -0.377 OA
ATOM     28  C   LIG    1       22.337 -19.881   4.671  0.00  0.00    +0.175 C 
ATOM     29  C   LIG    1       23.749 -19.926   3.954  0.00  0.00    +0.112 C 
ENDBRANCH  23  24
ENDBRANCH  22  23
ENDBRANCH   6  22
ENDBRANCH   2   6
ENDBRANCH   1   3
BRANCH   1  30
ATOM     30  C   LIG    1       26.521 -28.142   9.250  0.00  0.00    +0.024 C 
BRANCH  30  31
ATOM     31  C   LIG    1       25.983 -28.924  10.468  0.00  0.00    +0.024 C 
BRANCH  31  32
ATOM     32  C   LIG    1       26.834 -28.611  11.693  0.00  0.00    +0.081 C 
BRANCH  32  33
ATOM     33  N   LIG    1       25.897 -28.774  12.852  0.00  0.00    -0.278 N 
ATOM     34  H   LIG    1       26.257 -28.700  13.776  0.00  0.00    +0.152 HD
ATOM     35  C   LIG    1       24.895 -27.782  13.091  0.00  0.00    +0.401 C 
ATOM     36  O   LIG    1       25.324 -26.862  13.587  0.00  0.00    -0.227 OA
BRANCH  35  37
ATOM     37  O   LIG    1       23.612 -28.333  12.955  0.00  0.00    -0.445 OA
BRANCH  37  38
ATOM     38  C   LIG    1       21.788 -28.369  12.783  0.00  0.00    +0.278 C 
BRANCH  38  39
ATOM     39  C   LIG    1       20.424 -27.875  14.085  0.00  0.00    +0.046 A 
ATOM     40  S   LIG    1       19.201 -28.813  14.805  0.00  0.00    -0.077 S 
ATOM     41  C   LIG    1       17.840 -27.760  14.427  0.00  0.00    +0.156 A 
ATOM     42  N   LIG    1       18.260 -26.561  14.331  0.00  0.00    -0.255 NA
ATOM     43  C   LIG    1       19.641 -26.567  14.077  0.00  0.00    +0.125 A 
ENDBRANCH  38  39
ENDBRANCH  37  38
ENDBRANCH  35  37
ENDBRANCH  32  33
BRANCH  32  44
ATOM     44  C   LIG    1       28.198 -29.579  11.769  0.00  0.00    +0.057 C 
BRANCH  44  45
ATOM     45  C   LIG    1       29.138 -29.569  13.097  0.00  0.00    -0.046 A 
ATOM     46  C   LIG    1       28.822 -29.610  14.465  0.00  0.00    +0.003 A 
ATOM     47  C   LIG    1       29.856 -29.726  15.498  0.00  0.00    +0.000 A 
ATOM     48  C   LIG    1       31.229 -29.668  15.236  0.00  0.00    +0.000 A 
ATOM     49  C   LIG    1       31.580 -29.628  13.923  0.00  0.00    +0.000 A 
ATOM     50  C   LIG    1       30.530 -29.685  12.978  0.00  0.00    +0.003 A 
ENDBRANCH  44  45
ENDBRANCH  32  44
ENDBRANCH  31  32
ENDBRANCH  30  31
ENDBRANCH   1  30
BRANCH   1  51
ATOM     51  C   LIG    1       24.738 -29.127   7.671  0.00  0.00    +0.057 C 
BRANCH  51  52
ATOM     52  C   LIG    1       25.361 -30.561   6.897  0.00  0.00    -0.046 A 
ATOM     53  C   LIG    1       26.120 -31.607   7.478  0.00  0.00    +0.003 A 
ATOM     54  C   LIG    1       26.464 -32.844   6.785  0.00  0.00    +0.000 A 
ATOM     55  C   LIG    1       26.304 -33.006   5.419  0.00  0.00    +0.000 A 
ATOM     56  C   LIG    1       25.876 -31.900   4.747  0.00  0.00    +0.000 A 
ATOM     57  C   LIG    1       25.267 -30.813   5.484  0.00  0.00    +0.003 A 
ENDBRANCH  51  52
ENDBRANCH   1  51
TORSDOF 20
ENDMDL
