MODEL 1
REMARK VINA RESULT:      -6.9      0.000      0.000
REMARK  Name = *****
REMARK                            x       y       z     vdW  Elec       q    Type
REMARK                         _______ _______ _______ _____ _____    ______ ____
ROOT
ATOM      1  C   LIG    1       25.050 -17.944   3.644  0.00  0.00    +0.341 C 
ATOM      2  O   LIG    1       23.868 -17.650   3.768  0.00  0.00    -0.247 OA
ENDROOT
BRANCH   1   3
ATOM      3  O   LIG    1       26.048 -17.101   3.241  0.00  0.00    -0.459 OA
BRANCH   3  11
ATOM      4  C   LIG    1       24.169 -13.023   3.964  0.00  0.00    +0.007 C 
ATOM      5  C   LIG    1       25.112 -13.454   2.843  0.00  0.00    -0.010 C 
ATOM      6  C   LIG    1       26.542 -12.910   2.979  0.00  0.00    +0.010 C 
ATOM      7  C   LIG    1       27.479 -13.662   3.954  0.00  0.00    -0.031 C 
ATOM      8  C   LIG    1       28.929 -13.207   3.670  0.00  0.00    +0.011 C 
ATOM      9  C   LIG    1       27.175 -13.310   5.421  0.00  0.00    +0.011 C 
ATOM     10  C   LIG    1       27.387 -15.185   3.726  0.00  0.00    +0.051 C 
ATOM     11  C   LIG    1       25.955 -15.729   3.677  0.00  0.00    +0.177 C 
ATOM     12  C   LIG    1       25.112 -14.970   2.651  0.00  0.00    +0.048 C 
ENDBRANCH   3  11
ENDBRANCH   1   3
BRANCH   1  13
ATOM     13  C   LIG    1       25.622 -19.344   3.931  0.00  0.00    +0.253 C 
BRANCH  13  14
ATOM     14  C   LIG    1       24.743 -20.122   4.895  0.00  0.00    -0.008 A 
ATOM     15  C   LIG    1       23.401 -20.411   4.595  0.00  0.00    +0.007 A 
ATOM     16  C   LIG    1       22.604 -21.123   5.494  0.00  0.00    +0.000 A 
ATOM     17  C   LIG    1       23.141 -21.571   6.698  0.00  0.00    +0.000 A 
ATOM     18  C   LIG    1       24.476 -21.313   7.000  0.00  0.00    +0.000 A 
ATOM     19  C   LIG    1       25.273 -20.595   6.106  0.00  0.00    +0.007 A 
ENDBRANCH  13  14
BRANCH  13  20
ATOM     20  O   LIG    1       26.952 -19.270   4.445  0.00  0.00    -0.376 OA
ATOM     21  H   LIG    1       27.245 -18.349   4.308  0.00  0.00    +0.211 HD
ENDBRANCH  13  20
ENDBRANCH   1  13
TORSDOF 5
ENDMDL
MODEL 2
REMARK VINA RESULT:      -6.4      1.767      2.635
REMARK  Name = *****
REMARK                            x       y       z     vdW  Elec       q    Type
REMARK                         _______ _______ _______ _____ _____    ______ ____
ROOT
ATOM      1  C   LIG    1       22.349 -16.552   4.885  0.00  0.00    +0.341 C 
ATOM      2  O   LIG    1       21.971 -15.885   5.839  0.00  0.00    -0.247 OA
ENDROOT
BRANCH   1   3
ATOM      3  O   LIG    1       23.280 -16.173   3.961  0.00  0.00    -0.459 OA
BRANCH   3  11
ATOM      4  C   LIG    1       23.849 -11.701   4.572  0.00  0.00    +0.007 C 
ATOM      5  C   LIG    1       24.100 -12.532   3.316  0.00  0.00    -0.010 C 
ATOM      6  C   LIG    1       25.586 -12.761   2.999  0.00  0.00    +0.010 C 
ATOM      7  C   LIG    1       26.299 -13.882   3.791  0.00  0.00    -0.031 C 
ATOM      8  C   LIG    1       27.635 -14.194   3.081  0.00  0.00    +0.011 C 
ATOM      9  C   LIG    1       26.643 -13.435   5.224  0.00  0.00    +0.011 C 
ATOM     10  C   LIG    1       25.439 -15.162   3.809  0.00  0.00    +0.051 C 
ATOM     11  C   LIG    1       23.977 -14.934   4.211  0.00  0.00    +0.177 C 
ATOM     12  C   LIG    1       23.330 -13.852   3.344  0.00  0.00    +0.048 C 
ENDBRANCH   3  11
ENDBRANCH   1   3
BRANCH   1  13
ATOM     13  C   LIG    1       21.827 -17.963   4.564  0.00  0.00    +0.253 C 
BRANCH  13  14
ATOM     14  C   LIG    1       22.927 -19.006   4.663  0.00  0.00    -0.008 A 
ATOM     15  C   LIG    1       23.976 -19.057   3.731  0.00  0.00    +0.007 A 
ATOM     16  C   LIG    1       24.977 -20.026   3.832  0.00  0.00    +0.000 A 
ATOM     17  C   LIG    1       24.954 -20.946   4.877  0.00  0.00    +0.000 A 
ATOM     18  C   LIG    1       23.933 -20.894   5.823  0.00  0.00    +0.000 A 
ATOM     19  C   LIG    1       22.926 -19.931   5.719  0.00  0.00    +0.007 A 
ENDBRANCH  13  14
BRANCH  13  20
ATOM     20  O   LIG    1       21.228 -18.017   3.268  0.00  0.00    -0.376 OA
ATOM     21  H   LIG    1       21.365 -17.137   2.870  0.00  0.00    +0.211 HD
ENDBRANCH  13  20
ENDBRANCH   1  13
TORSDOF 5
ENDMDL
MODEL 3
REMARK VINA RESULT:      -6.2      1.793      6.843
REMARK  Name = *****
REMARK                            x       y       z     vdW  Elec       q    Type
REMARK                         _______ _______ _______ _____ _____    ______ ____
ROOT
ATOM      1  C   LIG    1       22.985 -15.694   4.431  0.00  0.00    +0.341 C 
ATOM      2  O   LIG    1       22.681 -15.328   5.559  0.00  0.00    -0.247 OA
ENDROOT
BRANCH   1   3
ATOM      3  O   LIG    1       22.693 -16.908   3.877  0.00  0.00    -0.459 OA
BRANCH   3  11
ATOM      4  C   LIG    1       26.092 -19.774   4.838  0.00  0.00    +0.007 C 
ATOM      5  C   LIG    1       25.001 -19.908   3.778  0.00  0.00    -0.010 C 
ATOM      6  C   LIG    1       23.921 -20.948   4.116  0.00  0.00    +0.010 C 
ATOM      7  C   LIG    1       22.810 -20.499   5.094  0.00  0.00    -0.031 C 
ATOM      8  C   LIG    1       21.655 -21.523   5.009  0.00  0.00    +0.011 C 
ATOM      9  C   LIG    1       23.303 -20.495   6.552  0.00  0.00    +0.011 C 
ATOM     10  C   LIG    1       22.267 -19.110   4.697  0.00  0.00    +0.051 C 
ATOM     11  C   LIG    1       23.354 -18.058   4.446  0.00  0.00    +0.177 C 
ATOM     12  C   LIG    1       24.379 -18.558   3.426  0.00  0.00    +0.048 C 
ENDBRANCH   3  11
ENDBRANCH   1   3
BRANCH   1  13
ATOM     13  C   LIG    1       23.760 -14.825   3.426  0.00  0.00    +0.253 C 
BRANCH  13  14
ATOM     14  C   LIG    1       25.188 -14.576   3.882  0.00  0.00    -0.008 A 
ATOM     15  C   LIG    1       25.502 -13.546   4.784  0.00  0.00    +0.007 A 
ATOM     16  C   LIG    1       26.820 -13.325   5.189  0.00  0.00    +0.000 A 
ATOM     17  C   LIG    1       27.841 -14.143   4.712  0.00  0.00    +0.000 A 
ATOM     18  C   LIG    1       27.544 -15.183   3.834  0.00  0.00    +0.000 A 
ATOM     19  C   LIG    1       26.227 -15.400   3.422  0.00  0.00    +0.007 A 
ENDBRANCH  13  14
BRANCH  13  20
ATOM     20  O   LIG    1       23.103 -13.577   3.197  0.00  0.00    -0.376 OA
ATOM     21  H   LIG    1       22.331 -13.777   2.635  0.00  0.00    +0.211 HD
ENDBRANCH  13  20
ENDBRANCH   1  13
TORSDOF 5
ENDMDL
MODEL 4
REMARK VINA RESULT:      -6.2      0.759      2.440
REMARK  Name = *****
REMARK                            x       y       z     vdW  Elec       q    Type
REMARK                         _______ _______ _______ _____ _____    ______ ____
ROOT
ATOM      1  C   LIG    1       25.529 -18.140   3.569  0.00  0.00    +0.341 C 
ATOM      2  O   LIG    1       24.402 -17.663   3.588  0.00  0.00    -0.247 OA
ENDROOT
BRANCH   1   3
ATOM      3  O   LIG    1       26.672 -17.483   3.208  0.00  0.00    -0.459 OA
BRANCH   3  11
ATOM      4  C   LIG    1       28.204 -13.211   3.496  0.00  0.00    +0.007 C 
ATOM      5  C   LIG    1       27.505 -14.048   4.565  0.00  0.00    -0.010 C 
ATOM      6  C   LIG    1       26.052 -13.632   4.840  0.00  0.00    +0.010 C 
ATOM      7  C   LIG    1       24.984 -14.146   3.846  0.00  0.00    -0.031 C 
ATOM      8  C   LIG    1       23.594 -13.942   4.489  0.00  0.00    +0.011 C 
ATOM      9  C   LIG    1       24.996 -13.345   2.532  0.00  0.00    +0.011 C 
ATOM     10  C   LIG    1       25.183 -15.651   3.570  0.00  0.00    +0.051 C 
ATOM     11  C   LIG    1       26.622 -16.041   3.213  0.00  0.00    +0.177 C 
ATOM     12  C   LIG    1       27.607 -15.544   4.272  0.00  0.00    +0.048 C 
ENDBRANCH   3  11
ENDBRANCH   1   3
BRANCH   1  13
ATOM     13  C   LIG    1       25.854 -19.592   3.962  0.00  0.00    +0.253 C 
BRANCH  13  14
ATOM     14  C   LIG    1       24.788 -20.180   4.870  0.00  0.00    -0.008 A 
ATOM     15  C   LIG    1       25.040 -20.438   6.227  0.00  0.00    +0.007 A 
ATOM     16  C   LIG    1       24.051 -20.986   7.048  0.00  0.00    +0.000 A 
ATOM     17  C   LIG    1       22.791 -21.266   6.528  0.00  0.00    +0.000 A 
ATOM     18  C   LIG    1       22.516 -20.995   5.190  0.00  0.00    +0.000 A 
ATOM     19  C   LIG    1       23.506 -20.455   4.365  0.00  0.00    +0.007 A 
ENDBRANCH  13  14
BRANCH  13  20
ATOM     20  O   LIG    1       27.132 -19.691   4.592  0.00  0.00    -0.376 OA
ATOM     21  H   LIG    1       26.958 -19.943   5.519  0.00  0.00    +0.211 HD
ENDBRANCH  13  20
ENDBRANCH   1  13
TORSDOF 5
ENDMDL
MODEL 5
REMARK VINA RESULT:      -6.1      1.326      7.166
REMARK  Name = *****
REMARK                            x       y       z     vdW  Elec       q    Type
REMARK                         _______ _______ _______ _____ _____    ______ ____
ROOT
ATOM      1  C   LIG    1       25.848 -16.823   3.355  0.00  0.00    +0.341 C 
ATOM      2  O   LIG    1       27.024 -17.152   3.444  0.00  0.00    -0.247 OA
ENDROOT
BRANCH   1   3
ATOM      3  O   LIG    1       24.783 -17.674   3.278  0.00  0.00    -0.459 OA
BRANCH   3  11
ATOM      4  C   LIG    1       26.185 -20.859   6.207  0.00  0.00    +0.007 C 
ATOM      5  C   LIG    1       25.569 -21.041   4.822  0.00  0.00    -0.010 C 
ATOM      6  C   LIG    1       24.118 -21.547   4.840  0.00  0.00    +0.010 C 
ATOM      7  C   LIG    1       23.019 -20.491   5.107  0.00  0.00    -0.031 C 
ATOM      8  C   LIG    1       21.657 -21.110   4.720  0.00  0.00    +0.011 C 
ATOM      9  C   LIG    1       22.939 -20.118   6.598  0.00  0.00    +0.011 C 
ATOM     10  C   LIG    1       23.254 -19.236   4.241  0.00  0.00    +0.051 C 
ATOM     11  C   LIG    1       24.685 -18.690   4.298  0.00  0.00    +0.177 C 
ATOM     12  C   LIG    1       25.705 -19.781   3.968  0.00  0.00    +0.048 C 
ENDBRANCH   3  11
ENDBRANCH   1   3
BRANCH   1  13
ATOM     13  C   LIG    1       25.365 -15.363   3.320  0.00  0.00    +0.253 C 
BRANCH  13  14
ATOM     14  C   LIG    1       26.427 -14.407   3.835  0.00  0.00    -0.008 A 
ATOM     15  C   LIG    1       27.491 -13.983   3.021  0.00  0.00    +0.007 A 
ATOM     16  C   LIG    1       28.464 -13.109   3.512  0.00  0.00    +0.000 A 
ATOM     17  C   LIG    1       28.377 -12.631   4.816  0.00  0.00    +0.000 A 
ATOM     18  C   LIG    1       27.315 -13.023   5.629  0.00  0.00    +0.000 A 
ATOM     19  C   LIG    1       26.346 -13.904   5.143  0.00  0.00    +0.007 A 
ENDBRANCH  13  14
BRANCH  13  20
ATOM     20  O   LIG    1       24.160 -15.192   4.067  0.00  0.00    -0.376 OA
ATOM     21  H   LIG    1       24.424 -15.176   5.006  0.00  0.00    +0.211 HD
ENDBRANCH  13  20
ENDBRANCH   1  13
TORSDOF 5
ENDMDL
MODEL 6
REMARK VINA RESULT:      -5.4      1.541      6.783
REMARK  Name = *****
REMARK                            x       y       z     vdW  Elec       q    Type
REMARK                         _______ _______ _______ _____ _____    ______ ____
ROOT
ATOM      1  C   LIG    1       25.718 -16.937   3.307  0.00  0.00    +0.341 C 
ATOM      2  O   LIG    1       26.392 -17.690   2.616  0.00  0.00    -0.247 OA
ENDROOT
BRANCH   1   3
ATOM      3  O   LIG    1       24.387 -17.076   3.582  0.00  0.00    -0.459 OA
BRANCH   3  11
ATOM      4  C   LIG    1       21.394 -20.437   4.237  0.00  0.00    +0.007 C 
ATOM      5  C   LIG    1       22.182 -19.645   5.277  0.00  0.00    -0.010 C 
ATOM      6  C   LIG    1       23.331 -20.431   5.929  0.00  0.00    +0.010 C 
ATOM      7  C   LIG    1       24.646 -20.534   5.120  0.00  0.00    -0.031 C 
ATOM      8  C   LIG    1       25.758 -21.020   6.076  0.00  0.00    +0.011 C 
ATOM      9  C   LIG    1       24.539 -21.572   3.989  0.00  0.00    +0.011 C 
ATOM     10  C   LIG    1       25.045 -19.153   4.560  0.00  0.00    +0.051 C 
ATOM     11  C   LIG    1       23.913 -18.415   3.838  0.00  0.00    +0.177 C 
ATOM     12  C   LIG    1       22.671 -18.307   4.724  0.00  0.00    +0.048 C 
ENDBRANCH   3  11
ENDBRANCH   1   3
BRANCH   1  13
ATOM     13  C   LIG    1       26.274 -15.680   3.999  0.00  0.00    +0.253 C 
BRANCH  13  14
ATOM     14  C   LIG    1       25.534 -14.426   3.567  0.00  0.00    -0.008 A 
ATOM     15  C   LIG    1       24.548 -13.839   4.377  0.00  0.00    +0.007 A 
ATOM     16  C   LIG    1       23.871 -12.690   3.963  0.00  0.00    +0.000 A 
ATOM     17  C   LIG    1       24.182 -12.101   2.741  0.00  0.00    +0.000 A 
ATOM     18  C   LIG    1       25.173 -12.657   1.934  0.00  0.00    +0.000 A 
ATOM     19  C   LIG    1       25.846 -13.811   2.344  0.00  0.00    +0.007 A 
ENDBRANCH  13  14
BRANCH  13  20
ATOM     20  O   LIG    1       27.672 -15.522   3.753  0.00  0.00    -0.376 OA
ATOM     21  H   LIG    1       27.914 -14.649   4.115  0.00  0.00    +0.211 HD
ENDBRANCH  13  20
ENDBRANCH   1  13
TORSDOF 5
ENDMDL
MODEL 7
REMARK VINA RESULT:      -5.3      1.350      2.818
REMARK  Name = *****
REMARK                            x       y       z     vdW  Elec       q    Type
REMARK                         _______ _______ _______ _____ _____    ______ ____
ROOT
ATOM      1  C   LIG    1       24.952 -17.813   3.627  0.00  0.00    +0.341 C 
ATOM      2  O   LIG    1       23.982 -17.156   3.980  0.00  0.00    -0.247 OA
ENDROOT
BRANCH   1   3
ATOM      3  O   LIG    1       26.123 -17.312   3.134  0.00  0.00    -0.459 OA
BRANCH   3  11
ATOM      4  C   LIG    1       28.297 -13.327   3.419  0.00  0.00    +0.007 C 
ATOM      5  C   LIG    1       27.567 -14.097   4.518  0.00  0.00    -0.010 C 
ATOM      6  C   LIG    1       26.218 -13.483   4.926  0.00  0.00    +0.010 C 
ATOM      7  C   LIG    1       25.010 -13.793   4.010  0.00  0.00    -0.031 C 
ATOM      8  C   LIG    1       23.722 -13.414   4.773  0.00  0.00    +0.011 C 
ATOM      9  C   LIG    1       25.039 -12.947   2.724  0.00  0.00    +0.011 C 
ATOM     10  C   LIG    1       24.959 -15.298   3.673  0.00  0.00    +0.051 C 
ATOM     11  C   LIG    1       26.291 -15.880   3.185  0.00  0.00    +0.177 C 
ATOM     12  C   LIG    1       27.419 -15.578   4.173  0.00  0.00    +0.048 C 
ENDBRANCH   3  11
ENDBRANCH   1   3
BRANCH   1  13
ATOM     13  C   LIG    1       25.017 -19.350   3.689  0.00  0.00    +0.253 C 
BRANCH  13  14
ATOM     14  C   LIG    1       25.831 -19.831   4.877  0.00  0.00    -0.008 A 
ATOM     15  C   LIG    1       25.235 -20.520   5.946  0.00  0.00    +0.007 A 
ATOM     16  C   LIG    1       25.996 -20.950   7.035  0.00  0.00    +0.000 A 
ATOM     17  C   LIG    1       27.368 -20.715   7.062  0.00  0.00    +0.000 A 
ATOM     18  C   LIG    1       27.980 -20.054   5.999  0.00  0.00    +0.000 A 
ATOM     19  C   LIG    1       27.218 -19.616   4.912  0.00  0.00    +0.007 A 
ENDBRANCH  13  14
BRANCH  13  20
ATOM     20  O   LIG    1       25.551 -19.899   2.483  0.00  0.00    -0.376 OA
ATOM     21  H   LIG    1       24.872 -20.509   2.139  0.00  0.00    +0.211 HD
ENDBRANCH  13  20
ENDBRANCH   1  13
TORSDOF 5
ENDMDL
MODEL 8
REMARK VINA RESULT:      -5.1      1.642      6.617
REMARK  Name = *****
REMARK                            x       y       z     vdW  Elec       q    Type
REMARK                         _______ _______ _______ _____ _____    ______ ____
ROOT
ATOM      1  C   LIG    1       27.084 -16.641   3.777  0.00  0.00    +0.341 C 
ATOM      2  O   LIG    1       28.021 -17.423   3.882  0.00  0.00    -0.247 OA
ENDROOT
BRANCH   1   3
ATOM      3  O   LIG    1       25.847 -16.935   3.279  0.00  0.00    -0.459 OA
BRANCH   3  11
ATOM      4  C   LIG    1       25.131 -21.168   4.783  0.00  0.00    +0.007 C 
ATOM      5  C   LIG    1       24.651 -20.522   3.485  0.00  0.00    -0.010 C 
ATOM      6  C   LIG    1       23.151 -20.188   3.466  0.00  0.00    +0.010 C 
ATOM      7  C   LIG    1       22.722 -18.886   4.184  0.00  0.00    -0.031 C 
ATOM      8  C   LIG    1       21.282 -18.547   3.740  0.00  0.00    +0.011 C 
ATOM      9  C   LIG    1       22.693 -19.062   5.713  0.00  0.00    +0.011 C 
ATOM     10  C   LIG    1       23.649 -17.718   3.786  0.00  0.00    +0.051 C 
ATOM     11  C   LIG    1       25.144 -18.037   3.891  0.00  0.00    +0.177 C 
ATOM     12  C   LIG    1       25.494 -19.305   3.109  0.00  0.00    +0.048 C 
ENDBRANCH   3  11
ENDBRANCH   1   3
BRANCH   1  13
ATOM     13  C   LIG    1       27.147 -15.164   4.203  0.00  0.00    +0.253 C 
BRANCH  13  14
ATOM     14  C   LIG    1       25.980 -14.368   3.645  0.00  0.00    -0.008 A 
ATOM     15  C   LIG    1       24.778 -14.229   4.357  0.00  0.00    +0.007 A 
ATOM     16  C   LIG    1       23.711 -13.499   3.827  0.00  0.00    +0.000 A 
ATOM     17  C   LIG    1       23.838 -12.883   2.586  0.00  0.00    +0.000 A 
ATOM     18  C   LIG    1       25.032 -12.990   1.876  0.00  0.00    +0.000 A 
ATOM     19  C   LIG    1       26.097 -13.727   2.401  0.00  0.00    +0.007 A 
ENDBRANCH  13  14
BRANCH  13  20
ATOM     20  O   LIG    1       28.378 -14.557   3.807  0.00  0.00    -0.376 OA
ATOM     21  H   LIG    1       29.082 -15.038   4.281  0.00  0.00    +0.211 HD
ENDBRANCH  13  20
ENDBRANCH   1  13
TORSDOF 5
ENDMDL
MODEL 9
REMARK VINA RESULT:      -5.0      1.693      7.234
REMARK  Name = *****
REMARK                            x       y       z     vdW  Elec       q    Type
REMARK                         _______ _______ _______ _____ _____    ______ ____
ROOT
ATOM      1  C   LIG    1       24.397 -16.419   3.750  0.00  0.00    +0.341 C 
ATOM      2  O   LIG    1       23.243 -16.113   4.024  0.00  0.00    -0.247 OA
ENDROOT
BRANCH   1   3
ATOM      3  O   LIG    1       24.831 -17.663   3.388  0.00  0.00    -0.459 OA
BRANCH   3  11
ATOM      4  C   LIG    1       26.388 -20.803   6.287  0.00  0.00    +0.007 C 
ATOM      5  C   LIG    1       25.772 -21.003   4.904  0.00  0.00    -0.010 C 
ATOM      6  C   LIG    1       24.345 -21.571   4.927  0.00  0.00    +0.010 C 
ATOM      7  C   LIG    1       23.203 -20.566   5.207  0.00  0.00    -0.031 C 
ATOM      8  C   LIG    1       21.867 -21.241   4.824  0.00  0.00    +0.011 C 
ATOM      9  C   LIG    1       23.115 -20.207   6.701  0.00  0.00    +0.011 C 
ATOM     10  C   LIG    1       23.378 -19.296   4.349  0.00  0.00    +0.051 C 
ATOM     11  C   LIG    1       24.784 -18.689   4.402  0.00  0.00    +0.177 C 
ATOM     12  C   LIG    1       25.849 -19.733   4.058  0.00  0.00    +0.048 C 
ENDBRANCH   3  11
ENDBRANCH   1   3
BRANCH   1  13
ATOM     13  C   LIG    1       25.574 -15.429   3.763  0.00  0.00    +0.253 C 
BRANCH  13  14
ATOM     14  C   LIG    1       25.139 -14.033   3.353  0.00  0.00    -0.008 A 
ATOM     15  C   LIG    1       25.633 -13.422   2.188  0.00  0.00    +0.007 A 
ATOM     16  C   LIG    1       25.228 -12.135   1.828  0.00  0.00    +0.000 A 
ATOM     17  C   LIG    1       24.310 -11.447   2.617  0.00  0.00    +0.000 A 
ATOM     18  C   LIG    1       23.793 -12.047   3.763  0.00  0.00    +0.000 A 
ATOM     19  C   LIG    1       24.203 -13.331   4.129  0.00  0.00    +0.007 A 
ENDBRANCH  13  14
BRANCH  13  20
ATOM     20  O   LIG    1       26.638 -15.870   2.919  0.00  0.00    -0.376 OA
ATOM     21  H   LIG    1       27.239 -15.107   2.820  0.00  0.00    +0.211 HD
ENDBRANCH  13  20
ENDBRANCH   1  13
TORSDOF 5
ENDMDL
