MODEL 1
REMARK VINA RESULT:       1.0      0.000      0.000
REMARK  Name = *****
REMARK                            x       y       z     vdW  Elec       q    Type
REMARK                         _______ _______ _______ _____ _____    ______ ____
ROOT
ATOM      1  C   LIG    1       23.851 -17.657   3.783  0.00  0.00    +0.061 A 
ATOM      2  C   LIG    1       25.162 -17.974   3.405  0.00  0.00    +0.049 A 
ATOM      3  I   LIG    1       25.476 -19.687   2.161  0.00  0.00    -0.041 I 
ATOM      4  C   LIG    1       26.202 -17.051   3.586  0.00  0.00    +0.066 A 
ATOM      5  C   LIG    1       25.846 -15.674   3.642  0.00  0.00    +0.042 A 
ATOM      6  I   LIG    1       27.342 -14.256   3.058  0.00  0.00    -0.042 I 
ATOM      7  C   LIG    1       24.498 -15.296   3.865  0.00  0.00    +0.087 A 
ATOM      8  C   LIG    1       23.580 -16.326   4.158  0.00  0.00    +0.051 A 
ATOM      9  I   LIG    1       22.012 -15.970   5.577  0.00  0.00    -0.041 I 
ENDROOT
BRANCH   1  12
ATOM     10  C   LIG    1       22.154 -20.736   5.198  0.00  0.00    +0.109 C 
ATOM     11  C   LIG    1       23.292 -19.760   4.967  0.00  0.00    +0.214 C 
ATOM     12  N   LIG    1       22.960 -18.708   4.129  0.00  0.00    -0.284 N 
ATOM     13  H   LIG    1       21.975 -18.516   3.997  0.00  0.00    +0.155 HD
ATOM     14  O   LIG    1       24.401 -19.929   5.464  0.00  0.00    -0.276 OA
ENDBRANCH   1  12
BRANCH   4  15
ATOM     15  C   LIG    1       27.498 -17.541   4.242  0.00  0.00    +0.246 C 
ATOM     16  N   LIG    1       27.531 -18.834   4.758  0.00  0.00    -0.309 N 
ATOM     17  H   LIG    1       26.688 -19.389   4.724  0.00  0.00    +0.149 HD
ATOM     18  O   LIG    1       28.424 -16.767   4.453  0.00  0.00    -0.270 OA
BRANCH  16  19
ATOM     19  C   LIG    1       28.589 -19.293   5.665  0.00  0.00    +0.132 C 
BRANCH  19  20
ATOM     20  C   LIG    1       28.140 -20.408   6.625  0.00  0.00    +0.174 C 
BRANCH  20  21
ATOM     21  O   LIG    1       26.983 -21.092   6.158  0.00  0.00    -0.394 OA
ATOM     22  H   LIG    1       27.253 -21.980   5.871  0.00  0.00    +0.209 HD
ENDBRANCH  20  21
ENDBRANCH  19  20
ENDBRANCH  16  19
ENDBRANCH   4  15
BRANCH   7  23
ATOM     23  C   LIG    1       24.043 -13.855   3.821  0.00  0.00    +0.339 C 
ATOM     24  O   LIG    1       24.181 -13.057   4.709  0.00  0.00    -0.245 OA
BRANCH  23  25
ATOM     25  O   LIG    1       23.509 -13.493   2.619  0.00  0.00    -0.477 OA
ATOM     26  H   LIG    1       23.453 -14.155   1.909  0.00  0.00    +0.295 HD
ENDBRANCH  23  25
ENDBRANCH   7  23
TORSDOF 7
ENDMDL
MODEL 2
REMARK VINA RESULT:       3.4      2.776      6.543
REMARK  Name = *****
REMARK                            x       y       z     vdW  Elec       q    Type
REMARK                         _______ _______ _______ _____ _____    ______ ____
ROOT
ATOM      1  C   LIG    1       26.682 -15.649   3.303  0.00  0.00    +0.061 A 
ATOM      2  C   LIG    1       25.418 -15.052   3.224  0.00  0.00    +0.049 A 
ATOM      3  I   LIG    1       25.161 -13.385   1.907  0.00  0.00    -0.041 I 
ATOM      4  C   LIG    1       24.289 -15.690   3.760  0.00  0.00    +0.066 A 
ATOM      5  C   LIG    1       24.343 -17.106   3.885  0.00  0.00    +0.042 A 
ATOM      6  I   LIG    1       22.477 -18.159   3.853  0.00  0.00    -0.042 I 
ATOM      7  C   LIG    1       25.588 -17.780   3.813  0.00  0.00    +0.087 A 
ATOM      8  C   LIG    1       26.750 -16.984   3.752  0.00  0.00    +0.051 A 
ATOM      9  I   LIG    1       28.523 -17.622   4.775  0.00  0.00    -0.041 I 
ENDROOT
BRANCH   1  12
ATOM     10  C   LIG    1       29.338 -13.021   3.935  0.00  0.00    +0.109 C 
ATOM     11  C   LIG    1       28.004 -13.719   4.119  0.00  0.00    +0.214 C 
ATOM     12  N   LIG    1       27.837 -14.822   3.297  0.00  0.00    -0.284 N 
ATOM     13  H   LIG    1       28.672 -15.230   2.895  0.00  0.00    +0.155 HD
ATOM     14  O   LIG    1       27.159 -13.305   4.905  0.00  0.00    -0.276 OA
ENDBRANCH   1  12
BRANCH   4  15
ATOM     15  C   LIG    1       23.351 -14.870   4.652  0.00  0.00    +0.246 C 
ATOM     16  N   LIG    1       23.463 -13.482   4.632  0.00  0.00    -0.309 N 
ATOM     17  H   LIG    1       24.186 -13.064   4.066  0.00  0.00    +0.149 HD
ATOM     18  O   LIG    1       22.635 -15.421   5.480  0.00  0.00    -0.270 OA
BRANCH  16  19
ATOM     19  C   LIG    1       22.845 -12.627   5.652  0.00  0.00    +0.132 C 
BRANCH  19  20
ATOM     20  C   LIG    1       23.730 -11.447   6.089  0.00  0.00    +0.174 C 
BRANCH  20  21
ATOM     21  O   LIG    1       25.096 -11.635   5.737  0.00  0.00    -0.394 OA
ATOM     22  H   LIG    1       25.561 -11.989   6.512  0.00  0.00    +0.209 HD
ENDBRANCH  20  21
ENDBRANCH  19  20
ENDBRANCH  16  19
ENDBRANCH   4  15
BRANCH   7  23
ATOM     23  C   LIG    1       25.694 -19.289   3.825  0.00  0.00    +0.339 C 
ATOM     24  O   LIG    1       25.729 -19.973   4.813  0.00  0.00    -0.245 OA
BRANCH  23  25
ATOM     25  O   LIG    1       25.671 -19.843   2.580  0.00  0.00    -0.477 OA
ATOM     26  H   LIG    1       25.474 -19.275   1.815  0.00  0.00    +0.295 HD
ENDBRANCH  23  25
ENDBRANCH   7  23
TORSDOF 7
ENDMDL
