MODEL 1
REMARK VINA RESULT:      -5.2      0.000      0.000
REMARK  Name = *****
REMARK                            x       y       z     vdW  Elec       q    Type
REMARK                         _______ _______ _______ _____ _____    ______ ____
ROOT
ATOM      1  C   LIG    1       23.883 -21.252   5.885  0.00  0.00    +0.146 C 
ENDROOT
BRANCH   1   2
ATOM      2  C   LIG    1       25.233 -20.735   6.316  0.00  0.00    +0.032 C 
ATOM      3  C   LIG    1       25.754 -20.826   7.547  0.00  0.00    +0.079 C 
ATOM      4 CL   LIG    1       27.298 -20.204   7.947  0.00  0.00    -0.092 Cl
ENDBRANCH   1   2
BRANCH   1   6
ATOM      5  C   LIG    1       22.427 -19.244   4.999  0.00  0.00    +0.007 C 
ATOM      6  C   LIG    1       23.085 -20.152   5.399  0.00  0.00    -0.067 C 
ENDBRANCH   1   6
BRANCH   1   7
ATOM      7  C   LIG    1       23.189 -21.965   7.064  0.00  0.00    +0.049 C 
ATOM      8  C   LIG    1       22.841 -23.428   6.789  0.00  0.00    +0.008 C 
ENDBRANCH   1   7
BRANCH   1   9
ATOM      9  O   LIG    1       24.058 -22.200   4.833  0.00  0.00    -0.373 OA
ATOM     10  H   LIG    1       23.171 -22.523   4.600  0.00  0.00    +0.212 HD
ENDBRANCH   1   9
TORSDOF 4
ENDMDL
MODEL 2
REMARK VINA RESULT:      -5.1      2.528      3.274
REMARK  Name = *****
REMARK                            x       y       z     vdW  Elec       q    Type
REMARK                         _______ _______ _______ _____ _____    ______ ____
ROOT
ATOM      1  C   LIG    1       23.926 -21.205   6.731  0.00  0.00    +0.146 C 
ENDROOT
BRANCH   1   2
ATOM      2  C   LIG    1       23.940 -22.594   6.143  0.00  0.00    +0.032 C 
ATOM      3  C   LIG    1       23.891 -23.741   6.833  0.00  0.00    +0.079 C 
ATOM      4 CL   LIG    1       23.917 -25.277   6.078  0.00  0.00    -0.092 Cl
ENDBRANCH   1   2
BRANCH   1   6
ATOM      5  C   LIG    1       22.553 -19.606   5.150  0.00  0.00    +0.007 C 
ATOM      6  C   LIG    1       23.173 -20.328   5.864  0.00  0.00    -0.067 C 
ENDBRANCH   1   6
BRANCH   1   7
ATOM      7  C   LIG    1       25.369 -20.695   6.920  0.00  0.00    +0.049 C 
ATOM      8  C   LIG    1       25.837 -20.676   8.376  0.00  0.00    +0.008 C 
ENDBRANCH   1   7
BRANCH   1   9
ATOM      9  O   LIG    1       23.297 -21.244   8.012  0.00  0.00    -0.373 OA
ATOM     10  H   LIG    1       22.802 -20.413   8.103  0.00  0.00    +0.212 HD
ENDBRANCH   1   9
TORSDOF 4
ENDMDL
MODEL 3
REMARK VINA RESULT:      -5.1      2.321      3.609
REMARK  Name = *****
REMARK                            x       y       z     vdW  Elec       q    Type
REMARK                         _______ _______ _______ _____ _____    ______ ____
ROOT
ATOM      1  C   LIG    1       24.570 -21.556   6.428  0.00  0.00    +0.146 C 
ENDROOT
BRANCH   1   2
ATOM      2  C   LIG    1       23.967 -20.531   5.500  0.00  0.00    +0.032 C 
ATOM      3  C   LIG    1       22.775 -19.939   5.651  0.00  0.00    +0.079 C 
ATOM      4 CL   LIG    1       22.167 -18.786   4.540  0.00  0.00    -0.092 Cl
ENDBRANCH   1   2
BRANCH   1   6
ATOM      5  C   LIG    1       22.865 -23.537   6.759  0.00  0.00    +0.007 C 
ATOM      6  C   LIG    1       23.635 -22.642   6.610  0.00  0.00    -0.067 C 
ENDBRANCH   1   6
BRANCH   1   7
ATOM      7  C   LIG    1       24.930 -20.901   7.778  0.00  0.00    +0.049 C 
ATOM      8  C   LIG    1       26.398 -20.491   7.898  0.00  0.00    +0.008 C 
ENDBRANCH   1   7
BRANCH   1   9
ATOM      9  O   LIG    1       25.769 -22.067   5.848  0.00  0.00    -0.373 OA
ATOM     10  H   LIG    1       26.399 -22.194   6.578  0.00  0.00    +0.212 HD
ENDBRANCH   1   9
TORSDOF 4
ENDMDL
MODEL 4
REMARK VINA RESULT:      -5.1      2.502      3.506
REMARK  Name = *****
REMARK                            x       y       z     vdW  Elec       q    Type
REMARK                         _______ _______ _______ _____ _____    ______ ____
ROOT
ATOM      1  C   LIG    1       24.149 -21.449   7.118  0.00  0.00    +0.146 C 
ENDROOT
BRANCH   1   2
ATOM      2  C   LIG    1       23.851 -20.460   6.019  0.00  0.00    +0.032 C 
ATOM      3  C   LIG    1       22.637 -20.011   5.672  0.00  0.00    +0.079 C 
ATOM      4 CL   LIG    1       22.393 -18.888   4.403  0.00  0.00    -0.092 Cl
ENDBRANCH   1   2
BRANCH   1   6
ATOM      5  C   LIG    1       26.238 -20.618   8.490  0.00  0.00    +0.007 C 
ATOM      6  C   LIG    1       25.294 -20.993   7.870  0.00  0.00    -0.067 C 
ENDBRANCH   1   6
BRANCH   1   7
ATOM      7  C   LIG    1       24.399 -22.847   6.518  0.00  0.00    +0.049 C 
ATOM      8  C   LIG    1       23.251 -23.834   6.740  0.00  0.00    +0.008 C 
ENDBRANCH   1   7
BRANCH   1   9
ATOM      9  O   LIG    1       23.023 -21.533   7.991  0.00  0.00    -0.373 OA
ATOM     10  H   LIG    1       22.669 -22.434   7.901  0.00  0.00    +0.212 HD
ENDBRANCH   1   9
TORSDOF 4
ENDMDL
MODEL 5
REMARK VINA RESULT:      -5.1      2.930      3.982
REMARK  Name = *****
REMARK                            x       y       z     vdW  Elec       q    Type
REMARK                         _______ _______ _______ _____ _____    ______ ____
ROOT
ATOM      1  C   LIG    1       25.739 -21.244   7.885  0.00  0.00    +0.146 C 
ENDROOT
BRANCH   1   2
ATOM      2  C   LIG    1       25.909 -22.742   7.840  0.00  0.00    +0.032 C 
ATOM      3  C   LIG    1       25.698 -23.526   6.775  0.00  0.00    +0.079 C 
ATOM      4 CL   LIG    1       25.913 -25.224   6.817  0.00  0.00    -0.092 Cl
ENDBRANCH   1   2
BRANCH   1   6
ATOM      5  C   LIG    1       23.322 -20.620   7.046  0.00  0.00    +0.007 C 
ATOM      6  C   LIG    1       24.414 -20.902   7.425  0.00  0.00    -0.067 C 
ENDBRANCH   1   6
BRANCH   1   7
ATOM      7  C   LIG    1       26.821 -20.563   7.022  0.00  0.00    +0.049 C 
ATOM      8  C   LIG    1       28.094 -20.203   7.789  0.00  0.00    +0.008 C 
ENDBRANCH   1   7
BRANCH   1   9
ATOM      9  O   LIG    1       25.895 -20.794   9.230  0.00  0.00    -0.373 OA
ATOM     10  H   LIG    1       26.803 -21.019   9.495  0.00  0.00    +0.212 HD
ENDBRANCH   1   9
TORSDOF 4
ENDMDL
MODEL 6
REMARK VINA RESULT:      -5.0      2.427      3.576
REMARK  Name = *****
REMARK                            x       y       z     vdW  Elec       q    Type
REMARK                         _______ _______ _______ _____ _____    ______ ____
ROOT
ATOM      1  C   LIG    1       24.511 -21.365   6.560  0.00  0.00    +0.146 C 
ENDROOT
BRANCH   1   2
ATOM      2  C   LIG    1       24.080 -22.800   6.737  0.00  0.00    +0.032 C 
ATOM      3  C   LIG    1       24.571 -23.856   6.076  0.00  0.00    +0.079 C 
ATOM      4 CL   LIG    1       24.016 -25.454   6.341  0.00  0.00    -0.092 Cl
ENDBRANCH   1   2
BRANCH   1   6
ATOM      5  C   LIG    1       26.013 -20.652   8.602  0.00  0.00    +0.007 C 
ATOM      6  C   LIG    1       25.335 -20.974   7.680  0.00  0.00    -0.067 C 
ENDBRANCH   1   6
BRANCH   1   7
ATOM      7  C   LIG    1       23.273 -20.453   6.435  0.00  0.00    +0.049 C 
ATOM      8  C   LIG    1       22.494 -20.637   5.132  0.00  0.00    +0.008 C 
ENDBRANCH   1   7
BRANCH   1   9
ATOM      9  O   LIG    1       25.272 -21.249   5.359  0.00  0.00    -0.373 OA
ATOM     10  H   LIG    1       24.791 -21.746   4.676  0.00  0.00    +0.212 HD
ENDBRANCH   1   9
TORSDOF 4
ENDMDL
MODEL 7
REMARK VINA RESULT:      -4.9      2.913      4.137
REMARK  Name = *****
REMARK                            x       y       z     vdW  Elec       q    Type
REMARK                         _______ _______ _______ _____ _____    ______ ____
ROOT
ATOM      1  C   LIG    1       26.072 -21.202   8.088  0.00  0.00    +0.146 C 
ENDROOT
BRANCH   1   2
ATOM      2  C   LIG    1       25.118 -20.625   7.073  0.00  0.00    +0.032 C 
ATOM      3  C   LIG    1       23.784 -20.748   7.088  0.00  0.00    +0.079 C 
ATOM      4 CL   LIG    1       22.777 -20.059   5.886  0.00  0.00    -0.092 Cl
ENDBRANCH   1   2
BRANCH   1   6
ATOM      5  C   LIG    1       28.547 -20.771   7.297  0.00  0.00    +0.007 C 
ATOM      6  C   LIG    1       27.429 -20.966   7.655  0.00  0.00    -0.067 C 
ENDBRANCH   1   6
BRANCH   1   7
ATOM      7  C   LIG    1       25.801 -22.710   8.270  0.00  0.00    +0.049 C 
ATOM      8  C   LIG    1       26.013 -23.538   7.002  0.00  0.00    +0.008 C 
ENDBRANCH   1   7
BRANCH   1   9
ATOM      9  O   LIG    1       25.866 -20.558   9.345  0.00  0.00    -0.373 OA
ATOM     10  H   LIG    1       26.688 -20.671   9.852  0.00  0.00    +0.212 HD
ENDBRANCH   1   9
TORSDOF 4
ENDMDL
MODEL 8
REMARK VINA RESULT:      -4.9      1.472      2.796
REMARK  Name = *****
REMARK                            x       y       z     vdW  Elec       q    Type
REMARK                         _______ _______ _______ _____ _____    ______ ____
ROOT
ATOM      1  C   LIG    1       23.692 -20.995   6.673  0.00  0.00    +0.146 C 
ENDROOT
BRANCH   1   2
ATOM      2  C   LIG    1       25.121 -20.853   6.212  0.00  0.00    +0.032 C 
ATOM      3  C   LIG    1       26.171 -20.554   6.988  0.00  0.00    +0.079 C 
ATOM      4 CL   LIG    1       27.764 -20.409   6.375  0.00  0.00    -0.092 Cl
ENDBRANCH   1   2
BRANCH   1   6
ATOM      5  C   LIG    1       23.051 -23.549   6.739  0.00  0.00    +0.007 C 
ATOM      6  C   LIG    1       23.340 -22.395   6.709  0.00  0.00    -0.067 C 
ENDBRANCH   1   6
BRANCH   1   7
ATOM      7  C   LIG    1       22.753 -20.210   5.733  0.00  0.00    +0.049 C 
ATOM      8  C   LIG    1       23.408 -19.775   4.421  0.00  0.00    +0.008 C 
ENDBRANCH   1   7
BRANCH   1   9
ATOM      9  O   LIG    1       23.566 -20.449   7.985  0.00  0.00    -0.373 OA
ATOM     10  H   LIG    1       24.452 -20.475   8.383  0.00  0.00    +0.212 HD
ENDBRANCH   1   9
TORSDOF 4
ENDMDL
MODEL 9
REMARK VINA RESULT:      -4.9      2.301      3.379
REMARK  Name = *****
REMARK                            x       y       z     vdW  Elec       q    Type
REMARK                         _______ _______ _______ _____ _____    ______ ____
ROOT
ATOM      1  C   LIG    1       25.223 -21.504   7.719  0.00  0.00    +0.146 C 
ENDROOT
BRANCH   1   2
ATOM      2  C   LIG    1       26.058 -20.602   6.845  0.00  0.00    +0.032 C 
ATOM      3  C   LIG    1       27.383 -20.688   6.664  0.00  0.00    +0.079 C 
ATOM      4 CL   LIG    1       28.250 -19.614   5.652  0.00  0.00    -0.092 Cl
ENDBRANCH   1   2
BRANCH   1   6
ATOM      5  C   LIG    1       25.724 -24.016   7.103  0.00  0.00    +0.007 C 
ATOM      6  C   LIG    1       25.498 -22.881   7.381  0.00  0.00    -0.067 C 
ENDBRANCH   1   6
BRANCH   1   7
ATOM      7  C   LIG    1       23.727 -21.176   7.542  0.00  0.00    +0.049 C 
ATOM      8  C   LIG    1       23.384 -20.546   6.191  0.00  0.00    +0.008 C 
ENDBRANCH   1   7
BRANCH   1   9
ATOM      9  O   LIG    1       25.569 -21.284   9.086  0.00  0.00    -0.373 OA
ATOM     10  H   LIG    1       24.911 -21.762   9.619  0.00  0.00    +0.212 HD
ENDBRANCH   1   9
TORSDOF 4
ENDMDL
