MODEL 1
REMARK VINA RESULT:     -10.4      0.000      0.000
REMARK  Name = *****
REMARK                            x       y       z     vdW  Elec       q    Type
REMARK                         _______ _______ _______ _____ _____    ______ ____
ROOT
ATOM      1  C   LIG    1       25.896 -21.113   6.631  0.00  0.00    +0.045 A 
ATOM      2  C   LIG    1       27.117 -20.437   6.422  0.00  0.00    +0.031 A 
ATOM      3  S   LIG    1       27.004 -19.533   4.943  0.00  0.00    -0.087 S 
ATOM      4  C   LIG    1       25.314 -19.644   4.854  0.00  0.00    +0.024 A 
ATOM      5  C   LIG    1       24.494 -18.983   3.918  0.00  0.00    +0.061 A 
ATOM      6  C   LIG    1       23.119 -19.154   3.987  0.00  0.00    +0.118 A 
ATOM      7  C   LIG    1       22.557 -19.949   4.966  0.00  0.00    +0.046 A 
ATOM      8  C   LIG    1       23.387 -20.610   5.891  0.00  0.00    +0.013 A 
ATOM      9  C   LIG    1       24.810 -20.490   5.836  0.00  0.00    +0.001 A 
ENDROOT
BRANCH   2  10
ATOM     10  C   LIG    1       28.464 -20.396   7.092  0.00  0.00    -0.010 A 
ATOM     11  C   LIG    1       29.288 -19.265   7.115  0.00  0.00    +0.012 A 
ATOM     12  C   LIG    1       30.523 -19.259   7.792  0.00  0.00    +0.046 A 
ATOM     13  C   LIG    1       30.961 -20.389   8.465  0.00  0.00    +0.117 A 
ATOM     14  C   LIG    1       30.202 -21.543   8.442  0.00  0.00    +0.046 A 
ATOM     15  C   LIG    1       28.974 -21.542   7.760  0.00  0.00    +0.012 A 
BRANCH  13  16
ATOM     16  O   LIG    1       32.143 -20.321   9.139  0.00  0.00    -0.507 OA
ATOM     17  H   LIG    1       31.965 -20.399  10.091  0.00  0.00    +0.292 HD
ENDBRANCH  13  16
ENDBRANCH   2  10
BRANCH   1  19
ATOM     18  O   LIG    1       25.877 -22.103   8.794  0.00  0.00    -0.287 OA
ATOM     19  C   LIG    1       25.683 -22.223   7.596  0.00  0.00    +0.195 C 
BRANCH  19  20
ATOM     20  C   LIG    1       25.237 -23.577   7.118  0.00  0.00    +0.022 A 
ATOM     21  C   LIG    1       26.211 -24.561   6.882  0.00  0.00    +0.015 A 
ATOM     22  C   LIG    1       25.860 -25.810   6.359  0.00  0.00    +0.046 A 
ATOM     23  C   LIG    1       24.528 -26.105   6.070  0.00  0.00    +0.121 A 
ATOM     24  C   LIG    1       23.544 -25.159   6.351  0.00  0.00    +0.046 A 
ATOM     25  C   LIG    1       23.897 -23.888   6.838  0.00  0.00    +0.015 A 
BRANCH  23  26
ATOM     26  O   LIG    1       24.318 -27.339   5.523  0.00  0.00    -0.491 OA
BRANCH  26  27
ATOM     27  C   LIG    1       25.433 -28.236   5.412  0.00  0.00    +0.244 C 
BRANCH  27  28
ATOM     28  C   LIG    1       25.005 -29.719   5.381  0.00  0.00    +0.125 C 
BRANCH  28  29
ATOM     29  N   LIG    1       24.010 -30.104   6.400  0.00  0.00    -0.299 NA
ATOM     30  C   LIG    1       23.744 -31.555   6.360  0.00  0.00    +0.084 C 
ATOM     31  C   LIG    1       24.900 -32.410   6.890  0.00  0.00    +0.015 C 
ATOM     32  C   LIG    1       25.313 -31.975   8.292  0.00  0.00    +0.002 C 
ATOM     33  C   LIG    1       25.544 -30.468   8.359  0.00  0.00    +0.015 C 
ATOM     34  C   LIG    1       24.361 -29.697   7.769  0.00  0.00    +0.084 C 
ENDBRANCH  28  29
ENDBRANCH  27  28
ENDBRANCH  26  27
ENDBRANCH  23  26
ENDBRANCH  19  20
ENDBRANCH   1  19
BRANCH   6  35
ATOM     35  O   LIG    1       22.365 -18.494   3.061  0.00  0.00    -0.507 OA
ATOM     36  H   LIG    1       22.924 -17.866   2.575  0.00  0.00    +0.292 HD
ENDBRANCH   6  35
TORSDOF 9
ENDMDL
MODEL 2
REMARK VINA RESULT:      -9.0      4.106     10.829
REMARK  Name = *****
REMARK                            x       y       z     vdW  Elec       q    Type
REMARK                         _______ _______ _______ _____ _____    ______ ____
ROOT
ATOM      1  C   LIG    1       24.878 -30.701   7.351  0.00  0.00    +0.045 A 
ATOM      2  C   LIG    1       25.776 -31.709   6.941  0.00  0.00    +0.031 A 
ATOM      3  S   LIG    1       26.608 -32.311   8.342  0.00  0.00    -0.087 S 
ATOM      4  C   LIG    1       25.512 -31.634   9.444  0.00  0.00    +0.024 A 
ATOM      5  C   LIG    1       25.505 -31.848  10.837  0.00  0.00    +0.061 A 
ATOM      6  C   LIG    1       24.525 -31.240  11.607  0.00  0.00    +0.118 A 
ATOM      7  C   LIG    1       23.560 -30.446  11.021  0.00  0.00    +0.046 A 
ATOM      8  C   LIG    1       23.582 -30.233   9.630  0.00  0.00    +0.013 A 
ATOM      9  C   LIG    1       24.593 -30.811   8.801  0.00  0.00    +0.001 A 
ENDROOT
BRANCH   2  10
ATOM     10  C   LIG    1       26.236 -32.289   5.630  0.00  0.00    -0.010 A 
ATOM     11  C   LIG    1       25.641 -31.996   4.397  0.00  0.00    +0.012 A 
ATOM     12  C   LIG    1       26.132 -32.528   3.190  0.00  0.00    +0.046 A 
ATOM     13  C   LIG    1       27.236 -33.367   3.190  0.00  0.00    +0.117 A 
ATOM     14  C   LIG    1       27.837 -33.717   4.384  0.00  0.00    +0.046 A 
ATOM     15  C   LIG    1       27.338 -33.185   5.584  0.00  0.00    +0.012 A 
BRANCH  13  16
ATOM     16  O   LIG    1       27.698 -33.824   1.992  0.00  0.00    -0.507 OA
ATOM     17  H   LIG    1       27.512 -33.158   1.311  0.00  0.00    +0.292 HD
ENDBRANCH  13  16
ENDBRANCH   2  10
BRANCH   1  19
ATOM     18  O   LIG    1       23.243 -30.016   5.765  0.00  0.00    -0.287 OA
ATOM     19  C   LIG    1       24.211 -29.726   6.447  0.00  0.00    +0.195 C 
BRANCH  19  20
ATOM     20  C   LIG    1       24.734 -28.324   6.315  0.00  0.00    +0.022 A 
ATOM     21  C   LIG    1       25.675 -27.866   7.253  0.00  0.00    +0.015 A 
ATOM     22  C   LIG    1       26.134 -26.545   7.226  0.00  0.00    +0.046 A 
ATOM     23  C   LIG    1       25.670 -25.656   6.257  0.00  0.00    +0.121 A 
ATOM     24  C   LIG    1       24.779 -26.111   5.286  0.00  0.00    +0.046 A 
ATOM     25  C   LIG    1       24.284 -27.426   5.334  0.00  0.00    +0.015 A 
BRANCH  23  26
ATOM     26  O   LIG    1       26.158 -24.385   6.361  0.00  0.00    -0.491 OA
BRANCH  26  27
ATOM     27  C   LIG    1       25.383 -23.413   7.080  0.00  0.00    +0.244 C 
BRANCH  27  28
ATOM     28  C   LIG    1       24.543 -22.513   6.149  0.00  0.00    +0.125 C 
BRANCH  28  29
ATOM     29  N   LIG    1       24.584 -21.073   6.467  0.00  0.00    -0.299 NA
ATOM     30  C   LIG    1       25.473 -20.350   5.538  0.00  0.00    +0.084 C 
ATOM     31  C   LIG    1       24.909 -20.215   4.120  0.00  0.00    +0.015 C 
ATOM     32  C   LIG    1       23.518 -19.589   4.135  0.00  0.00    +0.002 C 
ATOM     33  C   LIG    1       22.601 -20.298   5.128  0.00  0.00    +0.015 C 
ATOM     34  C   LIG    1       23.264 -20.427   6.502  0.00  0.00    +0.084 C 
ENDBRANCH  28  29
ENDBRANCH  27  28
ENDBRANCH  26  27
ENDBRANCH  23  26
ENDBRANCH  19  20
ENDBRANCH   1  19
BRANCH   6  35
ATOM     35  O   LIG    1       24.557 -31.478  12.951  0.00  0.00    -0.507 OA
ATOM     36  H   LIG    1       24.689 -32.426  13.109  0.00  0.00    +0.292 HD
ENDBRANCH   6  35
TORSDOF 9
ENDMDL
MODEL 3
REMARK VINA RESULT:      -8.7      4.454     10.882
REMARK  Name = *****
REMARK                            x       y       z     vdW  Elec       q    Type
REMARK                         _______ _______ _______ _____ _____    ______ ____
ROOT
ATOM      1  C   LIG    1       24.737 -30.989   8.404  0.00  0.00    +0.045 A 
ATOM      2  C   LIG    1       24.854 -32.102   7.546  0.00  0.00    +0.031 A 
ATOM      3  S   LIG    1       23.851 -33.382   8.159  0.00  0.00    -0.087 S 
ATOM      4  C   LIG    1       22.969 -32.369   9.193  0.00  0.00    +0.024 A 
ATOM      5  C   LIG    1       21.837 -32.744   9.944  0.00  0.00    +0.061 A 
ATOM      6  C   LIG    1       21.204 -31.792  10.730  0.00  0.00    +0.118 A 
ATOM      7  C   LIG    1       21.665 -30.491  10.769  0.00  0.00    +0.046 A 
ATOM      8  C   LIG    1       22.801 -30.131  10.020  0.00  0.00    +0.013 A 
ATOM      9  C   LIG    1       23.505 -31.086   9.223  0.00  0.00    +0.001 A 
ENDROOT
BRANCH   2  10
ATOM     10  C   LIG    1       25.678 -32.463   6.339  0.00  0.00    -0.010 A 
ATOM     11  C   LIG    1       26.888 -33.164   6.402  0.00  0.00    +0.012 A 
ATOM     12  C   LIG    1       27.603 -33.518   5.243  0.00  0.00    +0.046 A 
ATOM     13  C   LIG    1       27.121 -33.177   3.988  0.00  0.00    +0.117 A 
ATOM     14  C   LIG    1       25.951 -32.452   3.872  0.00  0.00    +0.046 A 
ATOM     15  C   LIG    1       25.246 -32.099   5.034  0.00  0.00    +0.012 A 
BRANCH  13  16
ATOM     16  O   LIG    1       27.829 -33.576   2.894  0.00  0.00    -0.507 OA
ATOM     17  H   LIG    1       27.222 -34.004   2.269  0.00  0.00    +0.292 HD
ENDBRANCH  13  16
ENDBRANCH   2  10
BRANCH   1  19
ATOM     18  O   LIG    1       26.591 -29.722   9.187  0.00  0.00    -0.287 OA
ATOM     19  C   LIG    1       25.650 -29.816   8.418  0.00  0.00    +0.195 C 
BRANCH  19  20
ATOM     20  C   LIG    1       25.425 -28.660   7.484  0.00  0.00    +0.022 A 
ATOM     21  C   LIG    1       26.171 -27.486   7.674  0.00  0.00    +0.015 A 
ATOM     22  C   LIG    1       25.944 -26.353   6.885  0.00  0.00    +0.046 A 
ATOM     23  C   LIG    1       24.973 -26.373   5.884  0.00  0.00    +0.121 A 
ATOM     24  C   LIG    1       24.264 -27.550   5.647  0.00  0.00    +0.046 A 
ATOM     25  C   LIG    1       24.460 -28.676   6.464  0.00  0.00    +0.015 A 
BRANCH  23  26
ATOM     26  O   LIG    1       24.815 -25.195   5.212  0.00  0.00    -0.491 OA
BRANCH  26  27
ATOM     27  C   LIG    1       25.034 -23.968   5.924  0.00  0.00    +0.244 C 
BRANCH  27  28
ATOM     28  C   LIG    1       24.599 -22.725   5.119  0.00  0.00    +0.125 C 
BRANCH  28  29
ATOM     29  N   LIG    1       24.758 -21.437   5.822  0.00  0.00    -0.299 NA
ATOM     30  C   LIG    1       25.447 -20.450   4.970  0.00  0.00    +0.084 C 
ATOM     31  C   LIG    1       24.592 -19.929   3.809  0.00  0.00    +0.015 C 
ATOM     32  C   LIG    1       23.261 -19.377   4.308  0.00  0.00    +0.002 C 
ATOM     33  C   LIG    1       22.559 -20.370   5.230  0.00  0.00    +0.015 C 
ATOM     34  C   LIG    1       23.500 -20.870   6.329  0.00  0.00    +0.084 C 
ENDBRANCH  28  29
ENDBRANCH  27  28
ENDBRANCH  26  27
ENDBRANCH  23  26
ENDBRANCH  19  20
ENDBRANCH   1  19
BRANCH   6  35
ATOM     35  O   LIG    1       20.112 -32.200  11.439  0.00  0.00    -0.507 OA
ATOM     36  H   LIG    1       19.318 -32.120  10.887  0.00  0.00    +0.292 HD
ENDBRANCH   6  35
TORSDOF 9
ENDMDL
MODEL 4
REMARK VINA RESULT:      -8.5      4.157     10.090
REMARK  Name = *****
REMARK                            x       y       z     vdW  Elec       q    Type
REMARK                         _______ _______ _______ _____ _____    ______ ____
ROOT
ATOM      1  C   LIG    1       25.568 -30.655   7.507  0.00  0.00    +0.045 A 
ATOM      2  C   LIG    1       26.333 -31.099   8.606  0.00  0.00    +0.031 A 
ATOM      3  S   LIG    1       27.087 -32.606   8.183  0.00  0.00    -0.087 S 
ATOM      4  C   LIG    1       26.812 -32.424   6.520  0.00  0.00    +0.024 A 
ATOM      5  C   LIG    1       27.308 -33.269   5.507  0.00  0.00    +0.061 A 
ATOM      6  C   LIG    1       27.016 -32.977   4.183  0.00  0.00    +0.118 A 
ATOM      7  C   LIG    1       26.263 -31.867   3.857  0.00  0.00    +0.046 A 
ATOM      8  C   LIG    1       25.767 -31.034   4.878  0.00  0.00    +0.013 A 
ATOM      9  C   LIG    1       26.013 -31.317   6.257  0.00  0.00    +0.001 A 
ENDROOT
BRANCH   2  10
ATOM     10  C   LIG    1       26.559 -30.650  10.025  0.00  0.00    -0.010 A 
ATOM     11  C   LIG    1       27.461 -29.643  10.389  0.00  0.00    +0.012 A 
ATOM     12  C   LIG    1       27.608 -29.225  11.725  0.00  0.00    +0.046 A 
ATOM     13  C   LIG    1       26.852 -29.807  12.731  0.00  0.00    +0.117 A 
ATOM     14  C   LIG    1       25.974 -30.831  12.430  0.00  0.00    +0.046 A 
ATOM     15  C   LIG    1       25.837 -31.244  11.095  0.00  0.00    +0.012 A 
BRANCH  13  16
ATOM     16  O   LIG    1       27.001 -29.341  14.003  0.00  0.00    -0.507 OA
ATOM     17  H   LIG    1       26.415 -28.576  14.125  0.00  0.00    +0.292 HD
ENDBRANCH  13  16
ENDBRANCH   2  10
BRANCH   1  19
ATOM     18  O   LIG    1       23.447 -29.747   8.086  0.00  0.00    -0.287 OA
ATOM     19  C   LIG    1       24.533 -29.588   7.555  0.00  0.00    +0.195 C 
BRANCH  19  20
ATOM     20  C   LIG    1       24.780 -28.253   6.910  0.00  0.00    +0.022 A 
ATOM     21  C   LIG    1       25.767 -27.416   7.455  0.00  0.00    +0.015 A 
ATOM     22  C   LIG    1       25.983 -26.131   6.945  0.00  0.00    +0.046 A 
ATOM     23  C   LIG    1       25.224 -25.660   5.874  0.00  0.00    +0.121 A 
ATOM     24  C   LIG    1       24.280 -26.501   5.287  0.00  0.00    +0.046 A 
ATOM     25  C   LIG    1       24.031 -27.777   5.822  0.00  0.00    +0.015 A 
BRANCH  23  26
ATOM     26  O   LIG    1       25.497 -24.377   5.495  0.00  0.00    -0.491 OA
BRANCH  26  27
ATOM     27  C   LIG    1       25.683 -23.387   6.518  0.00  0.00    +0.244 C 
BRANCH  27  28
ATOM     28  C   LIG    1       24.391 -22.604   6.832  0.00  0.00    +0.125 C 
BRANCH  28  29
ATOM     29  N   LIG    1       24.552 -21.139   6.911  0.00  0.00    -0.299 NA
ATOM     30  C   LIG    1       25.518 -20.657   5.906  0.00  0.00    +0.084 C 
ATOM     31  C   LIG    1       24.994 -20.713   4.467  0.00  0.00    +0.015 C 
ATOM     32  C   LIG    1       23.663 -19.979   4.334  0.00  0.00    +0.002 C 
ATOM     33  C   LIG    1       22.670 -20.434   5.399  0.00  0.00    +0.015 C 
ATOM     34  C   LIG    1       23.294 -20.388   6.796  0.00  0.00    +0.084 C 
ENDBRANCH  28  29
ENDBRANCH  27  28
ENDBRANCH  26  27
ENDBRANCH  23  26
ENDBRANCH  19  20
ENDBRANCH   1  19
BRANCH   6  35
ATOM     35  O   LIG    1       27.518 -33.822   3.236  0.00  0.00    -0.507 OA
ATOM     36  H   LIG    1       28.485 -33.859   3.315  0.00  0.00    +0.292 HD
ENDBRANCH   6  35
TORSDOF 9
ENDMDL
MODEL 5
REMARK VINA RESULT:      -8.4      4.441     10.804
REMARK  Name = *****
REMARK                            x       y       z     vdW  Elec       q    Type
REMARK                         _______ _______ _______ _____ _____    ______ ____
ROOT
ATOM      1  C   LIG    1       24.881 -30.624   7.776  0.00  0.00    +0.045 A 
ATOM      2  C   LIG    1       24.080 -31.366   8.669  0.00  0.00    +0.031 A 
ATOM      3  S   LIG    1       23.200 -32.558   7.762  0.00  0.00    -0.087 S 
ATOM      4  C   LIG    1       24.175 -32.416   6.383  0.00  0.00    +0.024 A 
ATOM      5  C   LIG    1       24.106 -33.233   5.237  0.00  0.00    +0.061 A 
ATOM      6  C   LIG    1       24.991 -33.008   4.193  0.00  0.00    +0.118 A 
ATOM      7  C   LIG    1       25.938 -32.007   4.277  0.00  0.00    +0.046 A 
ATOM      8  C   LIG    1       25.992 -31.191   5.423  0.00  0.00    +0.013 A 
ATOM      9  C   LIG    1       25.078 -31.365   6.508  0.00  0.00    +0.001 A 
ENDROOT
BRANCH   2  10
ATOM     10  C   LIG    1       23.746 -31.308  10.136  0.00  0.00    -0.010 A 
ATOM     11  C   LIG    1       23.962 -32.365  11.027  0.00  0.00    +0.012 A 
ATOM     12  C   LIG    1       23.675 -32.250  12.400  0.00  0.00    +0.046 A 
ATOM     13  C   LIG    1       23.165 -31.068  12.915  0.00  0.00    +0.117 A 
ATOM     14  C   LIG    1       22.899 -30.007  12.071  0.00  0.00    +0.046 A 
ATOM     15  C   LIG    1       23.184 -30.132  10.702  0.00  0.00    +0.012 A 
BRANCH  13  16
ATOM     16  O   LIG    1       22.941 -30.992  14.257  0.00  0.00    -0.507 OA
ATOM     17  H   LIG    1       21.999 -31.158  14.426  0.00  0.00    +0.292 HD
ENDBRANCH  13  16
ENDBRANCH   2  10
BRANCH   1  19
ATOM     18  O   LIG    1       26.216 -29.156   9.089  0.00  0.00    -0.287 OA
ATOM     19  C   LIG    1       25.541 -29.328   8.088  0.00  0.00    +0.195 C 
BRANCH  19  20
ATOM     20  C   LIG    1       25.372 -28.145   7.176  0.00  0.00    +0.022 A 
ATOM     21  C   LIG    1       26.294 -27.090   7.264  0.00  0.00    +0.015 A 
ATOM     22  C   LIG    1       26.138 -25.931   6.498  0.00  0.00    +0.046 A 
ATOM     23  C   LIG    1       25.061 -25.805   5.621  0.00  0.00    +0.121 A 
ATOM     24  C   LIG    1       24.168 -26.866   5.482  0.00  0.00    +0.046 A 
ATOM     25  C   LIG    1       24.299 -28.016   6.280  0.00  0.00    +0.015 A 
BRANCH  23  26
ATOM     26  O   LIG    1       24.992 -24.611   4.962  0.00  0.00    -0.491 OA
BRANCH  26  27
ATOM     27  C   LIG    1       24.783 -23.417   5.731  0.00  0.00    +0.244 C 
BRANCH  27  28
ATOM     28  C   LIG    1       24.500 -22.182   4.850  0.00  0.00    +0.125 C 
BRANCH  28  29
ATOM     29  N   LIG    1       24.671 -20.880   5.523  0.00  0.00    -0.299 NA
ATOM     30  C   LIG    1       25.364 -19.917   4.647  0.00  0.00    +0.084 C 
ATOM     31  C   LIG    1       24.507 -19.415   3.480  0.00  0.00    +0.015 C 
ATOM     32  C   LIG    1       23.182 -18.842   3.972  0.00  0.00    +0.002 C 
ATOM     33  C   LIG    1       22.477 -19.810   4.919  0.00  0.00    +0.015 C 
ATOM     34  C   LIG    1       23.420 -20.292   6.024  0.00  0.00    +0.084 C 
ENDBRANCH  28  29
ENDBRANCH  27  28
ENDBRANCH  26  27
ENDBRANCH  23  26
ENDBRANCH  19  20
ENDBRANCH   1  19
BRANCH   6  35
ATOM     35  O   LIG    1       24.886 -33.825   3.105  0.00  0.00    -0.507 OA
ATOM     36  H   LIG    1       25.766 -33.961   2.717  0.00  0.00    +0.292 HD
ENDBRANCH   6  35
TORSDOF 9
ENDMDL
MODEL 6
REMARK VINA RESULT:      -8.3      3.687      8.700
REMARK  Name = *****
REMARK                            x       y       z     vdW  Elec       q    Type
REMARK                         _______ _______ _______ _____ _____    ______ ____
ROOT
ATOM      1  C   LIG    1       23.808 -21.131   6.490  0.00  0.00    +0.045 A 
ATOM      2  C   LIG    1       23.602 -22.461   6.070  0.00  0.00    +0.031 A 
ATOM      3  S   LIG    1       22.138 -22.528   5.138  0.00  0.00    -0.087 S 
ATOM      4  C   LIG    1       22.058 -20.850   4.905  0.00  0.00    +0.024 A 
ATOM      5  C   LIG    1       21.137 -20.177   4.078  0.00  0.00    +0.061 A 
ATOM      6  C   LIG    1       21.212 -18.796   3.971  0.00  0.00    +0.118 A 
ATOM      7  C   LIG    1       22.181 -18.088   4.653  0.00  0.00    +0.046 A 
ATOM      8  C   LIG    1       23.091 -18.772   5.482  0.00  0.00    +0.013 A 
ATOM      9  C   LIG    1       23.030 -20.190   5.649  0.00  0.00    +0.001 A 
ENDROOT
BRANCH   2  10
ATOM     10  C   LIG    1       24.265 -23.792   6.310  0.00  0.00    -0.010 A 
ATOM     11  C   LIG    1       23.624 -25.024   6.139  0.00  0.00    +0.012 A 
ATOM     12  C   LIG    1       24.296 -26.245   6.333  0.00  0.00    +0.046 A 
ATOM     13  C   LIG    1       25.632 -26.261   6.703  0.00  0.00    +0.117 A 
ATOM     14  C   LIG    1       26.301 -25.071   6.921  0.00  0.00    +0.046 A 
ATOM     15  C   LIG    1       25.621 -23.858   6.730  0.00  0.00    +0.012 A 
BRANCH  13  16
ATOM     16  O   LIG    1       26.250 -27.467   6.840  0.00  0.00    -0.507 OA
ATOM     17  H   LIG    1       26.512 -27.786   5.961  0.00  0.00    +0.292 HD
ENDBRANCH  13  16
ENDBRANCH   2  10
BRANCH   1  19
ATOM     18  O   LIG    1       24.414 -20.504   8.703  0.00  0.00    -0.287 OA
ATOM     19  C   LIG    1       24.758 -20.702   7.551  0.00  0.00    +0.195 C 
BRANCH  19  20
ATOM     20  C   LIG    1       26.206 -20.461   7.228  0.00  0.00    +0.022 A 
ATOM     21  C   LIG    1       27.140 -20.476   8.276  0.00  0.00    +0.015 A 
ATOM     22  C   LIG    1       28.487 -20.178   8.045  0.00  0.00    +0.046 A 
ATOM     23  C   LIG    1       28.931 -19.868   6.759  0.00  0.00    +0.121 A 
ATOM     24  C   LIG    1       28.026 -19.905   5.700  0.00  0.00    +0.046 A 
ATOM     25  C   LIG    1       26.664 -20.163   5.935  0.00  0.00    +0.015 A 
BRANCH  23  26
ATOM     26  O   LIG    1       30.256 -19.553   6.668  0.00  0.00    -0.491 OA
BRANCH  26  27
ATOM     27  C   LIG    1       31.085 -19.741   7.825  0.00  0.00    +0.244 C 
BRANCH  27  28
ATOM     28  C   LIG    1       31.966 -18.512   8.134  0.00  0.00    +0.125 C 
BRANCH  28  29
ATOM     29  N   LIG    1       31.232 -17.313   8.581  0.00  0.00    -0.299 NA
ATOM     30  C   LIG    1       30.194 -17.664   9.568  0.00  0.00    +0.084 C 
ATOM     31  C   LIG    1       30.753 -18.065  10.938  0.00  0.00    +0.015 C 
ATOM     32  C   LIG    1       31.685 -16.992  11.491  0.00  0.00    +0.002 C 
ATOM     33  C   LIG    1       32.735 -16.585  10.461  0.00  0.00    +0.015 C 
ATOM     34  C   LIG    1       32.091 -16.246   9.115  0.00  0.00    +0.084 C 
ENDBRANCH  28  29
ENDBRANCH  27  28
ENDBRANCH  26  27
ENDBRANCH  23  26
ENDBRANCH  19  20
ENDBRANCH   1  19
BRANCH   6  35
ATOM     35  O   LIG    1       20.300 -18.187   3.159  0.00  0.00    -0.507 OA
ATOM     36  H   LIG    1       19.412 -18.281   3.540  0.00  0.00    +0.292 HD
ENDBRANCH   6  35
TORSDOF 9
ENDMDL
MODEL 7
REMARK VINA RESULT:      -8.3      4.622     10.510
REMARK  Name = *****
REMARK                            x       y       z     vdW  Elec       q    Type
REMARK                         _______ _______ _______ _____ _____    ______ ____
ROOT
ATOM      1  C   LIG    1       25.273 -29.522  10.998  0.00  0.00    +0.045 A 
ATOM      2  C   LIG    1       24.080 -30.118  11.456  0.00  0.00    +0.031 A 
ATOM      3  S   LIG    1       23.928 -29.813  13.160  0.00  0.00    -0.087 S 
ATOM      4  C   LIG    1       25.094 -28.583  13.175  0.00  0.00    +0.024 A 
ATOM      5  C   LIG    1       25.404 -27.755  14.273  0.00  0.00    +0.061 A 
ATOM      6  C   LIG    1       26.371 -26.772  14.124  0.00  0.00    +0.118 A 
ATOM      7  C   LIG    1       27.014 -26.594  12.915  0.00  0.00    +0.046 A 
ATOM      8  C   LIG    1       26.701 -27.432  11.828  0.00  0.00    +0.013 A 
ATOM      9  C   LIG    1       25.736 -28.480  11.946  0.00  0.00    +0.001 A 
ENDROOT
BRANCH   2  10
ATOM     10  C   LIG    1       23.009 -30.998  10.869  0.00  0.00    -0.010 A 
ATOM     11  C   LIG    1       23.268 -32.199  10.198  0.00  0.00    +0.012 A 
ATOM     12  C   LIG    1       22.231 -33.012   9.702  0.00  0.00    +0.046 A 
ATOM     13  C   LIG    1       20.906 -32.641   9.870  0.00  0.00    +0.117 A 
ATOM     14  C   LIG    1       20.597 -31.447  10.493  0.00  0.00    +0.046 A 
ATOM     15  C   LIG    1       21.638 -30.639  10.980  0.00  0.00    +0.012 A 
BRANCH  13  16
ATOM     16  O   LIG    1       19.937 -33.481   9.409  0.00  0.00    -0.507 OA
ATOM     17  H   LIG    1       19.783 -33.293   8.469  0.00  0.00    +0.292 HD
ENDBRANCH  13  16
ENDBRANCH   2  10
BRANCH   1  19
ATOM     18  O   LIG    1       26.812 -30.635   9.565  0.00  0.00    -0.287 OA
ATOM     19  C   LIG    1       25.929 -29.805   9.693  0.00  0.00    +0.195 C 
BRANCH  19  20
ATOM     20  C   LIG    1       25.539 -29.038   8.460  0.00  0.00    +0.022 A 
ATOM     21  C   LIG    1       26.238 -27.860   8.151  0.00  0.00    +0.015 A 
ATOM     22  C   LIG    1       25.865 -27.066   7.063  0.00  0.00    +0.046 A 
ATOM     23  C   LIG    1       24.790 -27.436   6.255  0.00  0.00    +0.121 A 
ATOM     24  C   LIG    1       24.122 -28.631   6.516  0.00  0.00    +0.046 A 
ATOM     25  C   LIG    1       24.468 -29.411   7.633  0.00  0.00    +0.015 A 
BRANCH  23  26
ATOM     26  O   LIG    1       24.495 -26.558   5.251  0.00  0.00    -0.491 OA
BRANCH  26  27
ATOM     27  C   LIG    1       25.410 -25.482   4.993  0.00  0.00    +0.244 C 
BRANCH  27  28
ATOM     28  C   LIG    1       24.794 -24.095   5.272  0.00  0.00    +0.125 C 
BRANCH  28  29
ATOM     29  N   LIG    1       24.408 -23.852   6.675  0.00  0.00    -0.299 NA
ATOM     30  C   LIG    1       25.437 -23.064   7.379  0.00  0.00    +0.084 C 
ATOM     31  C   LIG    1       25.500 -21.597   6.943  0.00  0.00    +0.015 C 
ATOM     32  C   LIG    1       24.134 -20.927   7.057  0.00  0.00    +0.002 C 
ATOM     33  C   LIG    1       23.051 -21.757   6.373  0.00  0.00    +0.015 C 
ATOM     34  C   LIG    1       23.093 -23.215   6.835  0.00  0.00    +0.084 C 
ENDBRANCH  28  29
ENDBRANCH  27  28
ENDBRANCH  26  27
ENDBRANCH  23  26
ENDBRANCH  19  20
ENDBRANCH   1  19
BRANCH   6  35
ATOM     35  O   LIG    1       26.637 -25.995  15.213  0.00  0.00    -0.507 OA
ATOM     36  H   LIG    1       26.424 -26.487  16.022  0.00  0.00    +0.292 HD
ENDBRANCH   6  35
TORSDOF 9
ENDMDL
MODEL 8
REMARK VINA RESULT:      -8.3      5.166     10.243
REMARK  Name = *****
REMARK                            x       y       z     vdW  Elec       q    Type
REMARK                         _______ _______ _______ _____ _____    ______ ____
ROOT
ATOM      1  C   LIG    1       25.804 -29.456  11.922  0.00  0.00    +0.045 A 
ATOM      2  C   LIG    1       25.009 -28.748  12.846  0.00  0.00    +0.031 A 
ATOM      3  S   LIG    1       25.912 -28.550  14.317  0.00  0.00    -0.087 S 
ATOM      4  C   LIG    1       27.401 -28.941  13.606  0.00  0.00    +0.024 A 
ATOM      5  C   LIG    1       28.661 -28.848  14.230  0.00  0.00    +0.061 A 
ATOM      6  C   LIG    1       29.797 -29.183  13.508  0.00  0.00    +0.118 A 
ATOM      7  C   LIG    1       29.701 -29.588  12.192  0.00  0.00    +0.046 A 
ATOM      8  C   LIG    1       28.436 -29.683  11.581  0.00  0.00    +0.013 A 
ATOM      9  C   LIG    1       27.236 -29.382  12.298  0.00  0.00    +0.001 A 
ENDROOT
BRANCH   2  10
ATOM     10  C   LIG    1       23.594 -28.235  12.894  0.00  0.00    -0.010 A 
ATOM     11  C   LIG    1       23.246 -26.946  13.315  0.00  0.00    +0.012 A 
ATOM     12  C   LIG    1       21.913 -26.494  13.302  0.00  0.00    +0.046 A 
ATOM     13  C   LIG    1       20.894 -27.326  12.864  0.00  0.00    +0.117 A 
ATOM     14  C   LIG    1       21.179 -28.620  12.474  0.00  0.00    +0.046 A 
ATOM     15  C   LIG    1       22.511 -29.064  12.494  0.00  0.00    +0.012 A 
BRANCH  13  16
ATOM     16  O   LIG    1       19.625 -26.829  12.832  0.00  0.00    -0.507 OA
ATOM     17  H   LIG    1       19.171 -27.185  12.051  0.00  0.00    +0.292 HD
ENDBRANCH  13  16
ENDBRANCH   2  10
BRANCH   1  19
ATOM     18  O   LIG    1       24.916 -31.252  10.639  0.00  0.00    -0.287 OA
ATOM     19  C   LIG    1       25.307 -30.098  10.676  0.00  0.00    +0.195 C 
BRANCH  19  20
ATOM     20  C   LIG    1       25.297 -29.340   9.378  0.00  0.00    +0.022 A 
ATOM     21  C   LIG    1       24.334 -29.674   8.412  0.00  0.00    +0.015 A 
ATOM     22  C   LIG    1       24.330 -29.058   7.156  0.00  0.00    +0.046 A 
ATOM     23  C   LIG    1       25.282 -28.089   6.842  0.00  0.00    +0.121 A 
ATOM     24  C   LIG    1       26.209 -27.707   7.811  0.00  0.00    +0.046 A 
ATOM     25  C   LIG    1       26.243 -28.353   9.059  0.00  0.00    +0.015 A 
BRANCH  23  26
ATOM     26  O   LIG    1       25.203 -27.593   5.573  0.00  0.00    -0.491 OA
BRANCH  26  27
ATOM     27  C   LIG    1       25.888 -26.367   5.274  0.00  0.00    +0.244 C 
BRANCH  27  28
ATOM     28  C   LIG    1       24.958 -25.136   5.324  0.00  0.00    +0.125 C 
BRANCH  28  29
ATOM     29  N   LIG    1       24.593 -24.683   6.680  0.00  0.00    -0.299 NA
ATOM     30  C   LIG    1       25.704 -23.944   7.309  0.00  0.00    +0.084 C 
ATOM     31  C   LIG    1       25.945 -22.557   6.704  0.00  0.00    +0.015 C 
ATOM     32  C   LIG    1       24.669 -21.722   6.708  0.00  0.00    +0.002 C 
ATOM     33  C   LIG    1       23.499 -22.494   6.104  0.00  0.00    +0.015 C 
ATOM     34  C   LIG    1       23.363 -23.881   6.735  0.00  0.00    +0.084 C 
ENDBRANCH  28  29
ENDBRANCH  27  28
ENDBRANCH  26  27
ENDBRANCH  23  26
ENDBRANCH  19  20
ENDBRANCH   1  19
BRANCH   6  35
ATOM     35  O   LIG    1       30.995 -29.078  14.154  0.00  0.00    -0.507 OA
ATOM     36  H   LIG    1       30.888 -29.346  15.081  0.00  0.00    +0.292 HD
ENDBRANCH   6  35
TORSDOF 9
ENDMDL
MODEL 9
REMARK VINA RESULT:      -8.2      0.991      5.119
REMARK  Name = *****
REMARK                            x       y       z     vdW  Elec       q    Type
REMARK                         _______ _______ _______ _____ _____    ______ ____
ROOT
ATOM      1  C   LIG    1       27.068 -21.191   7.698  0.00  0.00    +0.045 A 
ATOM      2  C   LIG    1       26.908 -20.359   6.570  0.00  0.00    +0.031 A 
ATOM      3  S   LIG    1       28.293 -19.318   6.450  0.00  0.00    -0.087 S 
ATOM      4  C   LIG    1       29.238 -20.237   7.517  0.00  0.00    +0.024 A 
ATOM      5  C   LIG    1       30.603 -20.029   7.796  0.00  0.00    +0.061 A 
ATOM      6  C   LIG    1       31.248 -20.882   8.678  0.00  0.00    +0.118 A 
ATOM      7  C   LIG    1       30.570 -21.932   9.266  0.00  0.00    +0.046 A 
ATOM      8  C   LIG    1       29.204 -22.125   8.984  0.00  0.00    +0.013 A 
ATOM      9  C   LIG    1       28.491 -21.249   8.109  0.00  0.00    +0.001 A 
ENDROOT
BRANCH   2  10
ATOM     10  C   LIG    1       25.829 -20.103   5.552  0.00  0.00    -0.010 A 
ATOM     11  C   LIG    1       24.471 -20.362   5.774  0.00  0.00    +0.012 A 
ATOM     12  C   LIG    1       23.491 -20.065   4.808  0.00  0.00    +0.046 A 
ATOM     13  C   LIG    1       23.849 -19.498   3.595  0.00  0.00    +0.117 A 
ATOM     14  C   LIG    1       25.180 -19.256   3.312  0.00  0.00    +0.046 A 
ATOM     15  C   LIG    1       26.152 -19.560   4.279  0.00  0.00    +0.012 A 
BRANCH  13  16
ATOM     16  O   LIG    1       22.860 -19.191   2.709  0.00  0.00    -0.507 OA
ATOM     17  H   LIG    1       22.430 -20.014   2.424  0.00  0.00    +0.292 HD
ENDBRANCH  13  16
ENDBRANCH   2  10
BRANCH   1  19
ATOM     18  O   LIG    1       25.582 -21.782   9.460  0.00  0.00    -0.287 OA
ATOM     19  C   LIG    1       25.989 -21.997   8.331  0.00  0.00    +0.195 C 
BRANCH  19  20
ATOM     20  C   LIG    1       25.367 -23.151   7.597  0.00  0.00    +0.022 A 
ATOM     21  C   LIG    1       26.203 -24.174   7.121  0.00  0.00    +0.015 A 
ATOM     22  C   LIG    1       25.688 -25.230   6.362  0.00  0.00    +0.046 A 
ATOM     23  C   LIG    1       24.325 -25.291   6.070  0.00  0.00    +0.121 A 
ATOM     24  C   LIG    1       23.475 -24.312   6.583  0.00  0.00    +0.046 A 
ATOM     25  C   LIG    1       23.995 -23.228   7.311  0.00  0.00    +0.015 A 
BRANCH  23  26
ATOM     26  O   LIG    1       23.951 -26.344   5.285  0.00  0.00    -0.491 OA
BRANCH  26  27
ATOM     27  C   LIG    1       24.846 -27.460   5.167  0.00  0.00    +0.244 C 
BRANCH  27  28
ATOM     28  C   LIG    1       24.275 -28.751   5.790  0.00  0.00    +0.125 C 
BRANCH  28  29
ATOM     29  N   LIG    1       25.270 -29.626   6.440  0.00  0.00    -0.299 NA
ATOM     30  C   LIG    1       25.236 -29.468   7.906  0.00  0.00    +0.084 C 
ATOM     31  C   LIG    1       23.992 -30.074   8.565  0.00  0.00    +0.015 C 
ATOM     32  C   LIG    1       23.817 -31.538   8.173  0.00  0.00    +0.002 C 
ATOM     33  C   LIG    1       23.898 -31.721   6.660  0.00  0.00    +0.015 C 
ATOM     34  C   LIG    1       25.145 -31.047   6.085  0.00  0.00    +0.084 C 
ENDBRANCH  28  29
ENDBRANCH  27  28
ENDBRANCH  26  27
ENDBRANCH  23  26
ENDBRANCH  19  20
ENDBRANCH   1  19
BRANCH   6  35
ATOM     35  O   LIG    1       32.570 -20.643   8.918  0.00  0.00    -0.507 OA
ATOM     36  H   LIG    1       32.977 -20.250   8.129  0.00  0.00    +0.292 HD
ENDBRANCH   6  35
TORSDOF 9
ENDMDL
