MODEL 1
REMARK VINA RESULT:      -0.9      0.000      0.000
REMARK  Name = *****
REMARK                            x       y       z     vdW  Elec       q    Type
REMARK                         _______ _______ _______ _____ _____    ______ ____
ROOT
ATOM      1  C   LIG    1       23.756 -18.866   4.297  0.00  0.00    -0.007 C 
ATOM      2  C   LIG    1       24.635 -19.842   4.650  0.00  0.00    -0.031 C 
ENDROOT
BRANCH   1   6
ATOM      3  C   LIG    1       25.079 -14.857   3.542  0.00  0.00    +0.121 A 
ATOM      4  C   LIG    1       25.828 -15.938   3.086  0.00  0.00    +0.046 A 
ATOM      5  C   LIG    1       25.389 -17.241   3.325  0.00  0.00    +0.012 A 
ATOM      6  C   LIG    1       24.221 -17.473   4.061  0.00  0.00    -0.017 A 
ATOM      7  C   LIG    1       23.454 -16.386   4.481  0.00  0.00    +0.012 A 
ATOM      8  C   LIG    1       23.879 -15.083   4.217  0.00  0.00    +0.046 A 
BRANCH   3   9
ATOM      9  O   LIG    1       25.386 -13.540   3.337  0.00  0.00    -0.491 OA
BRANCH   9  10
ATOM     10  C   LIG    1       26.619 -13.279   2.660  0.00  0.00    +0.244 C 
BRANCH  10  11
ATOM     11  C   LIG    1       27.815 -13.527   3.595  0.00  0.00    +0.124 C 
BRANCH  11  13
ATOM     12  C   LIG    1       27.367 -13.563   5.957  0.00  0.00    +0.104 C 
ATOM     13  N   LIG    1       27.799 -12.726   4.834  0.00  0.00    -0.305 NA
ATOM     14  C   LIG    1       29.109 -12.141   5.126  0.00  0.00    +0.104 C 
ENDBRANCH  11  13
ENDBRANCH  10  11
ENDBRANCH   9  10
ENDBRANCH   3   9
ENDBRANCH   1   6
BRANCH   1  15
ATOM     15  C   LIG    1       22.304 -19.163   4.079  0.00  0.00    -0.017 A 
ATOM     16  C   LIG    1       21.446 -18.189   3.547  0.00  0.00    +0.008 A 
ATOM     17  C   LIG    1       20.112 -18.500   3.250  0.00  0.00    +0.001 A 
ATOM     18  C   LIG    1       19.626 -19.782   3.493  0.00  0.00    +0.000 A 
ATOM     19  C   LIG    1       20.468 -20.756   4.021  0.00  0.00    +0.001 A 
ATOM     20  C   LIG    1       21.804 -20.452   4.308  0.00  0.00    +0.008 A 
ENDBRANCH   1  15
BRANCH   2  21
ATOM     21  C   LIG    1       26.082 -19.585   4.976  0.00  0.00    -0.021 A 
ATOM     22  C   LIG    1       26.677 -20.144   6.117  0.00  0.00    +0.008 A 
ATOM     23  C   LIG    1       28.020 -19.872   6.438  0.00  0.00    +0.001 A 
ATOM     24  C   LIG    1       28.782 -19.043   5.624  0.00  0.00    +0.000 A 
ATOM     25  C   LIG    1       28.212 -18.494   4.479  0.00  0.00    +0.001 A 
ATOM     26  C   LIG    1       26.868 -18.762   4.157  0.00  0.00    +0.008 A 
ENDBRANCH   2  21
BRANCH   2  27
ATOM     27  C   LIG    1       24.236 -21.310   4.792  0.00  0.00    +0.052 C 
BRANCH  27  28
ATOM     28  C   LIG    1       23.463 -21.571   6.086  0.00  0.00    +0.113 C 
ATOM     29 CL   LIG    1       23.339 -20.085   7.060  0.00  0.00    -0.125 Cl
ENDBRANCH  27  28
ENDBRANCH   2  27
TORSDOF 9
ENDMDL
MODEL 2
REMARK VINA RESULT:      -0.1      1.651      4.889
REMARK  Name = *****
REMARK                            x       y       z     vdW  Elec       q    Type
REMARK                         _______ _______ _______ _____ _____    ______ ____
ROOT
ATOM      1  C   LIG    1       25.858 -19.120   4.991  0.00  0.00    -0.007 C 
ATOM      2  C   LIG    1       24.646 -19.730   5.080  0.00  0.00    -0.031 C 
ENDROOT
BRANCH   1   6
ATOM      3  C   LIG    1       26.288 -15.323   3.045  0.00  0.00    +0.121 A 
ATOM      4  C   LIG    1       27.412 -16.010   3.494  0.00  0.00    +0.046 A 
ATOM      5  C   LIG    1       27.269 -17.250   4.118  0.00  0.00    +0.012 A 
ATOM      6  C   LIG    1       25.996 -17.791   4.338  0.00  0.00    -0.017 A 
ATOM      7  C   LIG    1       24.877 -17.117   3.851  0.00  0.00    +0.012 A 
ATOM      8  C   LIG    1       25.023 -15.890   3.202  0.00  0.00    +0.046 A 
BRANCH   3   9
ATOM      9  O   LIG    1       26.304 -14.123   2.388  0.00  0.00    -0.491 OA
BRANCH   9  10
ATOM     10  C   LIG    1       26.457 -12.959   3.207  0.00  0.00    +0.244 C 
BRANCH  10  11
ATOM     11  C   LIG    1       25.519 -13.023   4.423  0.00  0.00    +0.124 C 
BRANCH  11  13
ATOM     12  C   LIG    1       23.851 -11.455   5.159  0.00  0.00    +0.104 C 
ATOM     13  N   LIG    1       24.162 -12.498   4.178  0.00  0.00    -0.305 NA
ATOM     14  C   LIG    1       24.017 -11.964   2.822  0.00  0.00    +0.104 C 
ENDBRANCH  11  13
ENDBRANCH  10  11
ENDBRANCH   9  10
ENDBRANCH   3   9
ENDBRANCH   1   6
BRANCH   1  15
ATOM     15  C   LIG    1       27.087 -19.732   5.593  0.00  0.00    -0.017 A 
ATOM     16  C   LIG    1       28.344 -19.136   5.416  0.00  0.00    +0.008 A 
ATOM     17  C   LIG    1       29.475 -19.653   6.062  0.00  0.00    +0.001 A 
ATOM     18  C   LIG    1       29.357 -20.774   6.879  0.00  0.00    +0.000 A 
ATOM     19  C   LIG    1       28.115 -21.375   7.061  0.00  0.00    +0.001 A 
ATOM     20  C   LIG    1       26.982 -20.854   6.427  0.00  0.00    +0.008 A 
ENDBRANCH   1  15
BRANCH   2  21
ATOM     21  C   LIG    1       23.400 -19.211   4.413  0.00  0.00    -0.021 A 
ATOM     22  C   LIG    1       22.444 -18.479   5.134  0.00  0.00    +0.008 A 
ATOM     23  C   LIG    1       21.264 -18.026   4.516  0.00  0.00    +0.001 A 
ATOM     24  C   LIG    1       21.026 -18.297   3.174  0.00  0.00    +0.000 A 
ATOM     25  C   LIG    1       21.972 -19.006   2.439  0.00  0.00    +0.001 A 
ATOM     26  C   LIG    1       23.153 -19.463   3.056  0.00  0.00    +0.008 A 
ENDBRANCH   2  21
BRANCH   2  27
ATOM     27  C   LIG    1       24.423 -21.036   5.839  0.00  0.00    +0.052 C 
BRANCH  27  28
ATOM     28  C   LIG    1       22.995 -21.152   6.374  0.00  0.00    +0.113 C 
ATOM     29 CL   LIG    1       21.858 -21.554   5.063  0.00  0.00    -0.125 Cl
ENDBRANCH  27  28
ENDBRANCH   2  27
TORSDOF 9
ENDMDL
MODEL 3
REMARK VINA RESULT:       0.7      3.187      7.425
REMARK  Name = *****
REMARK                            x       y       z     vdW  Elec       q    Type
REMARK                         _______ _______ _______ _____ _____    ______ ____
ROOT
ATOM      1  C   LIG    1       26.401 -15.419   4.142  0.00  0.00    -0.007 C 
ATOM      2  C   LIG    1       25.071 -15.316   3.875  0.00  0.00    -0.031 C 
ENDROOT
BRANCH   1   6
ATOM      3  C   LIG    1       28.158 -19.221   5.066  0.00  0.00    +0.121 A 
ATOM      4  C   LIG    1       28.734 -18.048   5.547  0.00  0.00    +0.046 A 
ATOM      5  C   LIG    1       28.153 -16.814   5.252  0.00  0.00    +0.012 A 
ATOM      6  C   LIG    1       27.017 -16.740   4.437  0.00  0.00    -0.017 A 
ATOM      7  C   LIG    1       26.422 -17.919   3.991  0.00  0.00    +0.012 A 
ATOM      8  C   LIG    1       26.987 -19.156   4.310  0.00  0.00    +0.046 A 
BRANCH   3   9
ATOM      9  O   LIG    1       28.611 -20.486   5.319  0.00  0.00    -0.491 OA
BRANCH   9  10
ATOM     10  C   LIG    1       28.079 -21.125   6.484  0.00  0.00    +0.244 C 
BRANCH  10  11
ATOM     11  C   LIG    1       26.684 -20.572   6.817  0.00  0.00    +0.124 C 
BRANCH  11  13
ATOM     12  C   LIG    1       24.327 -20.981   7.062  0.00  0.00    +0.104 C 
ATOM     13  N   LIG    1       25.568 -21.467   6.452  0.00  0.00    -0.305 NA
ATOM     14  C   LIG    1       25.401 -21.571   5.002  0.00  0.00    +0.104 C 
ENDBRANCH  11  13
ENDBRANCH  10  11
ENDBRANCH   9  10
ENDBRANCH   3   9
ENDBRANCH   1   6
BRANCH   1  15
ATOM     15  C   LIG    1       27.302 -14.223   4.096  0.00  0.00    -0.017 A 
ATOM     16  C   LIG    1       27.352 -13.323   5.170  0.00  0.00    +0.008 A 
ATOM     17  C   LIG    1       28.269 -12.263   5.169  0.00  0.00    +0.001 A 
ATOM     18  C   LIG    1       29.131 -12.090   4.090  0.00  0.00    +0.000 A 
ATOM     19  C   LIG    1       29.090 -12.976   3.018  0.00  0.00    +0.001 A 
ATOM     20  C   LIG    1       28.184 -14.043   3.021  0.00  0.00    +0.008 A 
ENDBRANCH   1  15
BRANCH   2  21
ATOM     21  C   LIG    1       24.103 -16.462   4.001  0.00  0.00    -0.021 A 
ATOM     22  C   LIG    1       24.392 -17.718   3.447  0.00  0.00    +0.008 A 
ATOM     23  C   LIG    1       23.470 -18.777   3.534  0.00  0.00    +0.001 A 
ATOM     24  C   LIG    1       22.251 -18.594   4.177  0.00  0.00    +0.000 A 
ATOM     25  C   LIG    1       21.955 -17.359   4.748  0.00  0.00    +0.001 A 
ATOM     26  C   LIG    1       22.876 -16.298   4.659  0.00  0.00    +0.008 A 
ENDBRANCH   2  21
BRANCH   2  27
ATOM     27  C   LIG    1       24.405 -14.008   3.453  0.00  0.00    +0.052 C 
BRANCH  27  28
ATOM     28  C   LIG    1       25.107 -13.368   2.254  0.00  0.00    +0.113 C 
ATOM     29 CL   LIG    1       24.469 -11.733   1.946  0.00  0.00    -0.125 Cl
ENDBRANCH  27  28
ENDBRANCH   2  27
TORSDOF 9
ENDMDL
MODEL 4
REMARK VINA RESULT:       1.1      3.158      6.463
REMARK  Name = *****
REMARK                            x       y       z     vdW  Elec       q    Type
REMARK                         _______ _______ _______ _____ _____    ______ ____
ROOT
ATOM      1  C   LIG    1       25.563 -15.373   3.597  0.00  0.00    -0.007 C 
ATOM      2  C   LIG    1       26.871 -15.574   3.909  0.00  0.00    -0.031 C 
ENDROOT
BRANCH   1   6
ATOM      3  C   LIG    1       22.714 -18.518   4.217  0.00  0.00    +0.121 A 
ATOM      4  C   LIG    1       23.891 -18.768   3.517  0.00  0.00    +0.046 A 
ATOM      5  C   LIG    1       24.820 -17.744   3.326  0.00  0.00    +0.012 A 
ATOM      6  C   LIG    1       24.559 -16.451   3.795  0.00  0.00    -0.017 A 
ATOM      7  C   LIG    1       23.397 -16.216   4.529  0.00  0.00    +0.012 A 
ATOM      8  C   LIG    1       22.481 -17.248   4.744  0.00  0.00    +0.046 A 
BRANCH   3   9
ATOM      9  O   LIG    1       21.750 -19.446   4.500  0.00  0.00    -0.491 OA
BRANCH   9  10
ATOM     10  C   LIG    1       22.215 -20.765   4.803  0.00  0.00    +0.244 C 
BRANCH  10  11
ATOM     11  C   LIG    1       22.889 -20.799   6.185  0.00  0.00    +0.124 C 
BRANCH  11  13
ATOM     12  C   LIG    1       24.732 -21.565   4.844  0.00  0.00    +0.104 C 
ATOM     13  N   LIG    1       24.204 -21.468   6.208  0.00  0.00    -0.305 NA
ATOM     14  C   LIG    1       25.162 -20.765   7.062  0.00  0.00    +0.104 C 
ENDBRANCH  11  13
ENDBRANCH  10  11
ENDBRANCH   9  10
ENDBRANCH   3   9
ENDBRANCH   1   6
BRANCH   1  15
ATOM     15  C   LIG    1       25.074 -14.048   3.096  0.00  0.00    -0.017 A 
ATOM     16  C   LIG    1       23.875 -13.500   3.574  0.00  0.00    +0.008 A 
ATOM     17  C   LIG    1       23.470 -12.217   3.181  0.00  0.00    +0.001 A 
ATOM     18  C   LIG    1       24.256 -11.480   2.299  0.00  0.00    +0.000 A 
ATOM     19  C   LIG    1       25.448 -12.014   1.817  0.00  0.00    +0.001 A 
ATOM     20  C   LIG    1       25.860 -13.290   2.217  0.00  0.00    +0.008 A 
ENDBRANCH   1  15
BRANCH   2  21
ATOM     21  C   LIG    1       27.435 -16.907   4.323  0.00  0.00    -0.021 A 
ATOM     22  C   LIG    1       26.795 -18.105   3.971  0.00  0.00    +0.008 A 
ATOM     23  C   LIG    1       27.304 -19.347   4.390  0.00  0.00    +0.001 A 
ATOM     24  C   LIG    1       28.458 -19.408   5.162  0.00  0.00    +0.000 A 
ATOM     25  C   LIG    1       29.116 -18.230   5.506  0.00  0.00    +0.001 A 
ATOM     26  C   LIG    1       28.606 -16.985   5.090  0.00  0.00    +0.008 A 
ENDBRANCH   2  21
BRANCH   2  27
ATOM     27  C   LIG    1       27.924 -14.470   3.837  0.00  0.00    +0.052 C 
BRANCH  27  28
ATOM     28  C   LIG    1       27.939 -13.608   5.101  0.00  0.00    +0.113 C 
ATOM     29 CL   LIG    1       29.023 -12.209   4.899  0.00  0.00    -0.125 Cl
ENDBRANCH  27  28
ENDBRANCH   2  27
TORSDOF 9
ENDMDL
