MODEL 1
REMARK VINA RESULT:       9.8      0.000      0.000
REMARK  Name = *****
REMARK                            x       y       z     vdW  Elec       q    Type
REMARK                         _______ _______ _______ _____ _____    ______ ____
ROOT
ATOM      1  C   LIG    1       24.080 -19.750   4.556  0.00  0.00    +0.180 C 
ATOM      2  C   LIG    1       23.507 -18.590   3.635  0.00  0.00    +0.021 C 
ATOM      3  C   LIG    1       24.790 -18.088   2.884  0.00  0.00    +0.006 C 
ATOM      4  C   LIG    1       25.515 -16.850   3.493  0.00  0.00    +0.037 C 
ATOM      5  C   LIG    1       24.530 -15.730   3.895  0.00  0.00    +0.153 C 
ATOM      6  C   LIG    1       23.582 -16.332   4.959  0.00  0.00    +0.154 C 
ATOM      7  F   LIG    1       23.785 -15.488   2.758  0.00  0.00    -0.238 F 
ATOM      8  C   LIG    1       25.188 -14.344   4.317  0.00  0.00    +0.047 C 
ATOM      9  C   LIG    1       26.481 -14.013   3.530  0.00  0.00    -0.020 C 
ATOM     10  C   LIG    1       27.168 -12.895   3.874  0.00  0.00    +0.054 C 
ATOM     11  C   LIG    1       27.622 -12.997   5.314  0.00  0.00    +0.179 C 
ATOM     12  C   LIG    1       26.686 -13.671   6.258  0.00  0.00    +0.047 C 
ATOM     13  O   LIG    1       28.645 -12.453   5.703  0.00  0.00    -0.288 OA
ATOM     14  C   LIG    1       27.338 -15.181   3.100  0.00  0.00    +0.194 C 
ATOM     15  F   LIG    1       28.007 -15.687   4.177  0.00  0.00    -0.241 F 
ATOM     16  C   LIG    1       24.151 -13.215   4.033  0.00  0.00    +0.023 C 
ATOM     17  C   LIG    1       25.560 -14.253   5.808  0.00  0.00    -0.009 C 
ATOM     18  C   LIG    1       26.544 -16.315   2.488  0.00  0.00    +0.048 C 
ATOM     19  C   LIG    1       25.713 -19.331   2.798  0.00  0.00    +0.009 C 
ATOM     20  C   LIG    1       22.523 -19.097   2.541  0.00  0.00    +0.016 C 
ATOM     21  C   LIG    1       22.760 -17.462   4.377  0.00  0.00    +0.045 C 
ATOM     22  C   LIG    1       25.005 -20.461   3.547  0.00  0.00    +0.057 C 
ENDROOT
BRANCH   6  23
ATOM     23  O   LIG    1       22.662 -15.381   5.501  0.00  0.00    -0.389 OA
ATOM     24  H   LIG    1       22.765 -14.539   5.026  0.00  0.00    +0.210 HD
ENDBRANCH   6  23
BRANCH   1  25
ATOM     25  C   LIG    1       23.025 -20.738   5.151  0.00  0.00    +0.214 C 
ATOM     26  O   LIG    1       23.256 -21.410   6.159  0.00  0.00    -0.289 OA
BRANCH  25  27
ATOM     27  C   LIG    1       21.686 -20.852   4.422  0.00  0.00    +0.310 C 
BRANCH  27  28
ATOM     28  O   LIG    1       20.816 -19.736   4.599  0.00  0.00    -0.457 OA
BRANCH  28  29
ATOM     29  C   LIG    1       19.863 -19.586   3.640  0.00  0.00    +0.304 C 
ATOM     30  O   LIG    1       19.351 -20.495   3.011  0.00  0.00    -0.251 OA
ATOM     31  C   LIG    1       19.524 -18.142   3.444  0.00  0.00    +0.136 C 
ENDBRANCH  28  29
ENDBRANCH  27  28
ENDBRANCH  25  27
ENDBRANCH   1  25
BRANCH   1  32
ATOM     32  O   LIG    1       24.847 -19.063   5.587  0.00  0.00    -0.450 OA
BRANCH  32  33
ATOM     33  C   LIG    1       25.925 -19.674   6.186  0.00  0.00    +0.308 C 
ATOM     34  O   LIG    1       25.871 -20.508   7.062  0.00  0.00    -0.251 OA
BRANCH  33  35
ATOM     35  C   LIG    1       27.207 -19.151   5.545  0.00  0.00    +0.120 C 
BRANCH  35  37
ATOM     36  C   LIG    1       29.399 -19.204   6.780  0.00  0.00    +0.004 C 
ATOM     37  C   LIG    1       28.401 -20.001   5.958  0.00  0.00    +0.008 C 
ENDBRANCH  35  37
ENDBRANCH  33  35
ENDBRANCH  32  33
ENDBRANCH   1  32
TORSDOF 9
ENDMDL
