MODEL 1
REMARK VINA RESULT:      62.1      0.000      0.000
REMARK  Name = *****
REMARK                            x       y       z     vdW  Elec       q    Type
REMARK                         _______ _______ _______ _____ _____    ______ ____
ROOT
ATOM      1  C   LIG    1       20.502 -17.873   3.655  0.00  0.00    +0.249 C 
ATOM      2  N   LIG    1       20.908 -16.523   3.788  0.00  0.00    -0.293 N 
ATOM      3  C   LIG    1       20.610 -15.519   2.734  0.00  0.00    +0.075 C 
ATOM      4  C   LIG    1       19.411 -15.783   1.814  0.00  0.00    +0.028 C 
ATOM      5  C   LIG    1       21.861 -15.250   1.868  0.00  0.00    +0.041 C 
ATOM      6  C   LIG    1       22.876 -14.311   2.529  0.00  0.00    +0.111 C 
ATOM      7  N   LIG    1       23.728 -14.915   3.549  0.00  0.00    -0.283 N 
ATOM      8  C   LIG    1       23.328 -16.111   4.286  0.00  0.00    +0.128 C 
ATOM      9  C   LIG    1       21.882 -16.039   4.773  0.00  0.00    +0.127 C 
ATOM     10  O   LIG    1       19.609 -18.226   2.891  0.00  0.00    -0.270 OA
ENDROOT
BRANCH   7  11
ATOM     11  C   LIG    1       24.822 -14.243   3.983  0.00  0.00    +0.291 A 
ATOM     12  O   LIG    1       25.854 -14.080   3.093  0.00  0.00    -0.424 OA
ATOM     13  C   LIG    1       26.825 -13.455   3.813  0.00  0.00    +0.157 A 
ATOM     14  C   LIG    1       26.331 -13.233   5.086  0.00  0.00    +0.113 A 
ATOM     15  C   LIG    1       27.142 -12.591   6.031  0.00  0.00    +0.051 A 
ATOM     16  C   LIG    1       28.434 -12.224   5.632  0.00  0.00    +0.043 A 
ATOM     17  C   LIG    1       28.906 -12.477   4.338  0.00  0.00    +0.023 A 
ATOM     18 CL   LIG    1       29.473 -11.449   6.767  0.00  0.00    -0.084 Cl
ATOM     19  C   LIG    1       28.097 -13.102   3.381  0.00  0.00    +0.050 A 
ATOM     20  N   LIG    1       25.059 -13.734   5.176  0.00  0.00    -0.195 NA
ENDBRANCH   7  11
BRANCH   1  24
ATOM     21  C   LIG    1       20.296 -21.572   6.953  0.00  0.00    +0.044 C 
ATOM     22  C   LIG    1       21.061 -20.873   5.867  0.00  0.00    -0.050 A 
ATOM     23  C   LIG    1       20.541 -19.734   5.232  0.00  0.00    +0.018 A 
ATOM     24  C   LIG    1       21.276 -19.006   4.263  0.00  0.00    +0.064 A 
ATOM     25  C   LIG    1       22.585 -19.425   3.997  0.00  0.00    +0.098 A 
ATOM     26  C   LIG    1       23.051 -20.650   4.524  0.00  0.00    +0.030 A 
ATOM     27  C   LIG    1       22.294 -21.365   5.451  0.00  0.00    +0.005 A 
BRANCH  25  28
ATOM     28  N   LIG    1       23.531 -18.633   3.309  0.00  0.00    -0.150 N 
ATOM     29  N   LIG    1       24.786 -18.441   3.813  0.00  0.00    -0.156 NA
ATOM     30  C   LIG    1       25.344 -17.649   2.898  0.00  0.00    +0.156 A 
ATOM     31  C   LIG    1       24.411 -17.352   1.903  0.00  0.00    +0.156 A 
ATOM     32  N   LIG    1       23.271 -18.006   2.136  0.00  0.00    -0.156 NA
ENDBRANCH  25  28
ENDBRANCH   1  24
TORSDOF 3
ENDMDL
