MODEL 1
REMARK VINA RESULT:      -9.8      0.000      0.000
REMARK  Name = *****
REMARK                            x       y       z     vdW  Elec       q    Type
REMARK                         _______ _______ _______ _____ _____    ______ ____
ROOT
ATOM      1  C   LIG    1       29.595 -20.600   7.592  0.00  0.00    -0.031 A 
ATOM      2  C   LIG    1       28.624 -21.473   8.100  0.00  0.00    +0.043 A 
ATOM      3  C   LIG    1       27.322 -21.487   7.581  0.00  0.00    +0.131 A 
ATOM      4  F   LIG    1       26.464 -22.369   8.118  0.00  0.00    -0.205 F 
ATOM      5  C   LIG    1       26.917 -20.632   6.544  0.00  0.00    +0.017 A 
ATOM      6  C   LIG    1       27.909 -19.770   6.035  0.00  0.00    +0.012 A 
ATOM      7  C   LIG    1       29.220 -19.753   6.544  0.00  0.00    +0.005 A 
ENDROOT
BRANCH   5   8
ATOM      8  C   LIG    1       25.528 -20.614   6.014  0.00  0.00    -0.015 A 
ATOM      9  C   LIG    1       24.409 -20.743   6.859  0.00  0.00    +0.008 A 
ATOM     10  C   LIG    1       23.100 -20.716   6.360  0.00  0.00    +0.001 A 
ATOM     11  C   LIG    1       22.873 -20.545   5.000  0.00  0.00    +0.000 A 
ATOM     12  C   LIG    1       23.957 -20.408   4.138  0.00  0.00    +0.001 A 
ATOM     13  C   LIG    1       25.264 -20.448   4.639  0.00  0.00    +0.008 A 
ENDBRANCH   5   8
BRANCH   1  15
ATOM     14  C   LIG    1       31.275 -19.290   8.990  0.00  0.00    +0.024 C 
ATOM     15  C   LIG    1       30.990 -20.577   8.206  0.00  0.00    +0.124 C 
BRANCH  15  16
ATOM     16  C   LIG    1       31.283 -21.794   9.082  0.00  0.00    +0.312 C 
ATOM     17  O   LIG    1       30.868 -21.942  10.227  0.00  0.00    -0.250 OA
BRANCH  16  18
ATOM     18  O   LIG    1       32.116 -22.698   8.518  0.00  0.00    -0.480 OA
ATOM     19  H   LIG    1       33.041 -22.395   8.441  0.00  0.00    +0.295 HD
ENDBRANCH  16  18
ENDBRANCH  15  16
ENDBRANCH   1  15
TORSDOF 4
ENDMDL
MODEL 2
REMARK VINA RESULT:      -9.5      1.124      1.590
REMARK  Name = *****
REMARK                            x       y       z     vdW  Elec       q    Type
REMARK                         _______ _______ _______ _____ _____    ______ ____
ROOT
ATOM      1  C   LIG    1       29.533 -20.623   7.663  0.00  0.00    -0.031 A 
ATOM      2  C   LIG    1       29.196 -19.809   6.573  0.00  0.00    +0.043 A 
ATOM      3  C   LIG    1       27.896 -19.804   6.050  0.00  0.00    +0.131 A 
ATOM      4  F   LIG    1       27.661 -18.980   5.016  0.00  0.00    -0.205 F 
ATOM      5  C   LIG    1       26.872 -20.609   6.572  0.00  0.00    +0.017 A 
ATOM      6  C   LIG    1       27.223 -21.411   7.677  0.00  0.00    +0.012 A 
ATOM      7  C   LIG    1       28.523 -21.418   8.214  0.00  0.00    +0.005 A 
ENDROOT
BRANCH   5   8
ATOM      8  C   LIG    1       25.500 -20.637   6.000  0.00  0.00    -0.015 A 
ATOM      9  C   LIG    1       24.355 -20.694   6.818  0.00  0.00    +0.008 A 
ATOM     10  C   LIG    1       23.062 -20.711   6.279  0.00  0.00    +0.001 A 
ATOM     11  C   LIG    1       22.877 -20.658   4.903  0.00  0.00    +0.000 A 
ATOM     12  C   LIG    1       23.987 -20.594   4.066  0.00  0.00    +0.001 A 
ATOM     13  C   LIG    1       25.278 -20.590   4.609  0.00  0.00    +0.008 A 
ENDBRANCH   5   8
BRANCH   1  15
ATOM     14  C   LIG    1       31.354 -19.342   8.902  0.00  0.00    +0.024 C 
ATOM     15  C   LIG    1       30.966 -20.640   8.182  0.00  0.00    +0.124 C 
BRANCH  15  16
ATOM     16  C   LIG    1       31.269 -21.840   9.076  0.00  0.00    +0.312 C 
ATOM     17  O   LIG    1       30.840 -21.983  10.217  0.00  0.00    -0.250 OA
BRANCH  16  18
ATOM     18  O   LIG    1       32.127 -22.734   8.535  0.00  0.00    -0.480 OA
ATOM     19  H   LIG    1       33.032 -22.690   8.899  0.00  0.00    +0.295 HD
ENDBRANCH  16  18
ENDBRANCH  15  16
ENDBRANCH   1  15
TORSDOF 4
ENDMDL
MODEL 3
REMARK VINA RESULT:      -9.2      1.416      1.786
REMARK  Name = *****
REMARK                            x       y       z     vdW  Elec       q    Type
REMARK                         _______ _______ _______ _____ _____    ______ ____
ROOT
ATOM      1  C   LIG    1       28.944 -19.703   7.385  0.00  0.00    -0.031 A 
ATOM      2  C   LIG    1       28.027 -19.999   8.402  0.00  0.00    +0.043 A 
ATOM      3  C   LIG    1       26.728 -20.431   8.102  0.00  0.00    +0.131 A 
ATOM      4  F   LIG    1       25.925 -20.708   9.142  0.00  0.00    -0.205 F 
ATOM      5  C   LIG    1       26.272 -20.581   6.783  0.00  0.00    +0.017 A 
ATOM      6  C   LIG    1       27.210 -20.294   5.771  0.00  0.00    +0.012 A 
ATOM      7  C   LIG    1       28.518 -19.866   6.062  0.00  0.00    +0.005 A 
ENDROOT
BRANCH   5   8
ATOM      8  C   LIG    1       24.884 -21.003   6.455  0.00  0.00    -0.015 A 
ATOM      9  C   LIG    1       24.064 -20.250   5.593  0.00  0.00    +0.008 A 
ATOM     10  C   LIG    1       22.759 -20.653   5.277  0.00  0.00    +0.001 A 
ATOM     11  C   LIG    1       22.243 -21.830   5.805  0.00  0.00    +0.000 A 
ATOM     12  C   LIG    1       23.030 -22.601   6.655  0.00  0.00    +0.001 A 
ATOM     13  C   LIG    1       24.329 -22.188   6.978  0.00  0.00    +0.008 A 
ENDBRANCH   5   8
BRANCH   1  15
ATOM     14  C   LIG    1       30.304 -17.870   8.518  0.00  0.00    +0.024 C 
ATOM     15  C   LIG    1       30.335 -19.193   7.742  0.00  0.00    +0.124 C 
BRANCH  15  16
ATOM     16  C   LIG    1       31.177 -20.218   8.498  0.00  0.00    +0.312 C 
ATOM     17  O   LIG    1       32.016 -19.938   9.348  0.00  0.00    -0.250 OA
BRANCH  16  18
ATOM     18  O   LIG    1       30.980 -21.498   8.107  0.00  0.00    -0.480 OA
ATOM     19  H   LIG    1       31.233 -21.676   7.181  0.00  0.00    +0.295 HD
ENDBRANCH  16  18
ENDBRANCH  15  16
ENDBRANCH   1  15
TORSDOF 4
ENDMDL
MODEL 4
REMARK VINA RESULT:      -9.0      3.315      6.563
REMARK  Name = *****
REMARK                            x       y       z     vdW  Elec       q    Type
REMARK                         _______ _______ _______ _____ _____    ______ ____
ROOT
ATOM      1  C   LIG    1       24.879 -21.220   7.158  0.00  0.00    -0.031 A 
ATOM      2  C   LIG    1       25.629 -20.768   6.064  0.00  0.00    +0.043 A 
ATOM      3  C   LIG    1       26.931 -20.279   6.233  0.00  0.00    +0.131 A 
ATOM      4  F   LIG    1       27.580 -19.883   5.126  0.00  0.00    -0.205 F 
ATOM      5  C   LIG    1       27.550 -20.205   7.491  0.00  0.00    +0.017 A 
ATOM      6  C   LIG    1       26.789 -20.677   8.579  0.00  0.00    +0.012 A 
ATOM      7  C   LIG    1       25.483 -21.176   8.419  0.00  0.00    +0.005 A 
ENDROOT
BRANCH   5   8
ATOM      8  C   LIG    1       28.917 -19.653   7.684  0.00  0.00    -0.015 A 
ATOM      9  C   LIG    1       29.958 -19.914   6.772  0.00  0.00    +0.008 A 
ATOM     10  C   LIG    1       31.244 -19.386   6.949  0.00  0.00    +0.001 A 
ATOM     11  C   LIG    1       31.521 -18.569   8.038  0.00  0.00    +0.000 A 
ATOM     12  C   LIG    1       30.513 -18.286   8.954  0.00  0.00    +0.001 A 
ATOM     13  C   LIG    1       29.232 -18.826   8.780  0.00  0.00    +0.008 A 
ENDBRANCH   5   8
BRANCH   1  15
ATOM     14  C   LIG    1       22.752 -21.015   5.771  0.00  0.00    +0.024 C 
ATOM     15  C   LIG    1       23.450 -21.706   6.949  0.00  0.00    +0.124 C 
BRANCH  15  16
ATOM     16  C   LIG    1       23.344 -23.221   6.798  0.00  0.00    +0.312 C 
ATOM     17  O   LIG    1       24.302 -23.988   6.795  0.00  0.00    -0.250 OA
BRANCH  16  18
ATOM     18  O   LIG    1       22.086 -23.674   6.593  0.00  0.00    -0.480 OA
ATOM     19  H   LIG    1       21.797 -23.642   5.660  0.00  0.00    +0.295 HD
ENDBRANCH  16  18
ENDBRANCH  15  16
ENDBRANCH   1  15
TORSDOF 4
ENDMDL
MODEL 5
REMARK VINA RESULT:      -8.9      2.058      2.748
REMARK  Name = *****
REMARK                            x       y       z     vdW  Elec       q    Type
REMARK                         _______ _______ _______ _____ _____    ______ ____
ROOT
ATOM      1  C   LIG    1       29.044 -20.399   7.247  0.00  0.00    -0.031 A 
ATOM      2  C   LIG    1       28.125 -20.035   6.254  0.00  0.00    +0.043 A 
ATOM      3  C   LIG    1       26.867 -20.647   6.174  0.00  0.00    +0.131 A 
ATOM      4  F   LIG    1       26.045 -20.222   5.201  0.00  0.00    -0.205 F 
ATOM      5  C   LIG    1       26.462 -21.655   7.064  0.00  0.00    +0.017 A 
ATOM      6  C   LIG    1       27.392 -22.000   8.065  0.00  0.00    +0.012 A 
ATOM      7  C   LIG    1       28.655 -21.386   8.159  0.00  0.00    +0.005 A 
ENDROOT
BRANCH   5   8
ATOM      8  C   LIG    1       25.145 -22.336   6.963  0.00  0.00    -0.015 A 
ATOM      9  C   LIG    1       23.933 -21.636   7.124  0.00  0.00    +0.008 A 
ATOM     10  C   LIG    1       22.691 -22.276   7.020  0.00  0.00    +0.001 A 
ATOM     11  C   LIG    1       22.626 -23.634   6.736  0.00  0.00    +0.000 A 
ATOM     12  C   LIG    1       23.804 -24.354   6.565  0.00  0.00    +0.001 A 
ATOM     13  C   LIG    1       25.044 -23.713   6.683  0.00  0.00    +0.008 A 
ENDBRANCH   5   8
BRANCH   1  15
ATOM     14  C   LIG    1       30.462 -18.403   6.542  0.00  0.00    +0.024 C 
ATOM     15  C   LIG    1       30.421 -19.746   7.282  0.00  0.00    +0.124 C 
BRANCH  15  16
ATOM     16  C   LIG    1       30.972 -19.577   8.696  0.00  0.00    +0.312 C 
ATOM     17  O   LIG    1       31.924 -20.203   9.150  0.00  0.00    -0.250 OA
BRANCH  16  18
ATOM     18  O   LIG    1       30.274 -18.711   9.465  0.00  0.00    -0.480 OA
ATOM     19  H   LIG    1       30.171 -18.996  10.394  0.00  0.00    +0.295 HD
ENDBRANCH  16  18
ENDBRANCH  15  16
ENDBRANCH   1  15
TORSDOF 4
ENDMDL
MODEL 6
REMARK VINA RESULT:      -8.6      1.709      2.285
REMARK  Name = *****
REMARK                            x       y       z     vdW  Elec       q    Type
REMARK                         _______ _______ _______ _____ _____    ______ ____
ROOT
ATOM      1  C   LIG    1       28.981 -19.918   7.595  0.00  0.00    -0.031 A 
ATOM      2  C   LIG    1       27.915 -20.162   8.471  0.00  0.00    +0.043 A 
ATOM      3  C   LIG    1       26.622 -20.402   7.987  0.00  0.00    +0.131 A 
ATOM      4  F   LIG    1       25.667 -20.642   8.899  0.00  0.00    -0.205 F 
ATOM      5  C   LIG    1       26.320 -20.402   6.616  0.00  0.00    +0.017 A 
ATOM      6  C   LIG    1       27.406 -20.170   5.747  0.00  0.00    +0.012 A 
ATOM      7  C   LIG    1       28.709 -19.935   6.223  0.00  0.00    +0.005 A 
ENDROOT
BRANCH   5   8
ATOM      8  C   LIG    1       24.944 -20.618   6.095  0.00  0.00    -0.015 A 
ATOM      9  C   LIG    1       24.509 -20.040   4.887  0.00  0.00    +0.008 A 
ATOM     10  C   LIG    1       23.215 -20.252   4.391  0.00  0.00    +0.001 A 
ATOM     11  C   LIG    1       22.324 -21.061   5.086  0.00  0.00    +0.000 A 
ATOM     12  C   LIG    1       22.725 -21.652   6.280  0.00  0.00    +0.001 A 
ATOM     13  C   LIG    1       24.014 -21.428   6.778  0.00  0.00    +0.008 A 
ENDBRANCH   5   8
BRANCH   1  15
ATOM     14  C   LIG    1       31.385 -19.263   7.061  0.00  0.00    +0.024 C 
ATOM     15  C   LIG    1       30.367 -19.617   8.153  0.00  0.00    +0.124 C 
BRANCH  15  16
ATOM     16  C   LIG    1       30.362 -18.533   9.228  0.00  0.00    +0.312 C 
ATOM     17  O   LIG    1       30.094 -17.353   9.024  0.00  0.00    -0.250 OA
BRANCH  16  18
ATOM     18  O   LIG    1       30.753 -18.960  10.451  0.00  0.00    -0.480 OA
ATOM     19  H   LIG    1       31.249 -18.295  10.966  0.00  0.00    +0.295 HD
ENDBRANCH  16  18
ENDBRANCH  15  16
ENDBRANCH   1  15
TORSDOF 4
ENDMDL
MODEL 7
REMARK VINA RESULT:      -8.5      3.651      6.821
REMARK  Name = *****
REMARK                            x       y       z     vdW  Elec       q    Type
REMARK                         _______ _______ _______ _____ _____    ______ ____
ROOT
ATOM      1  C   LIG    1       25.102 -20.511   5.695  0.00  0.00    -0.031 A 
ATOM      2  C   LIG    1       25.210 -20.662   7.084  0.00  0.00    +0.043 A 
ATOM      3  C   LIG    1       26.439 -20.499   7.736  0.00  0.00    +0.131 A 
ATOM      4  F   LIG    1       26.443 -20.647   9.071  0.00  0.00    -0.205 F 
ATOM      5  C   LIG    1       27.622 -20.189   7.046  0.00  0.00    +0.017 A 
ATOM      6  C   LIG    1       27.495 -20.026   5.652  0.00  0.00    +0.012 A 
ATOM      7  C   LIG    1       26.264 -20.180   4.988  0.00  0.00    +0.005 A 
ENDROOT
BRANCH   5   8
ATOM      8  C   LIG    1       28.937 -20.051   7.725  0.00  0.00    -0.015 A 
ATOM      9  C   LIG    1       29.458 -18.793   8.086  0.00  0.00    +0.008 A 
ATOM     10  C   LIG    1       30.693 -18.664   8.734  0.00  0.00    +0.001 A 
ATOM     11  C   LIG    1       31.437 -19.793   9.054  0.00  0.00    +0.000 A 
ATOM     12  C   LIG    1       30.948 -21.051   8.718  0.00  0.00    +0.001 A 
ATOM     13  C   LIG    1       29.719 -21.175   8.058  0.00  0.00    +0.008 A 
ENDBRANCH   5   8
BRANCH   1  15
ATOM     14  C   LIG    1       22.730 -21.411   5.924  0.00  0.00    +0.024 C 
ATOM     15  C   LIG    1       23.761 -20.738   5.009  0.00  0.00    +0.124 C 
BRANCH  15  16
ATOM     16  C   LIG    1       23.168 -19.465   4.408  0.00  0.00    +0.312 C 
ATOM     17  O   LIG    1       23.560 -18.938   3.371  0.00  0.00    -0.250 OA
BRANCH  16  18
ATOM     18  O   LIG    1       22.195 -18.897   5.156  0.00  0.00    -0.480 OA
ATOM     19  H   LIG    1       22.511 -18.503   5.991  0.00  0.00    +0.295 HD
ENDBRANCH  16  18
ENDBRANCH  15  16
ENDBRANCH   1  15
TORSDOF 4
ENDMDL
MODEL 8
REMARK VINA RESULT:      -8.3      4.461      5.570
REMARK  Name = *****
REMARK                            x       y       z     vdW  Elec       q    Type
REMARK                         _______ _______ _______ _____ _____    ______ ____
ROOT
ATOM      1  C   LIG    1       25.789 -25.180   6.103  0.00  0.00    -0.031 A 
ATOM      2  C   LIG    1       25.929 -24.081   6.960  0.00  0.00    +0.043 A 
ATOM      3  C   LIG    1       25.387 -22.832   6.629  0.00  0.00    +0.131 A 
ATOM      4  F   LIG    1       25.556 -21.841   7.519  0.00  0.00    -0.205 F 
ATOM      5  C   LIG    1       24.690 -22.608   5.431  0.00  0.00    +0.017 A 
ATOM      6  C   LIG    1       24.545 -23.726   4.585  0.00  0.00    +0.012 A 
ATOM      7  C   LIG    1       25.080 -24.986   4.912  0.00  0.00    +0.005 A 
ENDROOT
BRANCH   5   8
ATOM      8  C   LIG    1       24.145 -21.277   5.054  0.00  0.00    -0.015 A 
ATOM      9  C   LIG    1       24.761 -20.472   4.077  0.00  0.00    +0.008 A 
ATOM     10  C   LIG    1       24.242 -19.222   3.715  0.00  0.00    +0.001 A 
ATOM     11  C   LIG    1       23.081 -18.747   4.313  0.00  0.00    +0.000 A 
ATOM     12  C   LIG    1       22.444 -19.521   5.278  0.00  0.00    +0.001 A 
ATOM     13  C   LIG    1       22.973 -20.764   5.645  0.00  0.00    +0.008 A 
ENDBRANCH   5   8
BRANCH   1  15
ATOM     14  C   LIG    1       25.711 -27.217   7.630  0.00  0.00    +0.024 C 
ATOM     15  C   LIG    1       26.426 -26.515   6.470  0.00  0.00    +0.124 C 
BRANCH  15  16
ATOM     16  C   LIG    1       26.553 -27.469   5.284  0.00  0.00    +0.312 C 
ATOM     17  O   LIG    1       25.722 -28.322   4.987  0.00  0.00    -0.250 OA
BRANCH  16  18
ATOM     18  O   LIG    1       27.713 -27.354   4.599  0.00  0.00    -0.480 OA
ATOM     19  H   LIG    1       28.513 -27.424   5.154  0.00  0.00    +0.295 HD
ENDBRANCH  16  18
ENDBRANCH  15  16
ENDBRANCH   1  15
TORSDOF 4
ENDMDL
MODEL 9
REMARK VINA RESULT:      -8.3      3.723      6.916
REMARK  Name = *****
REMARK                            x       y       z     vdW  Elec       q    Type
REMARK                         _______ _______ _______ _____ _____    ______ ____
ROOT
ATOM      1  C   LIG    1       25.227 -20.731   5.940  0.00  0.00    -0.031 A 
ATOM      2  C   LIG    1       26.298 -20.213   5.199  0.00  0.00    +0.043 A 
ATOM      3  C   LIG    1       27.533 -19.944   5.805  0.00  0.00    +0.131 A 
ATOM      4  F   LIG    1       28.506 -19.465   5.013  0.00  0.00    -0.205 F 
ATOM      5  C   LIG    1       27.765 -20.166   7.172  0.00  0.00    +0.017 A 
ATOM      6  C   LIG    1       26.683 -20.701   7.900  0.00  0.00    +0.012 A 
ATOM      7  C   LIG    1       25.441 -20.981   7.300  0.00  0.00    +0.005 A 
ENDROOT
BRANCH   5   8
ATOM      8  C   LIG    1       29.060 -19.848   7.830  0.00  0.00    -0.015 A 
ATOM      9  C   LIG    1       29.401 -18.533   8.200  0.00  0.00    +0.008 A 
ATOM     10  C   LIG    1       30.617 -18.235   8.829  0.00  0.00    +0.001 A 
ATOM     11  C   LIG    1       31.522 -19.250   9.118  0.00  0.00    +0.000 A 
ATOM     12  C   LIG    1       31.212 -20.561   8.771  0.00  0.00    +0.001 A 
ATOM     13  C   LIG    1       30.001 -20.852   8.131  0.00  0.00    +0.008 A 
ENDBRANCH   5   8
BRANCH   1  15
ATOM     14  C   LIG    1       22.859 -21.636   6.192  0.00  0.00    +0.024 C 
ATOM     15  C   LIG    1       23.883 -20.972   5.263  0.00  0.00    +0.124 C 
BRANCH  15  16
ATOM     16  C   LIG    1       23.284 -19.710   4.646  0.00  0.00    +0.312 C 
ATOM     17  O   LIG    1       23.618 -19.240   3.563  0.00  0.00    -0.250 OA
BRANCH  16  18
ATOM     18  O   LIG    1       22.378 -19.084   5.430  0.00  0.00    -0.480 OA
ATOM     19  H   LIG    1       21.726 -19.682   5.843  0.00  0.00    +0.295 HD
ENDBRANCH  16  18
ENDBRANCH  15  16
ENDBRANCH   1  15
TORSDOF 4
ENDMDL
