MODEL 1
REMARK VINA RESULT:      -4.4      0.000      0.000
REMARK  Name = *****
REMARK                            x       y       z     vdW  Elec       q    Type
REMARK                         _______ _______ _______ _____ _____    ______ ____
ROOT
ATOM      1  C   LIG    1       26.355 -13.980   4.262  0.00  0.00    +0.131 C 
ENDROOT
BRANCH   1   3
ATOM      2  O   LIG    1       26.642 -14.301   1.895  0.00  0.00    -0.251 OA
ATOM      3  C   LIG    1       27.106 -13.908   2.959  0.00  0.00    +0.305 C 
BRANCH   3   4
ATOM      4  O   LIG    1       28.316 -13.321   3.051  0.00  0.00    -0.481 OA
ATOM      5  H   LIG    1       29.030 -13.920   3.371  0.00  0.00    +0.295 HD
ENDBRANCH   3   4
ENDBRANCH   1   3
BRANCH   1   6
ATOM      6  C   LIG    1       24.879 -14.264   4.028  0.00  0.00    +0.131 C 
BRANCH   6   7
ATOM      7  C   LIG    1       24.151 -13.002   3.652  0.00  0.00    +0.305 C 
ATOM      8  O   LIG    1       23.913 -12.102   4.450  0.00  0.00    -0.251 OA
BRANCH   7   9
ATOM      9  O   LIG    1       23.775 -12.957   2.360  0.00  0.00    -0.481 OA
ATOM     10  H   LIG    1       24.427 -13.326   1.732  0.00  0.00    +0.295 HD
ENDBRANCH   7   9
ENDBRANCH   6   7
ENDBRANCH   1   6
TORSDOF 5
ENDMDL
MODEL 2
REMARK VINA RESULT:      -4.4      0.123      3.610
REMARK  Name = *****
REMARK                            x       y       z     vdW  Elec       q    Type
REMARK                         _______ _______ _______ _____ _____    ______ ____
ROOT
ATOM      1  C   LIG    1       24.853 -14.136   4.034  0.00  0.00    +0.131 C 
ENDROOT
BRANCH   1   3
ATOM      2  O   LIG    1       23.866 -11.962   4.321  0.00  0.00    -0.251 OA
ATOM      3  C   LIG    1       24.134 -12.896   3.575  0.00  0.00    +0.305 C 
BRANCH   3   4
ATOM      4  O   LIG    1       23.861 -12.874   2.255  0.00  0.00    -0.481 OA
ATOM      5  H   LIG    1       23.780 -11.967   1.877  0.00  0.00    +0.295 HD
ENDBRANCH   3   4
ENDBRANCH   1   3
BRANCH   1   6
ATOM      6  C   LIG    1       26.329 -13.857   4.276  0.00  0.00    +0.131 C 
BRANCH   6   7
ATOM      7  C   LIG    1       27.086 -13.851   2.975  0.00  0.00    +0.305 C 
ATOM      8  O   LIG    1       26.633 -14.315   1.934  0.00  0.00    -0.251 OA
BRANCH   7   9
ATOM      9  O   LIG    1       28.311 -13.300   3.062  0.00  0.00    -0.481 OA
ATOM     10  H   LIG    1       29.045 -13.942   3.126  0.00  0.00    +0.295 HD
ENDBRANCH   7   9
ENDBRANCH   6   7
ENDBRANCH   1   6
TORSDOF 5
ENDMDL
MODEL 3
REMARK VINA RESULT:      -4.1      1.070      1.680
REMARK  Name = *****
REMARK                            x       y       z     vdW  Elec       q    Type
REMARK                         _______ _______ _______ _____ _____    ______ ____
ROOT
ATOM      1  C   LIG    1       25.980 -13.798   4.115  0.00  0.00    +0.131 C 
ENDROOT
BRANCH   1   3
ATOM      2  O   LIG    1       26.518 -15.992   3.289  0.00  0.00    -0.251 OA
ATOM      3  C   LIG    1       26.482 -14.783   3.093  0.00  0.00    +0.305 C 
BRANCH   3   4
ATOM      4  O   LIG    1       26.837 -14.227   1.918  0.00  0.00    -0.481 OA
ATOM      5  H   LIG    1       26.916 -14.871   1.176  0.00  0.00    +0.295 HD
ENDBRANCH   3   4
ENDBRANCH   1   3
BRANCH   1   6
ATOM      6  C   LIG    1       24.471 -13.630   4.019  0.00  0.00    +0.131 C 
BRANCH   6   7
ATOM      7  C   LIG    1       24.125 -12.416   3.199  0.00  0.00    +0.305 C 
ATOM      8  O   LIG    1       24.391 -12.314   2.007  0.00  0.00    -0.251 OA
BRANCH   7   9
ATOM      9  O   LIG    1       23.508 -11.447   3.901  0.00  0.00    -0.481 OA
ATOM     10  H   LIG    1       23.525 -11.569   4.870  0.00  0.00    +0.295 HD
ENDBRANCH   7   9
ENDBRANCH   6   7
ENDBRANCH   1   6
TORSDOF 5
ENDMDL
MODEL 4
REMARK VINA RESULT:      -4.1      0.924      1.205
REMARK  Name = *****
REMARK                            x       y       z     vdW  Elec       q    Type
REMARK                         _______ _______ _______ _____ _____    ______ ____
ROOT
ATOM      1  C   LIG    1       26.582 -14.444   4.220  0.00  0.00    +0.131 C 
ENDROOT
BRANCH   1   3
ATOM      2  O   LIG    1       26.682 -14.299   1.821  0.00  0.00    -0.251 OA
ATOM      3  C   LIG    1       27.176 -14.013   2.905  0.00  0.00    +0.305 C 
BRANCH   3   4
ATOM      4  O   LIG    1       28.269 -13.233   3.022  0.00  0.00    -0.481 OA
ATOM      5  H   LIG    1       29.065 -13.706   3.360  0.00  0.00    +0.295 HD
ENDBRANCH   3   4
ENDBRANCH   1   3
BRANCH   1   6
ATOM      6  C   LIG    1       25.716 -13.345   4.816  0.00  0.00    +0.131 C 
BRANCH   6   7
ATOM      7  C   LIG    1       24.341 -13.364   4.203  0.00  0.00    +0.305 C 
ATOM      8  O   LIG    1       23.728 -14.398   3.965  0.00  0.00    -0.251 OA
BRANCH   7   9
ATOM      9  O   LIG    1       23.853 -12.139   3.930  0.00  0.00    -0.481 OA
ATOM     10  H   LIG    1       23.242 -11.783   4.605  0.00  0.00    +0.295 HD
ENDBRANCH   7   9
ENDBRANCH   6   7
ENDBRANCH   1   6
TORSDOF 5
ENDMDL
MODEL 5
REMARK VINA RESULT:      -4.0      6.605      7.669
REMARK  Name = *****
REMARK                            x       y       z     vdW  Elec       q    Type
REMARK                         _______ _______ _______ _____ _____    ______ ____
ROOT
ATOM      1  C   LIG    1       22.984 -19.433   4.501  0.00  0.00    +0.131 C 
ENDROOT
BRANCH   1   3
ATOM      2  O   LIG    1       23.120 -20.492   6.657  0.00  0.00    -0.251 OA
ATOM      3  C   LIG    1       22.695 -20.515   5.508  0.00  0.00    +0.305 C 
BRANCH   3   4
ATOM      4  O   LIG    1       21.880 -21.487   5.054  0.00  0.00    -0.481 OA
ATOM      5  H   LIG    1       21.229 -21.809   5.720  0.00  0.00    +0.295 HD
ENDBRANCH   3   4
ENDBRANCH   1   3
BRANCH   1   6
ATOM      6  C   LIG    1       23.991 -19.906   3.463  0.00  0.00    +0.131 C 
BRANCH   6   7
ATOM      7  C   LIG    1       25.334 -19.268   3.699  0.00  0.00    +0.305 C 
ATOM      8  O   LIG    1       25.587 -18.108   3.395  0.00  0.00    -0.251 OA
BRANCH   7   9
ATOM      9  O   LIG    1       26.233 -20.093   4.266  0.00  0.00    -0.481 OA
ATOM     10  H   LIG    1       26.916 -20.435   3.656  0.00  0.00    +0.295 HD
ENDBRANCH   7   9
ENDBRANCH   6   7
ENDBRANCH   1   6
TORSDOF 5
ENDMDL
MODEL 6
REMARK VINA RESULT:      -3.9      1.010      3.663
REMARK  Name = *****
REMARK                            x       y       z     vdW  Elec       q    Type
REMARK                         _______ _______ _______ _____ _____    ______ ____
ROOT
ATOM      1  C   LIG    1       24.795 -13.789   4.357  0.00  0.00    +0.131 C 
ENDROOT
BRANCH   1   3
ATOM      2  O   LIG    1       23.979 -12.221   2.727  0.00  0.00    -0.251 OA
ATOM      3  C   LIG    1       24.153 -12.504   3.905  0.00  0.00    +0.305 C 
BRANCH   3   4
ATOM      4  O   LIG    1       23.733 -11.714   4.913  0.00  0.00    -0.481 OA
ATOM      5  H   LIG    1       23.226 -10.922   4.617  0.00  0.00    +0.295 HD
ENDBRANCH   3   4
ENDBRANCH   1   3
BRANCH   1   6
ATOM      6  C   LIG    1       26.313 -13.695   4.294  0.00  0.00    +0.131 C 
BRANCH   6   7
ATOM      7  C   LIG    1       26.853 -14.579   3.202  0.00  0.00    +0.305 C 
ATOM      8  O   LIG    1       26.698 -14.341   2.009  0.00  0.00    -0.251 OA
BRANCH   7   9
ATOM      9  O   LIG    1       27.512 -15.661   3.657  0.00  0.00    -0.481 OA
ATOM     10  H   LIG    1       27.346 -16.482   3.154  0.00  0.00    +0.295 HD
ENDBRANCH   7   9
ENDBRANCH   6   7
ENDBRANCH   1   6
TORSDOF 5
ENDMDL
MODEL 7
REMARK VINA RESULT:      -3.9      1.528      3.702
REMARK  Name = *****
REMARK                            x       y       z     vdW  Elec       q    Type
REMARK                         _______ _______ _______ _____ _____    ______ ____
ROOT
ATOM      1  C   LIG    1       26.033 -13.662   2.510  0.00  0.00    +0.131 C 
ENDROOT
BRANCH   1   3
ATOM      2  O   LIG    1       24.534 -13.820   4.384  0.00  0.00    -0.251 OA
ATOM      3  C   LIG    1       24.702 -13.542   3.203  0.00  0.00    +0.305 C 
BRANCH   3   4
ATOM      4  O   LIG    1       23.718 -13.046   2.426  0.00  0.00    -0.481 OA
ATOM      5  H   LIG    1       23.228 -12.293   2.832  0.00  0.00    +0.295 HD
ENDBRANCH   3   4
ENDBRANCH   1   3
BRANCH   1   6
ATOM      6  C   LIG    1       27.034 -14.417   3.372  0.00  0.00    +0.131 C 
BRANCH   6   7
ATOM      7  C   LIG    1       27.877 -13.457   4.167  0.00  0.00    +0.305 C 
ATOM      8  O   LIG    1       28.958 -13.031   3.775  0.00  0.00    -0.251 OA
BRANCH   7   9
ATOM      9  O   LIG    1       27.340 -13.117   5.353  0.00  0.00    -0.481 OA
ATOM     10  H   LIG    1       27.977 -13.068   6.092  0.00  0.00    +0.295 HD
ENDBRANCH   7   9
ENDBRANCH   6   7
ENDBRANCH   1   6
TORSDOF 5
ENDMDL
MODEL 8
REMARK VINA RESULT:      -3.9      1.528      1.891
REMARK  Name = *****
REMARK                            x       y       z     vdW  Elec       q    Type
REMARK                         _______ _______ _______ _____ _____    ______ ____
ROOT
ATOM      1  C   LIG    1       26.957 -14.468   3.424  0.00  0.00    +0.131 C 
ENDROOT
BRANCH   1   3
ATOM      2  O   LIG    1       28.881 -13.079   3.820  0.00  0.00    -0.251 OA
ATOM      3  C   LIG    1       27.812 -13.521   4.225  0.00  0.00    +0.305 C 
BRANCH   3   4
ATOM      4  O   LIG    1       27.274 -13.154   5.404  0.00  0.00    -0.481 OA
ATOM      5  H   LIG    1       27.612 -12.295   5.750  0.00  0.00    +0.295 HD
ENDBRANCH   3   4
ENDBRANCH   1   3
BRANCH   1   6
ATOM      6  C   LIG    1       25.990 -13.708   2.529  0.00  0.00    +0.131 C 
BRANCH   6   7
ATOM      7  C   LIG    1       24.655 -13.552   3.206  0.00  0.00    +0.305 C 
ATOM      8  O   LIG    1       24.434 -13.936   4.349  0.00  0.00    -0.251 OA
BRANCH   7   9
ATOM      9  O   LIG    1       23.722 -12.961   2.436  0.00  0.00    -0.481 OA
ATOM     10  H   LIG    1       22.808 -13.028   2.775  0.00  0.00    +0.295 HD
ENDBRANCH   7   9
ENDBRANCH   6   7
ENDBRANCH   1   6
TORSDOF 5
ENDMDL
MODEL 9
REMARK VINA RESULT:      -3.9      7.225      7.595
REMARK  Name = *****
REMARK                            x       y       z     vdW  Elec       q    Type
REMARK                         _______ _______ _______ _____ _____    ______ ____
ROOT
ATOM      1  C   LIG    1       24.863 -21.133   5.396  0.00  0.00    +0.131 C 
ENDROOT
BRANCH   1   3
ATOM      2  O   LIG    1       26.402 -20.305   7.048  0.00  0.00    -0.251 OA
ATOM      3  C   LIG    1       26.141 -20.490   5.866  0.00  0.00    +0.305 C 
BRANCH   3   4
ATOM      4  O   LIG    1       27.002 -20.186   4.875  0.00  0.00    -0.481 OA
ATOM      5  H   LIG    1       26.914 -19.265   4.535  0.00  0.00    +0.295 HD
ENDBRANCH   3   4
ENDBRANCH   1   3
BRANCH   1   6
ATOM      6  C   LIG    1       23.668 -20.615   6.182  0.00  0.00    +0.131 C 
BRANCH   6   7
ATOM      7  C   LIG    1       22.522 -20.304   5.257  0.00  0.00    +0.305 C 
ATOM      8  O   LIG    1       22.255 -19.169   4.878  0.00  0.00    -0.251 OA
BRANCH   7   9
ATOM      9  O   LIG    1       21.810 -21.387   4.894  0.00  0.00    -0.481 OA
ATOM     10  H   LIG    1       21.557 -21.977   5.631  0.00  0.00    +0.295 HD
ENDBRANCH   7   9
ENDBRANCH   6   7
ENDBRANCH   1   6
TORSDOF 5
ENDMDL
