MODEL 1
REMARK VINA RESULT:      -0.7      0.000      0.000
REMARK  Name = *****
REMARK                            x       y       z     vdW  Elec       q    Type
REMARK                         _______ _______ _______ _____ _____    ______ ____
ROOT
ATOM      1  C   LIG    1       24.693 -18.311   3.414  0.00  0.00    +0.065 C 
ATOM      2  C   LIG    1       25.992 -17.483   3.318  0.00  0.00    +0.097 C 
ATOM      3  C   LIG    1       25.733 -15.977   3.517  0.00  0.00    +0.065 C 
ATOM      4  C   LIG    1       24.595 -15.564   4.134  0.00  0.00    +0.016 C 
ATOM      5  C   LIG    1       24.216 -14.132   4.408  0.00  0.00    +0.061 C 
ATOM      6  N   LIG    1       23.675 -16.508   4.566  0.00  0.00    -0.321 N 
ATOM      7  H   LIG    1       22.800 -16.142   4.937  0.00  0.00    +0.152 HD
ATOM      8  C   LIG    1       23.632 -17.816   4.101  0.00  0.00    +0.016 C 
ATOM      9  C   LIG    1       22.351 -18.543   4.430  0.00  0.00    +0.061 C 
ENDROOT
BRANCH   2  10
ATOM     10  C   LIG    1       27.046 -18.001   4.326  0.00  0.00    -0.015 A 
ATOM     11  C   LIG    1       26.857 -19.132   5.152  0.00  0.00    +0.063 A 
ATOM     12 CL   LIG    1       25.325 -19.947   5.218  0.00  0.00    -0.082 Cl
ATOM     13  C   LIG    1       27.923 -19.612   5.942  0.00  0.00    +0.059 A 
ATOM     14 CL   LIG    1       27.794 -21.035   6.926  0.00  0.00    -0.082 Cl
ATOM     15  C   LIG    1       29.157 -18.958   5.950  0.00  0.00    +0.021 A 
ATOM     16  C   LIG    1       29.338 -17.812   5.189  0.00  0.00    +0.002 A 
ATOM     17  C   LIG    1       28.298 -17.342   4.389  0.00  0.00    +0.006 A 
ENDBRANCH   2  10
BRANCH   1  18
ATOM     18  C   LIG    1       24.637 -19.603   2.680  0.00  0.00    +0.338 C 
ATOM     19  O   LIG    1       25.527 -20.047   1.965  0.00  0.00    -0.245 OA
BRANCH  18  20
ATOM     20  O   LIG    1       23.473 -20.239   2.944  0.00  0.00    -0.462 OA
BRANCH  20  22
ATOM     21  C   LIG    1       22.784 -21.571   4.836  0.00  0.00    +0.048 C 
ATOM     22  C   LIG    1       23.563 -21.545   3.534  0.00  0.00    +0.229 C 
ENDBRANCH  20  22
ENDBRANCH  18  20
ENDBRANCH   1  18
BRANCH   3  23
ATOM     23  C   LIG    1       26.788 -15.078   2.967  0.00  0.00    +0.337 C 
ATOM     24  O   LIG    1       26.794 -14.665   1.812  0.00  0.00    -0.245 OA
BRANCH  23  25
ATOM     25  O   LIG    1       27.682 -14.748   3.921  0.00  0.00    -0.465 OA
ATOM     26  C   LIG    1       28.287 -13.453   3.879  0.00  0.00    +0.280 C 
ENDBRANCH  23  25
ENDBRANCH   3  23
TORSDOF 6
ENDMDL
MODEL 2
REMARK VINA RESULT:       1.5      2.303      5.903
REMARK  Name = *****
REMARK                            x       y       z     vdW  Elec       q    Type
REMARK                         _______ _______ _______ _____ _____    ______ ____
ROOT
ATOM      1  C   LIG    1       26.524 -14.657   3.265  0.00  0.00    +0.065 C 
ATOM      2  C   LIG    1       25.818 -16.027   3.199  0.00  0.00    +0.097 C 
ATOM      3  C   LIG    1       26.710 -17.163   3.739  0.00  0.00    +0.065 C 
ATOM      4  C   LIG    1       27.756 -16.869   4.555  0.00  0.00    +0.016 C 
ATOM      5  C   LIG    1       28.700 -17.871   5.165  0.00  0.00    +0.061 C 
ATOM      6  N   LIG    1       28.014 -15.545   4.879  0.00  0.00    -0.321 N 
ATOM      7  H   LIG    1       28.862 -15.374   5.416  0.00  0.00    +0.152 HD
ATOM      8  C   LIG    1       27.529 -14.463   4.157  0.00  0.00    +0.016 C 
ATOM      9  C   LIG    1       28.220 -13.157   4.468  0.00  0.00    +0.061 C 
ENDROOT
BRANCH   2  10
ATOM     10  C   LIG    1       24.465 -15.982   3.949  0.00  0.00    -0.015 A 
ATOM     11  C   LIG    1       23.518 -17.032   3.929  0.00  0.00    +0.063 A 
ATOM     12 CL   LIG    1       23.735 -18.414   2.901  0.00  0.00    -0.082 Cl
ATOM     13  C   LIG    1       22.373 -16.962   4.750  0.00  0.00    +0.059 A 
ATOM     14 CL   LIG    1       21.202 -18.239   4.837  0.00  0.00    -0.082 Cl
ATOM     15  C   LIG    1       22.140 -15.847   5.558  0.00  0.00    +0.021 A 
ATOM     16  C   LIG    1       23.032 -14.784   5.544  0.00  0.00    +0.002 A 
ATOM     17  C   LIG    1       24.177 -14.852   4.751  0.00  0.00    +0.006 A 
ENDBRANCH   2  10
BRANCH   1  18
ATOM     18  C   LIG    1       26.112 -13.615   2.286  0.00  0.00    +0.338 C 
ATOM     19  O   LIG    1       26.853 -12.762   1.812  0.00  0.00    -0.245 OA
BRANCH  18  20
ATOM     20  O   LIG    1       24.807 -13.767   1.964  0.00  0.00    -0.462 OA
BRANCH  20  22
ATOM     21  C   LIG    1       23.851 -11.907   3.168  0.00  0.00    +0.048 C 
ATOM     22  C   LIG    1       24.028 -12.571   1.816  0.00  0.00    +0.229 C 
ENDBRANCH  20  22
ENDBRANCH  18  20
ENDBRANCH   1  18
BRANCH   3  23
ATOM     23  C   LIG    1       26.338 -18.530   3.275  0.00  0.00    +0.337 C 
ATOM     24  O   LIG    1       26.062 -18.801   2.111  0.00  0.00    -0.245 OA
BRANCH  23  25
ATOM     25  O   LIG    1       26.405 -19.416   4.290  0.00  0.00    -0.465 OA
ATOM     26  C   LIG    1       25.359 -20.381   4.431  0.00  0.00    +0.280 C 
ENDBRANCH  23  25
ENDBRANCH   3  23
TORSDOF 6
ENDMDL
MODEL 3
REMARK VINA RESULT:       1.7      2.730      6.035
REMARK  Name = *****
REMARK                            x       y       z     vdW  Elec       q    Type
REMARK                         _______ _______ _______ _____ _____    ______ ____
ROOT
ATOM      1  C   LIG    1       25.303 -19.746   4.915  0.00  0.00    +0.065 C 
ATOM      2  C   LIG    1       23.921 -19.361   4.348  0.00  0.00    +0.097 C 
ATOM      3  C   LIG    1       22.783 -20.167   5.004  0.00  0.00    +0.065 C 
ATOM      4  C   LIG    1       22.987 -20.766   6.206  0.00  0.00    +0.016 C 
ATOM      5  C   LIG    1       21.967 -21.571   6.969  0.00  0.00    +0.061 C 
ATOM      6  N   LIG    1       24.226 -20.654   6.820  0.00  0.00    -0.321 N 
ATOM      7  H   LIG    1       24.353 -21.197   7.672  0.00  0.00    +0.152 HD
ATOM      8  C   LIG    1       25.390 -20.296   6.154  0.00  0.00    +0.016 C 
ATOM      9  C   LIG    1       26.654 -20.586   6.926  0.00  0.00    +0.061 C 
ENDROOT
BRANCH   2  10
ATOM     10  C   LIG    1       23.675 -17.840   4.489  0.00  0.00    -0.015 A 
ATOM     11  C   LIG    1       24.461 -16.852   3.854  0.00  0.00    +0.063 A 
ATOM     12 CL   LIG    1       25.899 -17.278   2.979  0.00  0.00    -0.082 Cl
ATOM     13  C   LIG    1       24.082 -15.495   3.929  0.00  0.00    +0.059 A 
ATOM     14 CL   LIG    1       24.952 -14.233   3.118  0.00  0.00    -0.082 Cl
ATOM     15  C   LIG    1       22.957 -15.108   4.660  0.00  0.00    +0.021 A 
ATOM     16  C   LIG    1       22.209 -16.061   5.338  0.00  0.00    +0.002 A 
ATOM     17  C   LIG    1       22.564 -17.407   5.252  0.00  0.00    +0.006 A 
ENDBRANCH   2  10
BRANCH   1  18
ATOM     18  C   LIG    1       26.491 -19.558   4.040  0.00  0.00    +0.338 C 
ATOM     19  O   LIG    1       26.456 -19.419   2.824  0.00  0.00    -0.245 OA
BRANCH  18  20
ATOM     20  O   LIG    1       27.619 -19.524   4.786  0.00  0.00    -0.462 OA
BRANCH  20  22
ATOM     21  C   LIG    1       29.472 -18.390   5.839  0.00  0.00    +0.048 C 
ATOM     22  C   LIG    1       28.289 -18.259   4.898  0.00  0.00    +0.229 C 
ENDBRANCH  20  22
ENDBRANCH  18  20
ENDBRANCH   1  18
BRANCH   3  23
ATOM     23  C   LIG    1       21.522 -20.237   4.211  0.00  0.00    +0.337 C 
ATOM     24  O   LIG    1       20.840 -21.251   4.106  0.00  0.00    -0.245 OA
BRANCH  23  25
ATOM     25  O   LIG    1       21.218 -19.032   3.687  0.00  0.00    -0.465 OA
ATOM     26  C   LIG    1       19.867 -18.773   3.294  0.00  0.00    +0.280 C 
ENDBRANCH  23  25
ENDBRANCH   3  23
TORSDOF 6
ENDMDL
MODEL 4
REMARK VINA RESULT:       1.8      2.722      6.216
REMARK  Name = *****
REMARK                            x       y       z     vdW  Elec       q    Type
REMARK                         _______ _______ _______ _____ _____    ______ ____
ROOT
ATOM      1  C   LIG    1       26.479 -14.704   3.256  0.00  0.00    +0.065 C 
ATOM      2  C   LIG    1       25.713 -16.042   3.215  0.00  0.00    +0.097 C 
ATOM      3  C   LIG    1       26.594 -17.226   3.657  0.00  0.00    +0.065 C 
ATOM      4  C   LIG    1       27.712 -16.996   4.395  0.00  0.00    +0.016 C 
ATOM      5  C   LIG    1       28.657 -18.052   4.907  0.00  0.00    +0.061 C 
ATOM      6  N   LIG    1       28.050 -15.693   4.728  0.00  0.00    -0.321 N 
ATOM      7  H   LIG    1       28.944 -15.571   5.202  0.00  0.00    +0.152 HD
ATOM      8  C   LIG    1       27.558 -14.574   4.072  0.00  0.00    +0.016 C 
ATOM      9  C   LIG    1       28.325 -13.306   4.357  0.00  0.00    +0.061 C 
ENDROOT
BRANCH   2  10
ATOM     10  C   LIG    1       24.425 -15.962   4.069  0.00  0.00    -0.015 A 
ATOM     11  C   LIG    1       24.082 -14.852   4.875  0.00  0.00    +0.063 A 
ATOM     12 CL   LIG    1       25.189 -13.534   5.101  0.00  0.00    -0.082 Cl
ATOM     13  C   LIG    1       22.824 -14.808   5.513  0.00  0.00    +0.059 A 
ATOM     14 CL   LIG    1       22.300 -13.451   6.458  0.00  0.00    -0.082 Cl
ATOM     15  C   LIG    1       21.924 -15.868   5.391  0.00  0.00    +0.021 A 
ATOM     16  C   LIG    1       22.271 -16.990   4.651  0.00  0.00    +0.002 A 
ATOM     17  C   LIG    1       23.503 -17.034   4.000  0.00  0.00    +0.006 A 
ENDBRANCH   2  10
BRANCH   1  18
ATOM     18  C   LIG    1       26.038 -13.621   2.337  0.00  0.00    +0.338 C 
ATOM     19  O   LIG    1       26.778 -12.797   1.812  0.00  0.00    -0.245 OA
BRANCH  18  20
ATOM     20  O   LIG    1       24.704 -13.698   2.132  0.00  0.00    -0.462 OA
BRANCH  20  22
ATOM     21  C   LIG    1       23.813 -11.663   3.076  0.00  0.00    +0.048 C 
ATOM     22  C   LIG    1       24.021 -12.477   1.812  0.00  0.00    +0.229 C 
ENDBRANCH  20  22
ENDBRANCH  18  20
ENDBRANCH   1  18
BRANCH   3  23
ATOM     23  C   LIG    1       26.131 -18.565   3.193  0.00  0.00    +0.337 C 
ATOM     24  O   LIG    1       25.837 -18.816   2.029  0.00  0.00    -0.245 OA
BRANCH  23  25
ATOM     25  O   LIG    1       26.137 -19.454   4.207  0.00  0.00    -0.465 OA
ATOM     26  C   LIG    1       24.956 -20.220   4.458  0.00  0.00    +0.280 C 
ENDBRANCH  23  25
ENDBRANCH   3  23
TORSDOF 6
ENDMDL
