MODEL 1
REMARK VINA RESULT:      -3.6      0.000      0.000
REMARK  Name = *****
REMARK                            x       y       z     vdW  Elec       q    Type
REMARK                         _______ _______ _______ _____ _____    ______ ____
ROOT
ATOM      1  O   LIG    1       22.007 -20.328   4.441  0.00  0.00    -0.271 OA
ATOM      2  C   LIG    1       22.993 -19.687   4.068  0.00  0.00    +0.269 C 
ATOM      3  C   LIG    1       24.117 -20.293   3.185  0.00  0.00    +0.320 C 
ATOM      4  N   LIG    1       25.334 -20.348   3.977  0.00  0.00    -0.243 NA
ATOM      5  C   LIG    1       25.933 -19.250   4.293  0.00  0.00    +0.078 C 
ATOM      6  C   LIG    1       25.468 -17.878   3.919  0.00  0.00    +0.023 A 
ATOM      7  C   LIG    1       24.128 -17.479   4.069  0.00  0.00    +0.043 A 
ATOM      8  C   LIG    1       23.797 -16.125   3.924  0.00  0.00    +0.025 A 
ATOM      9  C   LIG    1       24.766 -15.192   3.550  0.00  0.00    +0.022 A 
ATOM     10  C   LIG    1       26.076 -15.606   3.332  0.00  0.00    +0.042 A 
ATOM     11 CL   LIG    1       27.267 -14.460   2.861  0.00  0.00    -0.084 Cl
ATOM     12  C   LIG    1       26.434 -16.939   3.518  0.00  0.00    +0.032 A 
ATOM     13  N   LIG    1       23.072 -18.350   4.372  0.00  0.00    -0.281 N 
ATOM     14  H   LIG    1       22.204 -17.977   4.736  0.00  0.00    +0.155 HD
ENDROOT
BRANCH   5  15
ATOM     15  C   LIG    1       27.180 -19.380   5.114  0.00  0.00    +0.001 A 
ATOM     16  C   LIG    1       28.273 -18.527   4.914  0.00  0.00    +0.010 A 
ATOM     17  C   LIG    1       29.420 -18.672   5.696  0.00  0.00    +0.001 A 
ATOM     18  C   LIG    1       29.475 -19.656   6.683  0.00  0.00    +0.000 A 
ATOM     19  C   LIG    1       28.380 -20.493   6.898  0.00  0.00    +0.001 A 
ATOM     20  C   LIG    1       27.232 -20.354   6.118  0.00  0.00    +0.010 A 
ENDBRANCH   5  15
BRANCH   3  21
ATOM     21  O   LIG    1       23.735 -21.572   2.706  0.00  0.00    -0.364 OA
ATOM     22  H   LIG    1       23.694 -21.452   1.741  0.00  0.00    +0.212 HD
ENDBRANCH   3  21
TORSDOF 2
ENDMDL
MODEL 2
REMARK VINA RESULT:      -0.8      3.100      5.135
REMARK  Name = *****
REMARK                            x       y       z     vdW  Elec       q    Type
REMARK                         _______ _______ _______ _____ _____    ______ ____
ROOT
ATOM      1  O   LIG    1       26.128 -20.937   6.255  0.00  0.00    -0.271 OA
ATOM      2  C   LIG    1       25.362 -20.424   5.437  0.00  0.00    +0.269 C 
ATOM      3  C   LIG    1       25.812 -19.955   4.026  0.00  0.00    +0.320 C 
ATOM      4  N   LIG    1       25.704 -18.508   3.974  0.00  0.00    -0.243 NA
ATOM      5  C   LIG    1       24.536 -17.960   3.975  0.00  0.00    +0.078 C 
ATOM      6  C   LIG    1       23.238 -18.702   4.042  0.00  0.00    +0.023 A 
ATOM      7  C   LIG    1       23.022 -19.744   4.959  0.00  0.00    +0.043 A 
ATOM      8  C   LIG    1       21.724 -20.244   5.135  0.00  0.00    +0.025 A 
ATOM      9  C   LIG    1       20.670 -19.776   4.348  0.00  0.00    +0.022 A 
ATOM     10  C   LIG    1       20.905 -18.796   3.390  0.00  0.00    +0.042 A 
ATOM     11 CL   LIG    1       19.609 -18.227   2.414  0.00  0.00    -0.084 Cl
ATOM     12  C   LIG    1       22.178 -18.253   3.235  0.00  0.00    +0.032 A 
ATOM     13  N   LIG    1       24.026 -20.330   5.743  0.00  0.00    -0.281 N 
ATOM     14  H   LIG    1       23.773 -20.863   6.565  0.00  0.00    +0.155 HD
ENDROOT
BRANCH   5  15
ATOM     15  C   LIG    1       24.498 -16.463   3.923  0.00  0.00    +0.001 A 
ATOM     16  C   LIG    1       23.410 -15.745   4.436  0.00  0.00    +0.010 A 
ATOM     17  C   LIG    1       23.406 -14.350   4.376  0.00  0.00    +0.001 A 
ATOM     18  C   LIG    1       24.488 -13.671   3.816  0.00  0.00    +0.000 A 
ATOM     19  C   LIG    1       25.582 -14.382   3.324  0.00  0.00    +0.001 A 
ATOM     20  C   LIG    1       25.591 -15.776   3.381  0.00  0.00    +0.010 A 
ENDBRANCH   5  15
BRANCH   3  21
ATOM     21  O   LIG    1       27.130 -20.402   3.754  0.00  0.00    -0.364 OA
ATOM     22  H   LIG    1       27.536 -20.468   4.636  0.00  0.00    +0.212 HD
ENDBRANCH   3  21
TORSDOF 2
ENDMDL
