MODEL 1
REMARK VINA RESULT:      16.7      0.000      0.000
REMARK  Name = *****
REMARK                            x       y       z     vdW  Elec       q    Type
REMARK                         _______ _______ _______ _____ _____    ______ ____
ROOT
ATOM      1  C   LIG    1       27.407 -15.382   4.779  0.00  0.00    +0.013 C 
ATOM      2  C   LIG    1       26.370 -15.200   3.942  0.00  0.00    -0.036 C 
ATOM      3  C   LIG    1       25.230 -16.173   3.637  0.00  0.00    +0.085 C 
ATOM      4  C   LIG    1       23.919 -15.547   4.058  0.00  0.00    +0.050 C 
ATOM      5  C   LIG    1       22.926 -16.251   4.638  0.00  0.00    +0.141 C 
ATOM      6  C   LIG    1       23.006 -17.744   4.842  0.00  0.00    +0.189 C 
ATOM      7  C   LIG    1       24.111 -18.436   4.019  0.00  0.00    +0.089 C 
ATOM      8  C   LIG    1       24.239 -19.968   4.357  0.00  0.00    +0.133 C 
ATOM      9  C   LIG    1       23.059 -20.449   5.256  0.00  0.00    +0.170 C 
ATOM     10  O   LIG    1       23.239 -21.287   6.149  0.00  0.00    -0.294 OA
ATOM     11  C   LIG    1       21.668 -19.908   4.992  0.00  0.00    +0.211 C 
ATOM     12  C   LIG    1       21.723 -18.505   4.451  0.00  0.00    +0.192 C 
ATOM     13  O   LIG    1       20.813 -18.025   3.776  0.00  0.00    -0.293 OA
ATOM     14  C   LIG    1       23.779 -14.062   3.892  0.00  0.00    +0.197 C 
ATOM     15  O   LIG    1       22.793 -13.484   4.343  0.00  0.00    -0.287 OA
ATOM     16  C   LIG    1       24.889 -13.341   3.212  0.00  0.00    +0.071 A 
ATOM     17  C   LIG    1       24.682 -12.121   2.554  0.00  0.00    +0.128 A 
ATOM     18  C   LIG    1       25.751 -11.451   1.957  0.00  0.00    +0.046 A 
ATOM     19  C   LIG    1       27.032 -12.000   2.010  0.00  0.00    +0.004 A 
ATOM     20  C   LIG    1       27.247 -13.216   2.659  0.00  0.00    +0.009 A 
ATOM     21  C   LIG    1       25.417 -17.620   4.201  0.00  0.00    +0.135 C 
ATOM     22  C   LIG    1       26.182 -13.894   3.270  0.00  0.00    -0.007 A 
ENDROOT
BRANCH  11  23
ATOM     23  C   LIG    1       20.813 -20.823   4.159  0.00  0.00    +0.228 C 
ATOM     24  O   LIG    1       19.599 -20.936   4.261  0.00  0.00    -0.275 OA
ATOM     25  N   LIG    1       21.486 -21.571   3.228  0.00  0.00    -0.328 N 
ATOM     26  H   LIG    1       22.475 -21.766   3.323  0.00  0.00    +0.145 HD
ATOM     27  H   LIG    1       20.931 -22.264   2.739  0.00  0.00    +0.145 HD
ENDBRANCH  11  23
BRANCH   8  28
ATOM     28  N   LIG    1       24.300 -20.864   3.160  0.00  0.00    -0.299 NA
ATOM     29  C   LIG    1       24.071 -20.174   1.888  0.00  0.00    +0.105 C 
ATOM     30  C   LIG    1       25.602 -21.553   3.060  0.00  0.00    +0.105 C 
ENDBRANCH   8  28
BRANCH   5  31
ATOM     31  O   LIG    1       21.814 -15.662   5.222  0.00  0.00    -0.507 OA
ATOM     32  H   LIG    1       21.712 -16.030   6.133  0.00  0.00    +0.292 HD
ENDBRANCH   5  31
BRANCH   6  33
ATOM     33  O   LIG    1       23.246 -17.913   6.243  0.00  0.00    -0.373 OA
ATOM     34  H   LIG    1       23.109 -18.866   6.426  0.00  0.00    +0.211 HD
ENDBRANCH   6  33
BRANCH  17  35
ATOM     35  O   LIG    1       23.429 -11.589   2.450  0.00  0.00    -0.506 OA
ATOM     36  H   LIG    1       22.787 -12.283   2.227  0.00  0.00    +0.292 HD
ENDBRANCH  17  35
BRANCH  21  37
ATOM     37  O   LIG    1       26.493 -18.260   3.515  0.00  0.00    -0.390 OA
ATOM     38  H   LIG    1       26.875 -17.635   2.874  0.00  0.00    +0.210 HD
ENDBRANCH  21  37
TORSDOF 6
ENDMDL
MODEL 2
REMARK VINA RESULT:      17.9      3.075      7.749
REMARK  Name = *****
REMARK                            x       y       z     vdW  Elec       q    Type
REMARK                         _______ _______ _______ _____ _____    ______ ____
ROOT
ATOM      1  C   LIG    1       22.343 -17.683   6.232  0.00  0.00    +0.013 C 
ATOM      2  C   LIG    1       22.874 -17.835   5.007  0.00  0.00    -0.036 C 
ATOM      3  C   LIG    1       23.718 -16.831   4.220  0.00  0.00    +0.085 C 
ATOM      4  C   LIG    1       25.090 -17.421   3.974  0.00  0.00    +0.050 C 
ATOM      5  C   LIG    1       26.221 -16.690   4.036  0.00  0.00    +0.141 C 
ATOM      6  C   LIG    1       26.209 -15.200   4.273  0.00  0.00    +0.189 C 
ATOM      7  C   LIG    1       24.832 -14.538   4.069  0.00  0.00    +0.089 C 
ATOM      8  C   LIG    1       24.839 -13.010   4.448  0.00  0.00    +0.133 C 
ATOM      9  C   LIG    1       26.291 -12.498   4.701  0.00  0.00    +0.170 C 
ATOM     10  O   LIG    1       26.527 -11.666   5.587  0.00  0.00    -0.294 OA
ATOM     11  C   LIG    1       27.411 -13.000   3.814  0.00  0.00    +0.211 C 
ATOM     12  C   LIG    1       27.144 -14.404   3.341  0.00  0.00    +0.192 C 
ATOM     13  O   LIG    1       27.647 -14.857   2.314  0.00  0.00    -0.293 OA
ATOM     14  C   LIG    1       25.172 -18.901   3.742  0.00  0.00    +0.197 C 
ATOM     15  O   LIG    1       26.268 -19.452   3.674  0.00  0.00    -0.287 OA
ATOM     16  C   LIG    1       23.890 -19.652   3.646  0.00  0.00    +0.071 A 
ATOM     17  C   LIG    1       23.795 -20.865   2.951  0.00  0.00    +0.128 A 
ATOM     18  C   LIG    1       22.588 -21.563   2.911  0.00  0.00    +0.046 A 
ATOM     19  C   LIG    1       21.467 -21.050   3.561  0.00  0.00    +0.004 A 
ATOM     20  C   LIG    1       21.549 -19.841   4.252  0.00  0.00    +0.009 A 
ATOM     21  C   LIG    1       23.781 -15.390   4.826  0.00  0.00    +0.135 C 
ATOM     22  C   LIG    1       22.759 -19.134   4.307  0.00  0.00    -0.007 A 
ENDROOT
BRANCH  11  23
ATOM     23  C   LIG    1       27.758 -12.061   2.691  0.00  0.00    +0.228 C 
ATOM     24  O   LIG    1       28.852 -11.540   2.523  0.00  0.00    -0.275 OA
ATOM     25  N   LIG    1       26.741 -11.793   1.812  0.00  0.00    -0.328 N 
ATOM     26  H   LIG    1       25.771 -11.915   2.075  0.00  0.00    +0.145 HD
ATOM     27  H   LIG    1       26.937 -11.082   1.118  0.00  0.00    +0.145 HD
ENDBRANCH  11  23
BRANCH   8  28
ATOM     28  N   LIG    1       24.207 -12.115   3.429  0.00  0.00    -0.299 NA
ATOM     29  C   LIG    1       23.817 -12.801   2.195  0.00  0.00    +0.105 C 
ATOM     30  C   LIG    1       23.003 -11.447   3.962  0.00  0.00    +0.105 C 
ENDBRANCH   8  28
BRANCH   5  31
ATOM     31  O   LIG    1       27.490 -17.249   4.027  0.00  0.00    -0.507 OA
ATOM     32  H   LIG    1       27.436 -18.132   3.585  0.00  0.00    +0.292 HD
ENDBRANCH   5  31
BRANCH   6  33
ATOM     33  O   LIG    1       26.645 -15.039   5.627  0.00  0.00    -0.373 OA
ATOM     34  H   LIG    1       26.998 -14.127   5.689  0.00  0.00    +0.211 HD
ENDBRANCH   6  33
BRANCH  17  35
ATOM     35  O   LIG    1       24.869 -21.362   2.269  0.00  0.00    -0.506 OA
ATOM     36  H   LIG    1       25.635 -21.442   2.861  0.00  0.00    +0.292 HD
ENDBRANCH  17  35
BRANCH  21  37
ATOM     37  O   LIG    1       22.494 -14.779   4.727  0.00  0.00    -0.390 OA
ATOM     38  H   LIG    1       22.391 -14.401   3.837  0.00  0.00    +0.210 HD
ENDBRANCH  21  37
TORSDOF 6
ENDMDL
