MODEL 1
REMARK VINA RESULT:      -2.5      0.000      0.000
REMARK  Name = *****
REMARK                            x       y       z     vdW  Elec       q    Type
REMARK                         _______ _______ _______ _____ _____    ______ ____
ROOT
ATOM      1  C   LIG    1       25.466 -14.363   3.587  0.00  0.00    +0.130 C 
ATOM      2  C   LIG    1       24.173 -14.473   4.385  0.00  0.00    +0.238 C 
ATOM      3  O   LIG    1       23.687 -13.515   4.980  0.00  0.00    -0.274 OA
ATOM      4  N   LIG    1       23.494 -15.680   4.328  0.00  0.00    -0.228 N 
ATOM      5  C   LIG    1       22.159 -15.703   4.912  0.00  0.00    +0.143 C 
ATOM      6  C   LIG    1       24.056 -16.891   3.956  0.00  0.00    +0.317 C 
ATOM      7  O   LIG    1       23.453 -17.954   4.063  0.00  0.00    -0.252 OA
ATOM      8  N   LIG    1       25.360 -16.842   3.479  0.00  0.00    -0.228 N 
ATOM      9  C   LIG    1       25.954 -18.129   3.144  0.00  0.00    +0.143 C 
ATOM     10  C   LIG    1       26.158 -15.715   3.438  0.00  0.00    +0.238 C 
ATOM     11  O   LIG    1       27.373 -15.791   3.200  0.00  0.00    -0.274 OA
ENDROOT
BRANCH   1  12
ATOM     12  C   LIG    1       26.461 -13.323   4.258  0.00  0.00    +0.010 C 
ATOM     13  C   LIG    1       26.970 -13.729   5.656  0.00  0.00    +0.009 C 
BRANCH  12  14
ATOM     14  C   LIG    1       27.658 -12.996   3.316  0.00  0.00    +0.001 C 
ATOM     15  C   LIG    1       28.966 -12.672   4.031  0.00  0.00    +0.004 C 
ENDBRANCH  12  14
ENDBRANCH   1  12
BRANCH   1  16
ATOM     16  C   LIG    1       25.038 -13.934   2.138  0.00  0.00    +0.052 C 
BRANCH  16  18
ATOM     17  C   LIG    1       24.551 -11.465   1.821  0.00  0.00    +0.004 C 
ATOM     18  C   LIG    1       24.136 -12.725   2.009  0.00  0.00    -0.033 C 
ENDBRANCH  16  18
ENDBRANCH   1  16
TORSDOF 4
ENDMDL
MODEL 2
REMARK VINA RESULT:      -0.4      1.028      1.325
REMARK  Name = *****
REMARK                            x       y       z     vdW  Elec       q    Type
REMARK                         _______ _______ _______ _____ _____    ______ ____
ROOT
ATOM      1  C   LIG    1       26.125 -14.616   3.557  0.00  0.00    +0.130 C 
ATOM      2  C   LIG    1       25.024 -14.104   4.479  0.00  0.00    +0.238 C 
ATOM      3  O   LIG    1       25.094 -13.014   5.041  0.00  0.00    -0.274 OA
ATOM      4  N   LIG    1       23.875 -14.872   4.579  0.00  0.00    -0.228 N 
ATOM      5  C   LIG    1       22.751 -14.270   5.285  0.00  0.00    +0.143 C 
ATOM      6  C   LIG    1       23.786 -16.216   4.252  0.00  0.00    +0.317 C 
ATOM      7  O   LIG    1       22.787 -16.885   4.497  0.00  0.00    -0.252 OA
ATOM      8  N   LIG    1       24.905 -16.778   3.653  0.00  0.00    -0.228 N 
ATOM      9  C   LIG    1       24.815 -18.203   3.365  0.00  0.00    +0.143 C 
ATOM     10  C   LIG    1       26.114 -16.138   3.450  0.00  0.00    +0.238 C 
ATOM     11  O   LIG    1       27.127 -16.765   3.106  0.00  0.00    -0.274 OA
ENDROOT
BRANCH   1  12
ATOM     12  C   LIG    1       27.552 -14.125   4.050  0.00  0.00    +0.010 C 
ATOM     13  C   LIG    1       28.336 -13.287   3.020  0.00  0.00    +0.009 C 
BRANCH  12  14
ATOM     14  C   LIG    1       27.453 -13.367   5.407  0.00  0.00    +0.001 C 
ATOM     15  C   LIG    1       28.456 -12.231   5.581  0.00  0.00    +0.004 C 
ENDBRANCH  12  14
ENDBRANCH   1  12
BRANCH   1  16
ATOM     16  C   LIG    1       25.767 -14.078   2.126  0.00  0.00    +0.052 C 
BRANCH  16  18
ATOM     17  C   LIG    1       24.859 -11.729   1.823  0.00  0.00    +0.004 C 
ATOM     18  C   LIG    1       24.670 -13.040   2.028  0.00  0.00    -0.033 C 
ENDBRANCH  16  18
ENDBRANCH   1  16
TORSDOF 4
ENDMDL
MODEL 3
REMARK VINA RESULT:       0.1      3.036      6.377
REMARK  Name = *****
REMARK                            x       y       z     vdW  Elec       q    Type
REMARK                         _______ _______ _______ _____ _____    ______ ____
ROOT
ATOM      1  C   LIG    1       22.763 -18.883   4.262  0.00  0.00    +0.130 C 
ATOM      2  C   LIG    1       24.156 -19.330   3.834  0.00  0.00    +0.238 C 
ATOM      3  O   LIG    1       24.493 -20.511   3.834  0.00  0.00    -0.274 OA
ATOM      4  N   LIG    1       25.008 -18.358   3.335  0.00  0.00    -0.228 N 
ATOM      5  C   LIG    1       26.248 -18.829   2.730  0.00  0.00    +0.143 C 
ATOM      6  C   LIG    1       24.872 -16.996   3.551  0.00  0.00    +0.317 C 
ATOM      7  O   LIG    1       25.733 -16.190   3.212  0.00  0.00    -0.252 OA
ATOM      8  N   LIG    1       23.715 -16.589   4.202  0.00  0.00    -0.228 N 
ATOM      9  C   LIG    1       23.613 -15.161   4.469  0.00  0.00    +0.143 C 
ATOM     10  C   LIG    1       22.752 -17.430   4.728  0.00  0.00    +0.238 C 
ATOM     11  O   LIG    1       21.860 -17.003   5.476  0.00  0.00    -0.274 OA
ENDROOT
BRANCH   1  12
ATOM     12  C   LIG    1       22.194 -19.818   5.412  0.00  0.00    +0.010 C 
ATOM     13  C   LIG    1       21.605 -21.156   4.921  0.00  0.00    +0.009 C 
BRANCH  12  14
ATOM     14  C   LIG    1       23.260 -20.065   6.520  0.00  0.00    +0.001 C 
ATOM     15  C   LIG    1       23.305 -21.491   7.059  0.00  0.00    +0.004 C 
ENDBRANCH  12  14
ENDBRANCH   1  12
BRANCH   1  16
ATOM     16  C   LIG    1       21.883 -18.927   2.962  0.00  0.00    +0.052 C 
BRANCH  16  18
ATOM     17  C   LIG    1       19.355 -18.730   3.004  0.00  0.00    +0.004 C 
ATOM     18  C   LIG    1       20.573 -18.171   2.983  0.00  0.00    -0.033 C 
ENDBRANCH  16  18
ENDBRANCH   1  16
TORSDOF 4
ENDMDL
MODEL 4
REMARK VINA RESULT:       0.5      0.719      3.585
REMARK  Name = *****
REMARK                            x       y       z     vdW  Elec       q    Type
REMARK                         _______ _______ _______ _____ _____    ______ ____
ROOT
ATOM      1  C   LIG    1       25.518 -14.355   4.002  0.00  0.00    +0.130 C 
ATOM      2  C   LIG    1       25.980 -15.621   3.291  0.00  0.00    +0.238 C 
ATOM      3  O   LIG    1       26.965 -15.639   2.558  0.00  0.00    -0.274 OA
ATOM      4  N   LIG    1       25.306 -16.796   3.586  0.00  0.00    -0.228 N 
ATOM      5  C   LIG    1       25.890 -18.028   3.072  0.00  0.00    +0.143 C 
ATOM      6  C   LIG    1       24.037 -16.866   4.139  0.00  0.00    +0.317 C 
ATOM      7  O   LIG    1       23.426 -17.924   4.245  0.00  0.00    -0.252 OA
ATOM      8  N   LIG    1       23.477 -15.662   4.545  0.00  0.00    -0.228 N 
ATOM      9  C   LIG    1       22.122 -15.746   5.075  0.00  0.00    +0.143 C 
ATOM     10  C   LIG    1       24.035 -14.411   4.355  0.00  0.00    +0.238 C 
ATOM     11  O   LIG    1       23.382 -13.376   4.552  0.00  0.00    -0.274 OA
ENDROOT
BRANCH   1  12
ATOM     12  C   LIG    1       25.809 -13.068   3.119  0.00  0.00    +0.010 C 
ATOM     13  C   LIG    1       27.223 -13.015   2.506  0.00  0.00    +0.009 C 
BRANCH  12  14
ATOM     14  C   LIG    1       24.728 -12.884   2.014  0.00  0.00    +0.001 C 
ATOM     15  C   LIG    1       24.256 -11.447   1.813  0.00  0.00    +0.004 C 
ENDBRANCH  12  14
ENDBRANCH   1  12
BRANCH   1  16
ATOM     16  C   LIG    1       26.289 -14.331   5.370  0.00  0.00    +0.052 C 
BRANCH  16  18
ATOM     17  C   LIG    1       28.256 -12.755   5.654  0.00  0.00    +0.004 C 
ATOM     18  C   LIG    1       26.950 -13.030   5.773  0.00  0.00    -0.033 C 
ENDBRANCH  16  18
ENDBRANCH   1  16
TORSDOF 4
ENDMDL
