MODEL 1
REMARK VINA RESULT:      -4.5      0.000      0.000
REMARK  Name = *****
REMARK                            x       y       z     vdW  Elec       q    Type
REMARK                         _______ _______ _______ _____ _____    ______ ____
ROOT
ATOM      1  C   LIG    1       24.685 -20.839   5.268  0.00  0.00    +0.216 A 
ATOM      2  N   LIG    1       25.632 -21.386   6.045  0.00  0.00    -0.213 NA
ATOM      3  C   LIG    1       26.846 -20.837   6.073  0.00  0.00    +0.075 A 
ATOM      4  C   LIG    1       27.216 -19.702   5.312  0.00  0.00    +0.013 A 
ATOM      5  C   LIG    1       28.539 -19.207   5.490  0.00  0.00    +0.011 A 
ATOM      6  C   LIG    1       29.455 -19.836   6.336  0.00  0.00    +0.001 A 
ATOM      7  C   LIG    1       29.066 -20.950   7.062  0.00  0.00    +0.002 A 
ATOM      8  C   LIG    1       26.201 -19.158   4.472  0.00  0.00    +0.051 A 
ATOM      9  C   LIG    1       27.766 -21.430   6.926  0.00  0.00    +0.028 A 
ATOM     10  C   LIG    1       24.924 -19.747   4.457  0.00  0.00    +0.081 A 
ENDROOT
BRANCH   8  11
ATOM     11  C   LIG    1       26.339 -17.927   3.624  0.00  0.00    +0.245 C 
ATOM     12  N   LIG    1       26.959 -16.813   4.156  0.00  0.00    -0.310 N 
ATOM     13  H   LIG    1       27.406 -16.867   5.057  0.00  0.00    +0.149 HD
ATOM     14  O   LIG    1       25.950 -17.960   2.458  0.00  0.00    -0.270 OA
BRANCH  12  15
ATOM     15  C   LIG    1       27.168 -15.597   3.378  0.00  0.00    +0.120 C 
BRANCH  15  16
ATOM     16  C   LIG    1       25.887 -14.793   3.033  0.00  0.00    +0.103 C 
BRANCH  16  17
ATOM     17  N   LIG    1       25.742 -13.440   3.633  0.00  0.00    -0.301 NA
BRANCH  17  18
ATOM     18  C   LIG    1       26.585 -13.324   4.846  0.00  0.00    +0.081 C 
ATOM     19  C   LIG    1       28.039 -12.888   4.649  0.00  0.00    +0.020 C 
ENDBRANCH  17  18
BRANCH  17  20
ATOM     20  C   LIG    1       24.332 -13.083   3.867  0.00  0.00    +0.081 C 
ATOM     21  C   LIG    1       24.097 -12.099   5.015  0.00  0.00    +0.020 C 
ENDBRANCH  17  20
ENDBRANCH  16  17
ENDBRANCH  15  16
ENDBRANCH  12  15
ENDBRANCH   8  11
BRANCH   1  22
ATOM     22  O   LIG    1       23.405 -21.364   5.275  0.00  0.00    -0.476 OA
BRANCH  22  23
ATOM     23  C   LIG    1       22.403 -20.384   5.592  0.00  0.00    +0.231 C 
BRANCH  23  24
ATOM     24  C   LIG    1       21.465 -20.217   4.391  0.00  0.00    +0.041 C 
BRANCH  24  26
ATOM     25  C   LIG    1       22.200 -17.785   4.687  0.00  0.00    +0.004 C 
ATOM     26  C   LIG    1       21.449 -18.792   3.827  0.00  0.00    +0.000 C 
ENDBRANCH  24  26
ENDBRANCH  23  24
ENDBRANCH  22  23
ENDBRANCH   1  22
TORSDOF 10
ENDMDL
MODEL 2
REMARK VINA RESULT:      -4.3      1.468      4.778
REMARK  Name = *****
REMARK                            x       y       z     vdW  Elec       q    Type
REMARK                         _______ _______ _______ _____ _____    ______ ____
ROOT
ATOM      1  C   LIG    1       25.463 -20.853   5.435  0.00  0.00    +0.216 A 
ATOM      2  N   LIG    1       24.226 -21.371   5.488  0.00  0.00    -0.213 NA
ATOM      3  C   LIG    1       23.217 -20.697   4.940  0.00  0.00    +0.075 A 
ATOM      4  C   LIG    1       23.360 -19.439   4.306  0.00  0.00    +0.013 A 
ATOM      5  C   LIG    1       22.191 -18.870   3.726  0.00  0.00    +0.011 A 
ATOM      6  C   LIG    1       20.943 -19.492   3.818  0.00  0.00    +0.001 A 
ATOM      7  C   LIG    1       20.833 -20.718   4.452  0.00  0.00    +0.002 A 
ATOM      8  C   LIG    1       24.678 -18.897   4.290  0.00  0.00    +0.051 A 
ATOM      9  C   LIG    1       21.971 -21.307   4.997  0.00  0.00    +0.028 A 
ATOM     10  C   LIG    1       25.734 -19.623   4.869  0.00  0.00    +0.081 A 
ENDROOT
BRANCH   8  11
ATOM     11  C   LIG    1       25.084 -17.613   3.625  0.00  0.00    +0.245 C 
ATOM     12  N   LIG    1       24.433 -16.445   3.968  0.00  0.00    -0.310 N 
ATOM     13  H   LIG    1       23.775 -16.441   4.731  0.00  0.00    +0.149 HD
ATOM     14  O   LIG    1       26.026 -17.624   2.834  0.00  0.00    -0.270 OA
BRANCH  12  15
ATOM     15  C   LIG    1       24.802 -15.155   3.397  0.00  0.00    +0.120 C 
BRANCH  15  16
ATOM     16  C   LIG    1       25.891 -14.366   4.170  0.00  0.00    +0.103 C 
BRANCH  16  17
ATOM     17  N   LIG    1       26.526 -13.212   3.479  0.00  0.00    -0.301 NA
BRANCH  17  18
ATOM     18  C   LIG    1       25.844 -12.948   2.191  0.00  0.00    +0.081 C 
ATOM     19  C   LIG    1       24.664 -11.974   2.209  0.00  0.00    +0.020 C 
ENDBRANCH  17  18
BRANCH  17  20
ATOM     20  C   LIG    1       27.983 -13.377   3.345  0.00  0.00    +0.081 C 
ATOM     21  C   LIG    1       28.818 -12.610   4.373  0.00  0.00    +0.020 C 
ENDBRANCH  17  20
ENDBRANCH  16  17
ENDBRANCH  15  16
ENDBRANCH  12  15
ENDBRANCH   8  11
BRANCH   1  22
ATOM     22  O   LIG    1       26.529 -21.572   5.948  0.00  0.00    -0.476 OA
BRANCH  22  23
ATOM     23  C   LIG    1       27.157 -20.917   7.062  0.00  0.00    +0.231 C 
BRANCH  23  24
ATOM     24  C   LIG    1       28.675 -21.095   6.960  0.00  0.00    +0.041 C 
BRANCH  24  26
ATOM     25  C   LIG    1       29.192 -18.907   5.741  0.00  0.00    +0.004 C 
ATOM     26  C   LIG    1       29.444 -19.769   6.970  0.00  0.00    +0.000 C 
ENDBRANCH  24  26
ENDBRANCH  23  24
ENDBRANCH  22  23
ENDBRANCH   1  22
TORSDOF 10
ENDMDL
MODEL 3
REMARK VINA RESULT:      -3.1      2.063      7.366
REMARK  Name = *****
REMARK                            x       y       z     vdW  Elec       q    Type
REMARK                         _______ _______ _______ _____ _____    ______ ____
ROOT
ATOM      1  C   LIG    1       27.134 -15.726   3.741  0.00  0.00    +0.216 A 
ATOM      2  N   LIG    1       27.241 -14.506   3.195  0.00  0.00    -0.213 NA
ATOM      3  C   LIG    1       26.138 -13.789   2.986  0.00  0.00    +0.075 A 
ATOM      4  C   LIG    1       24.832 -14.243   3.293  0.00  0.00    +0.013 A 
ATOM      5  C   LIG    1       23.760 -13.338   3.055  0.00  0.00    +0.011 A 
ATOM      6  C   LIG    1       23.970 -12.076   2.495  0.00  0.00    +0.001 A 
ATOM      7  C   LIG    1       25.258 -11.663   2.197  0.00  0.00    +0.002 A 
ATOM      8  C   LIG    1       24.744 -15.555   3.844  0.00  0.00    +0.051 A 
ATOM      9  C   LIG    1       26.324 -12.521   2.454  0.00  0.00    +0.028 A 
ATOM     10  C   LIG    1       25.919 -16.297   4.062  0.00  0.00    +0.081 A 
ENDROOT
BRANCH   8  11
ATOM     11  C   LIG    1       23.480 -16.223   4.304  0.00  0.00    +0.245 C 
ATOM     12  N   LIG    1       23.369 -17.595   4.195  0.00  0.00    -0.310 N 
ATOM     13  H   LIG    1       24.166 -18.145   3.914  0.00  0.00    +0.149 HD
ATOM     14  O   LIG    1       22.598 -15.538   4.820  0.00  0.00    -0.270 OA
BRANCH  12  15
ATOM     15  C   LIG    1       22.190 -18.317   4.660  0.00  0.00    +0.120 C 
BRANCH  15  16
ATOM     16  C   LIG    1       22.096 -19.802   4.219  0.00  0.00    +0.103 C 
BRANCH  16  17
ATOM     17  N   LIG    1       23.243 -20.690   4.546  0.00  0.00    -0.301 NA
BRANCH  17  18
ATOM     18  C   LIG    1       23.714 -20.432   5.926  0.00  0.00    +0.081 C 
ATOM     19  C   LIG    1       23.032 -21.207   7.056  0.00  0.00    +0.020 C 
ENDBRANCH  17  18
BRANCH  17  20
ATOM     20  C   LIG    1       24.315 -20.607   3.538  0.00  0.00    +0.081 C 
ATOM     21  C   LIG    1       25.655 -20.087   4.063  0.00  0.00    +0.020 C 
ENDBRANCH  17  20
ENDBRANCH  16  17
ENDBRANCH  15  16
ENDBRANCH  12  15
ENDBRANCH   8  11
BRANCH   1  22
ATOM     22  O   LIG    1       28.277 -16.456   4.017  0.00  0.00    -0.476 OA
BRANCH  22  23
ATOM     23  C   LIG    1       28.000 -17.690   4.699  0.00  0.00    +0.231 C 
BRANCH  23  24
ATOM     24  C   LIG    1       29.317 -18.311   5.173  0.00  0.00    +0.041 C 
BRANCH  24  26
ATOM     25  C   LIG    1       28.789 -20.438   6.490  0.00  0.00    +0.004 C 
ATOM     26  C   LIG    1       29.214 -18.977   6.550  0.00  0.00    +0.000 C 
ENDBRANCH  24  26
ENDBRANCH  23  24
ENDBRANCH  22  23
ENDBRANCH   1  22
TORSDOF 10
ENDMDL
MODEL 4
REMARK VINA RESULT:      -2.7      1.126      2.034
REMARK  Name = *****
REMARK                            x       y       z     vdW  Elec       q    Type
REMARK                         _______ _______ _______ _____ _____    ______ ____
ROOT
ATOM      1  C   LIG    1       23.331 -20.393   5.051  0.00  0.00    +0.216 A 
ATOM      2  N   LIG    1       24.089 -21.083   5.918  0.00  0.00    -0.213 NA
ATOM      3  C   LIG    1       25.400 -20.852   5.959  0.00  0.00    +0.075 A 
ATOM      4  C   LIG    1       26.065 -19.922   5.123  0.00  0.00    +0.013 A 
ATOM      5  C   LIG    1       27.464 -19.757   5.324  0.00  0.00    +0.011 A 
ATOM      6  C   LIG    1       28.169 -20.511   6.264  0.00  0.00    +0.001 A 
ATOM      7  C   LIG    1       27.493 -21.419   7.062  0.00  0.00    +0.002 A 
ATOM      8  C   LIG    1       25.241 -19.225   4.191  0.00  0.00    +0.051 A 
ATOM      9  C   LIG    1       26.118 -21.572   6.903  0.00  0.00    +0.028 A 
ATOM     10  C   LIG    1       23.858 -19.476   4.163  0.00  0.00    +0.081 A 
ENDROOT
BRANCH   8  11
ATOM     11  C   LIG    1       25.708 -18.152   3.249  0.00  0.00    +0.245 C 
ATOM     12  N   LIG    1       25.598 -16.830   3.632  0.00  0.00    -0.310 N 
ATOM     13  H   LIG    1       25.312 -16.599   4.571  0.00  0.00    +0.149 HD
ATOM     14  O   LIG    1       26.231 -18.480   2.185  0.00  0.00    -0.270 OA
BRANCH  12  15
ATOM     15  C   LIG    1       26.070 -15.737   2.789  0.00  0.00    +0.120 C 
BRANCH  15  16
ATOM     16  C   LIG    1       25.550 -14.326   3.169  0.00  0.00    +0.103 C 
BRANCH  16  17
ATOM     17  N   LIG    1       25.658 -13.914   4.594  0.00  0.00    -0.301 NA
BRANCH  17  18
ATOM     18  C   LIG    1       24.631 -12.895   4.912  0.00  0.00    +0.081 C 
ATOM     19  C   LIG    1       23.804 -12.344   3.748  0.00  0.00    +0.020 C 
ENDBRANCH  17  18
BRANCH  17  20
ATOM     20  C   LIG    1       27.025 -13.495   4.949  0.00  0.00    +0.081 C 
ATOM     21  C   LIG    1       28.121 -14.012   4.016  0.00  0.00    +0.020 C 
ENDBRANCH  17  20
ENDBRANCH  16  17
ENDBRANCH  15  16
ENDBRANCH  12  15
ENDBRANCH   8  11
BRANCH   1  22
ATOM     22  O   LIG    1       21.960 -20.580   5.041  0.00  0.00    -0.476 OA
BRANCH  22  23
ATOM     23  C   LIG    1       21.319 -19.944   3.924  0.00  0.00    +0.231 C 
BRANCH  23  24
ATOM     24  C   LIG    1       21.552 -18.432   4.004  0.00  0.00    +0.041 C 
BRANCH  24  26
ATOM     25  C   LIG    1       19.350 -18.440   2.703  0.00  0.00    +0.004 C 
ATOM     26  C   LIG    1       20.527 -17.616   3.207  0.00  0.00    +0.000 C 
ENDBRANCH  24  26
ENDBRANCH  23  24
ENDBRANCH  22  23
ENDBRANCH   1  22
TORSDOF 10
ENDMDL
MODEL 5
REMARK VINA RESULT:      -1.6      2.304      7.626
REMARK  Name = *****
REMARK                            x       y       z     vdW  Elec       q    Type
REMARK                         _______ _______ _______ _____ _____    ______ ____
ROOT
ATOM      1  C   LIG    1       27.385 -13.826   2.947  0.00  0.00    +0.216 A 
ATOM      2  N   LIG    1       26.245 -13.145   3.142  0.00  0.00    -0.213 NA
ATOM      3  C   LIG    1       25.157 -13.802   3.539  0.00  0.00    +0.075 A 
ATOM      4  C   LIG    1       25.116 -15.201   3.759  0.00  0.00    +0.013 A 
ATOM      5  C   LIG    1       23.888 -15.746   4.229  0.00  0.00    +0.011 A 
ATOM      6  C   LIG    1       22.753 -14.954   4.419  0.00  0.00    +0.001 A 
ATOM      7  C   LIG    1       22.822 -13.591   4.188  0.00  0.00    +0.002 A 
ATOM      8  C   LIG    1       26.331 -15.904   3.514  0.00  0.00    +0.051 A 
ATOM      9  C   LIG    1       24.023 -13.033   3.759  0.00  0.00    +0.028 A 
ATOM     10  C   LIG    1       27.473 -15.195   3.100  0.00  0.00    +0.081 A 
ENDROOT
BRANCH   8  11
ATOM     11  C   LIG    1       26.547 -17.374   3.736  0.00  0.00    +0.245 C 
ATOM     12  N   LIG    1       25.533 -18.255   3.417  0.00  0.00    -0.310 N 
ATOM     13  H   LIG    1       24.708 -17.925   2.942  0.00  0.00    +0.149 HD
ATOM     14  O   LIG    1       27.642 -17.761   4.141  0.00  0.00    -0.270 OA
BRANCH  12  15
ATOM     15  C   LIG    1       25.686 -19.699   3.564  0.00  0.00    +0.120 C 
BRANCH  15  16
ATOM     16  C   LIG    1       24.371 -20.520   3.514  0.00  0.00    +0.103 C 
BRANCH  16  17
ATOM     17  N   LIG    1       23.995 -21.291   4.729  0.00  0.00    -0.301 NA
BRANCH  17  18
ATOM     18  C   LIG    1       22.774 -20.720   5.342  0.00  0.00    +0.081 C 
ATOM     19  C   LIG    1       22.388 -19.295   4.940  0.00  0.00    +0.020 C 
ENDBRANCH  17  18
BRANCH  17  20
ATOM     20  C   LIG    1       25.117 -21.420   5.675  0.00  0.00    +0.081 C 
ATOM     21  C   LIG    1       24.865 -20.820   7.060  0.00  0.00    +0.020 C 
ENDBRANCH  17  20
ENDBRANCH  16  17
ENDBRANCH  15  16
ENDBRANCH  12  15
ENDBRANCH   8  11
BRANCH   1  22
ATOM     22  O   LIG    1       28.536 -13.145   2.592  0.00  0.00    -0.476 OA
BRANCH  22  23
ATOM     23  C   LIG    1       29.398 -12.886   3.713  0.00  0.00    +0.231 C 
BRANCH  23  24
ATOM     24  C   LIG    1       28.601 -12.161   4.803  0.00  0.00    +0.041 C 
BRANCH  24  26
ATOM     25  C   LIG    1       26.948 -13.358   6.343  0.00  0.00    +0.004 C 
ATOM     26  C   LIG    1       28.402 -13.001   6.069  0.00  0.00    +0.000 C 
ENDBRANCH  24  26
ENDBRANCH  23  24
ENDBRANCH  22  23
ENDBRANCH   1  22
TORSDOF 10
ENDMDL
MODEL 6
REMARK VINA RESULT:      -1.6      1.656      5.596
REMARK  Name = *****
REMARK                            x       y       z     vdW  Elec       q    Type
REMARK                         _______ _______ _______ _____ _____    ______ ____
ROOT
ATOM      1  C   LIG    1       26.640 -16.783   3.377  0.00  0.00    +0.216 A 
ATOM      2  N   LIG    1       27.708 -16.793   4.190  0.00  0.00    -0.213 NA
ATOM      3  C   LIG    1       27.953 -17.877   4.925  0.00  0.00    +0.075 A 
ATOM      4  C   LIG    1       27.139 -19.036   4.919  0.00  0.00    +0.013 A 
ATOM      5  C   LIG    1       27.563 -20.128   5.726  0.00  0.00    +0.011 A 
ATOM      6  C   LIG    1       28.702 -20.053   6.532  0.00  0.00    +0.001 A 
ATOM      7  C   LIG    1       29.473 -18.903   6.523  0.00  0.00    +0.002 A 
ATOM      8  C   LIG    1       25.995 -18.987   4.070  0.00  0.00    +0.051 A 
ATOM      9  C   LIG    1       29.093 -17.835   5.715  0.00  0.00    +0.028 A 
ATOM     10  C   LIG    1       25.752 -17.837   3.297  0.00  0.00    +0.081 A 
ENDROOT
BRANCH   8  11
ATOM     11  C   LIG    1       25.024 -20.112   3.851  0.00  0.00    +0.245 C 
ATOM     12  N   LIG    1       23.902 -19.888   3.079  0.00  0.00    -0.310 N 
ATOM     13  H   LIG    1       23.796 -19.017   2.583  0.00  0.00    +0.149 HD
ATOM     14  O   LIG    1       25.283 -21.221   4.317  0.00  0.00    -0.270 OA
BRANCH  12  15
ATOM     15  C   LIG    1       22.938 -20.944   2.787  0.00  0.00    +0.120 C 
BRANCH  15  16
ATOM     16  C   LIG    1       21.908 -21.240   3.909  0.00  0.00    +0.103 C 
BRANCH  16  17
ATOM     17  N   LIG    1       21.646 -20.164   4.902  0.00  0.00    -0.301 NA
BRANCH  17  18
ATOM     18  C   LIG    1       21.484 -18.861   4.217  0.00  0.00    +0.081 C 
ATOM     19  C   LIG    1       22.263 -17.671   4.780  0.00  0.00    +0.020 C 
ENDBRANCH  17  18
BRANCH  17  20
ATOM     20  C   LIG    1       22.657 -20.138   5.973  0.00  0.00    +0.081 C 
ATOM     21  C   LIG    1       22.943 -21.493   6.624  0.00  0.00    +0.020 C 
ENDBRANCH  17  20
ENDBRANCH  16  17
ENDBRANCH  15  16
ENDBRANCH  12  15
ENDBRANCH   8  11
BRANCH   1  22
ATOM     22  O   LIG    1       26.409 -15.687   2.564  0.00  0.00    -0.476 OA
BRANCH  22  23
ATOM     23  C   LIG    1       26.118 -14.493   3.308  0.00  0.00    +0.231 C 
BRANCH  23  24
ATOM     24  C   LIG    1       24.666 -14.543   3.794  0.00  0.00    +0.041 C 
BRANCH  24  26
ATOM     25  C   LIG    1       24.062 -12.141   4.430  0.00  0.00    +0.004 C 
ATOM     26  C   LIG    1       23.864 -13.285   3.444  0.00  0.00    +0.000 C 
ENDBRANCH  24  26
ENDBRANCH  23  24
ENDBRANCH  22  23
ENDBRANCH   1  22
TORSDOF 10
ENDMDL
MODEL 7
REMARK VINA RESULT:      -1.5      1.696      5.215
REMARK  Name = *****
REMARK                            x       y       z     vdW  Elec       q    Type
REMARK                         _______ _______ _______ _____ _____    ______ ____
ROOT
ATOM      1  C   LIG    1       27.351 -17.427   4.063  0.00  0.00    +0.216 A 
ATOM      2  N   LIG    1       28.371 -17.776   4.862  0.00  0.00    -0.213 NA
ATOM      3  C   LIG    1       28.304 -18.922   5.537  0.00  0.00    +0.075 A 
ATOM      4  C   LIG    1       27.200 -19.808   5.480  0.00  0.00    +0.013 A 
ATOM      5  C   LIG    1       27.302 -21.017   6.225  0.00  0.00    +0.011 A 
ATOM      6  C   LIG    1       28.414 -21.303   7.020  0.00  0.00    +0.001 A 
ATOM      7  C   LIG    1       29.474 -20.413   7.062  0.00  0.00    +0.002 A 
ATOM      8  C   LIG    1       26.117 -19.399   4.648  0.00  0.00    +0.051 A 
ATOM      9  C   LIG    1       29.408 -19.240   6.315  0.00  0.00    +0.028 A 
ATOM     10  C   LIG    1       26.206 -18.188   3.938  0.00  0.00    +0.081 A 
ENDROOT
BRANCH   8  11
ATOM     11  C   LIG    1       24.873 -20.197   4.382  0.00  0.00    +0.245 C 
ATOM     12  N   LIG    1       23.930 -20.321   5.383  0.00  0.00    -0.310 N 
ATOM     13  H   LIG    1       24.027 -19.793   6.235  0.00  0.00    +0.149 HD
ATOM     14  O   LIG    1       24.699 -20.672   3.261  0.00  0.00    -0.270 OA
BRANCH  12  15
ATOM     15  C   LIG    1       22.678 -21.044   5.183  0.00  0.00    +0.120 C 
BRANCH  15  16
ATOM     16  C   LIG    1       21.541 -20.239   4.502  0.00  0.00    +0.103 C 
BRANCH  16  17
ATOM     17  N   LIG    1       21.877 -18.893   3.967  0.00  0.00    -0.301 NA
BRANCH  17  18
ATOM     18  C   LIG    1       22.257 -17.982   5.071  0.00  0.00    +0.081 C 
ATOM     19  C   LIG    1       22.386 -16.494   4.739  0.00  0.00    +0.020 C 
ENDBRANCH  17  18
BRANCH  17  20
ATOM     20  C   LIG    1       20.808 -18.354   3.108  0.00  0.00    +0.081 C 
ATOM     21  C   LIG    1       19.443 -19.022   3.280  0.00  0.00    +0.020 C 
ENDBRANCH  17  20
ENDBRANCH  16  17
ENDBRANCH  15  16
ENDBRANCH  12  15
ENDBRANCH   8  11
BRANCH   1  22
ATOM     22  O   LIG    1       27.436 -16.269   3.310  0.00  0.00    -0.476 OA
BRANCH  22  23
ATOM     23  C   LIG    1       26.195 -15.547   3.256  0.00  0.00    +0.231 C 
BRANCH  23  24
ATOM     24  C   LIG    1       26.450 -14.146   2.692  0.00  0.00    +0.041 C 
BRANCH  24  26
ATOM     25  C   LIG    1       24.206 -13.718   3.840  0.00  0.00    +0.004 C 
ATOM     26  C   LIG    1       25.273 -13.186   2.893  0.00  0.00    +0.000 C 
ENDBRANCH  24  26
ENDBRANCH  23  24
ENDBRANCH  22  23
ENDBRANCH   1  22
TORSDOF 10
ENDMDL
