MODEL 1
REMARK VINA RESULT:      -3.2      0.000      0.000
REMARK  Name = *****
REMARK                            x       y       z     vdW  Elec       q    Type
REMARK                         _______ _______ _______ _____ _____    ______ ____
ROOT
ATOM      1  C   LIG    1       26.968 -15.177   3.466  0.00  0.00    +0.235 C 
ATOM      2  N   LIG    1       25.959 -16.075   3.741  0.00  0.00    -0.300 N 
ATOM      3  H   LIG    1       25.236 -15.799   4.403  0.00  0.00    +0.150 HD
ATOM      4  O   LIG    1       27.844 -15.424   2.637  0.00  0.00    -0.274 OA
ENDROOT
BRANCH   2   5
ATOM      5  CA  LIG    1       25.860 -17.420   3.100  0.00  0.00    +0.191 C 
ATOM      6  C   LIG    1       26.833 -18.514   3.656  0.00  0.00    +0.169 C 
ATOM      7  N   LIG    1       25.696 -19.049   4.386  0.00  0.00    -0.248 N 
ATOM      8  CA  LIG    1       25.784 -20.056   5.314  0.00  0.00    +0.137 C 
ATOM      9  C   LIG    1       26.995 -20.331   5.863  0.00  0.00    +0.057 C 
ATOM     10 CL   LIG    1       27.272 -21.572   7.062  0.00  0.00    -0.085 Cl
ATOM     11  C   LIG    1       28.289 -19.594   5.582  0.00  0.00    +0.120 C 
ATOM     12  S   LIG    1       28.075 -17.949   4.844  0.00  0.00    -0.130 S 
ATOM     13  C   LIG    1       24.753 -18.384   3.682  0.00  0.00    +0.244 C 
ATOM     14  O   LIG    1       23.555 -18.515   3.692  0.00  0.00    -0.273 OA
BRANCH   8  15
ATOM     15  C   LIG    1       24.552 -20.824   5.743  0.00  0.00    +0.352 C 
ATOM     16  O   LIG    1       24.098 -20.800   6.878  0.00  0.00    -0.244 OA
BRANCH  15  17
ATOM     17  OXT LIG    1       23.930 -21.556   4.801  0.00  0.00    -0.476 OA
ATOM     18  HXT LIG    1       23.983 -22.536   4.846  0.00  0.00    +0.295 HD
ENDBRANCH  15  17
ENDBRANCH   8  15
ENDBRANCH   2   5
BRANCH   1  19
ATOM     19  CA  LIG    1       26.906 -13.816   4.229  0.00  0.00    +0.168 C 
BRANCH  19  20
ATOM     20  C   LIG    1       25.730 -12.943   3.823  0.00  0.00    -0.022 A 
ATOM     21  C   LIG    1       25.474 -12.692   2.464  0.00  0.00    +0.006 A 
ATOM     22  C   LIG    1       24.355 -11.952   2.076  0.00  0.00    +0.000 A 
ATOM     23  C   LIG    1       23.483 -11.447   3.038  0.00  0.00    +0.000 A 
ATOM     24  C   LIG    1       23.734 -11.670   4.390  0.00  0.00    +0.000 A 
ATOM     25  C   LIG    1       24.850 -12.411   4.781  0.00  0.00    +0.006 A 
ENDBRANCH  19  20
BRANCH  19  26
ATOM     26  N   LIG    1       26.906 -14.061   5.685  0.00  0.00    -0.316 NA
ATOM     27  H1  LIG    1       26.087 -14.620   5.922  0.00  0.00    +0.119 HD
ATOM     28  H2  LIG    1       27.694 -14.683   5.885  0.00  0.00    +0.119 HD
ENDBRANCH  19  26
ENDBRANCH   1  19
TORSDOF 6
ENDMDL
MODEL 2
REMARK VINA RESULT:      -2.8      3.208      7.196
REMARK  Name = *****
REMARK                            x       y       z     vdW  Elec       q    Type
REMARK                         _______ _______ _______ _____ _____    ______ ____
ROOT
ATOM      1  C   LIG    1       27.005 -19.394   5.127  0.00  0.00    +0.235 C 
ATOM      2  N   LIG    1       26.065 -18.656   4.441  0.00  0.00    -0.300 N 
ATOM      3  H   LIG    1       25.084 -18.765   4.699  0.00  0.00    +0.150 HD
ATOM      4  O   LIG    1       28.209 -19.273   4.903  0.00  0.00    -0.274 OA
ENDROOT
BRANCH   2   5
ATOM      5  CA  LIG    1       26.410 -17.688   3.358  0.00  0.00    +0.191 C 
ATOM      6  C   LIG    1       25.368 -16.547   3.104  0.00  0.00    +0.169 C 
ATOM      7  N   LIG    1       26.263 -15.668   3.838  0.00  0.00    -0.248 N 
ATOM      8  CA  LIG    1       25.952 -14.380   4.195  0.00  0.00    +0.137 C 
ATOM      9  C   LIG    1       24.647 -14.005   4.208  0.00  0.00    +0.057 C 
ATOM     10 CL   LIG    1       24.087 -12.410   4.648  0.00  0.00    -0.085 Cl
ATOM     11  C   LIG    1       23.460 -14.897   3.901  0.00  0.00    +0.120 C 
ATOM     12  S   LIG    1       23.807 -16.675   4.009  0.00  0.00    -0.130 S 
ATOM     13  C   LIG    1       27.340 -16.482   3.777  0.00  0.00    +0.244 C 
ATOM     14  O   LIG    1       28.486 -16.260   4.074  0.00  0.00    -0.273 OA
BRANCH   8  15
ATOM     15  C   LIG    1       27.037 -13.404   4.599  0.00  0.00    +0.352 C 
ATOM     16  O   LIG    1       27.853 -12.935   3.820  0.00  0.00    -0.244 OA
BRANCH  15  17
ATOM     17  OXT LIG    1       27.076 -13.036   5.893  0.00  0.00    -0.476 OA
ATOM     18  HXT LIG    1       27.928 -12.736   6.278  0.00  0.00    +0.295 HD
ENDBRANCH  15  17
ENDBRANCH   8  15
ENDBRANCH   2   5
BRANCH   1  19
ATOM     19  CA  LIG    1       26.458 -20.354   6.230  0.00  0.00    +0.168 C 
BRANCH  19  20
ATOM     20  C   LIG    1       25.032 -20.817   5.981  0.00  0.00    -0.022 A 
ATOM     21  C   LIG    1       24.207 -21.171   7.062  0.00  0.00    +0.006 A 
ATOM     22  C   LIG    1       22.873 -21.529   6.851  0.00  0.00    +0.000 A 
ATOM     23  C   LIG    1       22.350 -21.547   5.560  0.00  0.00    +0.000 A 
ATOM     24  C   LIG    1       23.161 -21.219   4.476  0.00  0.00    +0.000 A 
ATOM     25  C   LIG    1       24.493 -20.858   4.684  0.00  0.00    +0.006 A 
ENDBRANCH  19  20
BRANCH  19  26
ATOM     26  N   LIG    1       27.370 -21.505   6.386  0.00  0.00    -0.316 NA
ATOM     27  H1  LIG    1       26.820 -22.363   6.356  0.00  0.00    +0.119 HD
ATOM     28  H2  LIG    1       27.941 -21.551   5.538  0.00  0.00    +0.119 HD
ENDBRANCH  19  26
ENDBRANCH   1  19
TORSDOF 6
ENDMDL
MODEL 3
REMARK VINA RESULT:      -1.0      2.163      3.114
REMARK  Name = *****
REMARK                            x       y       z     vdW  Elec       q    Type
REMARK                         _______ _______ _______ _____ _____    ______ ____
ROOT
ATOM      1  C   LIG    1       23.798 -14.198   3.583  0.00  0.00    +0.235 C 
ATOM      2  N   LIG    1       23.848 -15.479   4.088  0.00  0.00    -0.300 N 
ATOM      3  H   LIG    1       24.280 -15.620   5.000  0.00  0.00    +0.150 HD
ATOM      4  O   LIG    1       23.244 -13.948   2.512  0.00  0.00    -0.274 OA
ENDROOT
BRANCH   2   5
ATOM      5  CA  LIG    1       23.281 -16.664   3.380  0.00  0.00    +0.191 C 
ATOM      6  C   LIG    1       24.250 -17.881   3.202  0.00  0.00    +0.169 C 
ATOM      7  N   LIG    1       23.543 -18.510   4.305  0.00  0.00    -0.248 N 
ATOM      8  CA  LIG    1       23.934 -19.685   4.897  0.00  0.00    +0.137 C 
ATOM      9  C   LIG    1       25.212 -20.107   4.724  0.00  0.00    +0.057 C 
ATOM     10 CL   LIG    1       25.867 -21.572   5.418  0.00  0.00    -0.085 Cl
ATOM     11  C   LIG    1       26.297 -19.376   3.959  0.00  0.00    +0.120 C 
ATOM     12  S   LIG    1       25.970 -17.610   3.692  0.00  0.00    -0.130 S 
ATOM     13  C   LIG    1       22.474 -17.685   4.274  0.00  0.00    +0.244 C 
ATOM     14  O   LIG    1       21.421 -17.772   4.854  0.00  0.00    -0.273 OA
BRANCH   8  15
ATOM     15  C   LIG    1       22.970 -20.479   5.754  0.00  0.00    +0.352 C 
ATOM     16  O   LIG    1       21.965 -21.023   5.319  0.00  0.00    -0.244 OA
BRANCH  15  17
ATOM     17  OXT LIG    1       23.265 -20.590   7.062  0.00  0.00    -0.476 OA
ATOM     18  HXT LIG    1       23.454 -19.777   7.579  0.00  0.00    +0.295 HD
ENDBRANCH  15  17
ENDBRANCH   8  15
ENDBRANCH   2   5
BRANCH   1  19
ATOM     19  CA  LIG    1       24.440 -13.082   4.466  0.00  0.00    +0.168 C 
BRANCH  19  20
ATOM     20  C   LIG    1       25.950 -12.985   4.321  0.00  0.00    -0.022 A 
ATOM     21  C   LIG    1       26.768 -12.968   5.464  0.00  0.00    +0.006 A 
ATOM     22  C   LIG    1       28.159 -12.952   5.343  0.00  0.00    +0.000 A 
ATOM     23  C   LIG    1       28.751 -12.946   4.081  0.00  0.00    +0.000 A 
ATOM     24  C   LIG    1       27.953 -12.942   2.939  0.00  0.00    +0.000 A 
ATOM     25  C   LIG    1       26.563 -12.961   3.057  0.00  0.00    +0.006 A 
ENDBRANCH  19  20
BRANCH  19  26
ATOM     26  N   LIG    1       23.797 -11.785   4.175  0.00  0.00    -0.316 NA
ATOM     27  H1  LIG    1       23.891 -11.183   4.993  0.00  0.00    +0.119 HD
ATOM     28  H2  LIG    1       24.366 -11.321   3.463  0.00  0.00    +0.119 HD
ENDBRANCH  19  26
ENDBRANCH   1  19
TORSDOF 6
ENDMDL
