MODEL 1
REMARK VINA RESULT:      -5.8      0.000      0.000
REMARK  Name = *****
REMARK                            x       y       z     vdW  Elec       q    Type
REMARK                         _______ _______ _______ _____ _____    ______ ____
ROOT
ATOM      1  C   UNK A  3       27.920 -29.005  13.434  0.00  0.00    +0.194 C 
ATOM      2  C   UNK A  3       27.427 -30.274  12.712  0.00  0.00    +0.237 C 
ATOM      3  O   UNK A  3       26.827 -31.172  13.307  0.00  0.00    -0.274 OA
ATOM      4  N   UNK A  3       27.728 -30.449  11.381  0.00  0.00    -0.311 N 
ATOM      5  H   UNK A  3       27.645 -31.430  11.135  0.00  0.00    +0.149 HD
ATOM      6  C   UNK A  3       27.103 -29.608  10.354  0.00  0.00    +0.136 C 
ATOM      7  C   UNK A  3       25.692 -30.103   9.936  0.00  0.00    +0.176 C 
ATOM      8  C   UNK A  1       24.698 -30.110  11.117  0.00  0.00    +0.235 C 
ATOM      9  O   UNK A  1       24.440 -29.079  11.732  0.00  0.00    -0.274 OA
ATOM     10  N   SER A  2       24.007 -31.276  11.330  0.00  0.00    -0.300 N 
ATOM     11  H   SER A  2       24.450 -32.135  11.026  0.00  0.00    +0.150 HD
ATOM     12  CA  SER A  2       22.941 -31.475  12.342  0.00  0.00    +0.184 C 
ATOM     13  C   SER A  2       21.864 -30.362  12.248  0.00  0.00    +0.236 C 
ATOM     14  O   SER A  2       21.068 -30.308  11.309  0.00  0.00    -0.274 OA
ATOM     15  N   UNK A  3       21.988 -29.308  13.135  0.00  0.00    -0.300 N 
ATOM     16  H   UNK A  3       22.733 -29.329  13.816  0.00  0.00    +0.150 HD
ATOM     17  C   UNK A  3       21.515 -27.964  12.763  0.00  0.00    +0.185 C 
ATOM     18  C   UNK A  3       22.446 -26.897  13.413  0.00  0.00    +0.240 C 
ATOM     19  O   UNK A  3       22.034 -25.799  13.773  0.00  0.00    -0.273 OA
ATOM     20  N   UNK A  3       23.787 -27.280  13.375  0.00  0.00    -0.279 N 
ATOM     21  H   UNK A  3       23.971 -28.095  12.784  0.00  0.00    +0.155 HD
ATOM     22  C   UNK A  3       24.935 -26.547  13.640  0.00  0.00    +0.110 C 
ATOM     23  C   UNK A  3       24.956 -25.316  14.173  0.00  0.00    +0.104 C 
ATOM     24  C   UNK A  3       26.237 -27.161  13.150  0.00  0.00    +0.260 C 
ATOM     25  O   UNK A  3       26.769 -26.736  12.129  0.00  0.00    -0.269 OA
ATOM     26  N   UNK A  3       26.733 -28.224  13.883  0.00  0.00    -0.296 N 
ATOM     27  H   UNK A  3       26.198 -28.576  14.667  0.00  0.00    +0.150 HD
ENDROOT
BRANCH   1  33
ATOM     28  N   UNK A  3       30.315 -26.417  15.419  0.00  0.00    -0.134 NA
ATOM     29  H   UNK A  3       31.124 -25.950  15.008  0.00  0.00    +0.306 HD
ATOM     30  C   UNK A  3       30.286 -27.639  15.024  0.00  0.00    +0.362 C 
ATOM     31  N   UNK A  3       29.298 -28.448  15.449  0.00  0.00    -0.234 N 
ATOM     32  H   UNK A  3       28.618 -27.955  16.014  0.00  0.00    +0.245 HD
ATOM     33  C   UNK A  3       28.803 -29.536  14.624  0.00  0.00    +0.168 C 
ATOM     34  C   UNK A  3       30.032 -30.366  14.207  0.00  0.00    +0.075 C 
ATOM     35  C   UNK A  3       31.121 -29.497  13.591  0.00  0.00    +0.188 C 
ATOM     36  N   UNK A  3       31.186 -28.180  14.180  0.00  0.00    -0.238 N 
ATOM     37  H   UNK A  3       31.902 -27.570  13.806  0.00  0.00    +0.244 HD
ENDBRANCH   1  33
BRANCH  23  38
ATOM     38  N   UNK A  3       26.072 -24.509  14.263  0.00  0.00    -0.274 N 
ATOM     39  H   UNK A  3       26.038 -23.577  13.861  0.00  0.00    +0.156 HD
ATOM     40  C   UNK A  3       27.217 -24.856  14.910  0.00  0.00    +0.301 C 
ATOM     41  O   UNK A  3       27.426 -25.935  15.492  0.00  0.00    -0.253 OA
ATOM     42  N   UNK A  3       28.197 -23.927  14.829  0.00  0.00    -0.313 N 
ATOM     43  H   UNK A  3       27.954 -22.948  14.824  0.00  0.00    +0.146 HD
ATOM     44  H   UNK A  3       29.042 -24.169  15.332  0.00  0.00    +0.146 HD
ENDBRANCH  23  38
BRANCH   7  45
ATOM     45  N   UNK A  3       25.100 -29.240   8.894  0.00  0.00    -0.303 N 
ATOM     46  H   UNK A  1       24.674 -28.382   9.220  0.00  0.00    +0.149 HD
ATOM     47  C   UNK A  0       24.838 -29.703   7.628  0.00  0.00    +0.215 C 
ATOM     48  O   UNK A  0       25.185 -30.835   7.291  0.00  0.00    -0.276 OA
BRANCH  47  49
ATOM     49  C   UNK A  0       24.114 -28.797   6.630  0.00  0.00    +0.116 C 
BRANCH  49  50
ATOM     50  C   UNK A  0       24.848 -28.313   5.377  0.00  0.00    +0.088 C 
BRANCH  50  51
ATOM     51  N   UNK A  0       26.246 -28.808   5.404  0.00  0.00    -0.325 NA
ATOM     52  H   UNK A  0       26.608 -28.725   4.447  0.00  0.00    +0.119 HD
ATOM     53  H   UNK A  0       26.820 -28.145   5.926  0.00  0.00    +0.119 HD
ENDBRANCH  50  51
BRANCH  50  54
ATOM     54  C   UNK A  0       24.850 -26.772   5.146  0.00  0.00    +0.133 C 
BRANCH  54  55
ATOM     55  O   UNK A  0       25.967 -26.501   4.285  0.00  0.00    -0.390 OA
ATOM     56  H   UNK A  0       25.636 -26.391   3.378  0.00  0.00    +0.210 HD
ENDBRANCH  54  55
BRANCH  54  57
ATOM     57  C   UNK A  0       24.947 -25.905   6.418  0.00  0.00    +0.048 C 
BRANCH  57  58
ATOM     58  C   UNK A  0       24.321 -24.523   6.194  0.00  0.00    +0.080 C 
BRANCH  58  59
ATOM     59  N   UNK A  0       24.910 -23.826   5.057  0.00  0.00    -0.330 NA
ATOM     60  H   UNK A  0       24.799 -24.401   4.220  0.00  0.00    +0.118 HD
ATOM     61  H   UNK A  0       25.918 -23.732   5.185  0.00  0.00    +0.118 HD
ENDBRANCH  58  59
ENDBRANCH  57  58
ENDBRANCH  54  57
ENDBRANCH  50  54
ENDBRANCH  49  50
ENDBRANCH  47  49
ENDBRANCH   7  45
BRANCH  12  62
ATOM     62  CB  SER A  2       23.448 -31.789  13.757  0.00  0.00    +0.187 C 
BRANCH  62  63
ATOM     63  OG  SER A  2       24.156 -30.669  14.286  0.00  0.00    -0.393 OA
ATOM     64  H   SER A  2       24.537 -30.945  15.141  0.00  0.00    +0.209 HD
ENDBRANCH  62  63
ENDBRANCH  12  62
BRANCH  17  65
ATOM     65  C   UNK A  3       20.032 -27.707  13.075  0.00  0.00    +0.187 C 
BRANCH  65  66
ATOM     66  O   UNK A  3       19.576 -26.414  12.671  0.00  0.00    -0.393 OA
ATOM     67  H   UNK A  3       20.355 -25.844  12.502  0.00  0.00    +0.209 HD
ENDBRANCH  65  66
ENDBRANCH  17  65
TORSDOF 15
ENDMDL
MODEL 2
REMARK VINA RESULT:      -5.7      2.917      7.991
REMARK  Name = *****
REMARK                            x       y       z     vdW  Elec       q    Type
REMARK                         _______ _______ _______ _____ _____    ______ ____
ROOT
ATOM      1  C   UNK A  3       23.541 -32.477   8.325  0.00  0.00    +0.194 C 
ATOM      2  C   UNK A  3       22.918 -33.070   9.603  0.00  0.00    +0.237 C 
ATOM      3  O   UNK A  3       23.556 -33.806  10.360  0.00  0.00    -0.274 OA
ATOM      4  N   UNK A  3       21.591 -32.834   9.874  0.00  0.00    -0.311 N 
ATOM      5  H   UNK A  3       21.244 -33.529  10.527  0.00  0.00    +0.149 HD
ATOM      6  C   UNK A  3       21.129 -31.495  10.257  0.00  0.00    +0.136 C 
ATOM      7  C   UNK A  3       21.327 -31.190  11.766  0.00  0.00    +0.176 C 
ATOM      8  C   UNK A  1       22.811 -31.245  12.188  0.00  0.00    +0.235 C 
ATOM      9  O   UNK A  1       23.645 -30.512  11.663  0.00  0.00    -0.274 OA
ATOM     10  N   SER A  2       23.111 -32.026  13.276  0.00  0.00    -0.300 N 
ATOM     11  H   SER A  2       22.493 -32.806  13.466  0.00  0.00    +0.150 HD
ATOM     12  CA  SER A  2       24.447 -32.150  13.907  0.00  0.00    +0.184 C 
ATOM     13  C   SER A  2       25.054 -30.754  14.213  0.00  0.00    +0.236 C 
ATOM     14  O   SER A  2       24.611 -30.039  15.113  0.00  0.00    -0.274 OA
ATOM     15  N   UNK A  3       25.953 -30.257  13.287  0.00  0.00    -0.300 N 
ATOM     16  H   UNK A  3       26.200 -30.827  12.492  0.00  0.00    +0.150 HD
ATOM     17  C   UNK A  3       26.080 -28.804  13.081  0.00  0.00    +0.185 C 
ATOM     18  C   UNK A  3       26.404 -28.528  11.583  0.00  0.00    +0.240 C 
ATOM     19  O   UNK A  3       27.098 -27.581  11.226  0.00  0.00    -0.273 OA
ATOM     20  N   UNK A  3       25.688 -29.367  10.729  0.00  0.00    -0.279 N 
ATOM     21  H   UNK A  3       24.948 -29.899  11.193  0.00  0.00    +0.155 HD
ATOM     22  C   UNK A  3       25.520 -29.310   9.353  0.00  0.00    +0.110 C 
ATOM     23  C   UNK A  3       26.189 -28.490   8.529  0.00  0.00    +0.104 C 
ATOM     24  C   UNK A  3       24.388 -30.157   8.792  0.00  0.00    +0.260 C 
ATOM     25  O   UNK A  3       23.328 -29.629   8.470  0.00  0.00    -0.269 OA
ATOM     26  N   UNK A  3       24.614 -31.520   8.720  0.00  0.00    -0.296 N 
ATOM     27  H   UNK A  3       25.481 -31.897   9.081  0.00  0.00    +0.150 HD
ENDROOT
BRANCH   1  33
ATOM     28  N   UNK A  3       27.383 -32.489   7.052  0.00  0.00    -0.134 NA
ATOM     29  H   UNK A  3       27.758 -31.855   6.346  0.00  0.00    +0.306 HD
ATOM     30  C   UNK A  3       26.216 -32.884   6.689  0.00  0.00    +0.362 C 
ATOM     31  N   UNK A  3       25.531 -33.736   7.475  0.00  0.00    -0.234 N 
ATOM     32  H   UNK A  3       26.019 -33.930   8.341  0.00  0.00    +0.245 HD
ATOM     33  C   UNK A  3       24.080 -33.721   7.525  0.00  0.00    +0.168 C 
ATOM     34  C   UNK A  3       23.588 -33.825   6.068  0.00  0.00    +0.075 C 
ATOM     35  C   UNK A  3       24.242 -32.780   5.174  0.00  0.00    +0.188 C 
ATOM     36  N   UNK A  3       25.602 -32.485   5.557  0.00  0.00    -0.238 N 
ATOM     37  H   UNK A  3       26.078 -31.800   4.984  0.00  0.00    +0.244 HD
ENDBRANCH   1  33
BRANCH  23  38
ATOM     38  N   UNK A  3       25.895 -28.293   7.195  0.00  0.00    -0.274 N 
ATOM     39  H   UNK A  3       25.727 -29.102   6.604  0.00  0.00    +0.156 HD
ATOM     40  C   UNK A  3       25.759 -27.071   6.613  0.00  0.00    +0.301 C 
ATOM     41  O   UNK A  3       25.889 -25.974   7.185  0.00  0.00    -0.253 OA
ATOM     42  N   UNK A  3       25.517 -27.119   5.283  0.00  0.00    -0.313 N 
ATOM     43  H   UNK A  3       24.957 -27.869   4.906  0.00  0.00    +0.146 HD
ATOM     44  H   UNK A  3       25.388 -26.213   4.850  0.00  0.00    +0.146 HD
ENDBRANCH  23  38
BRANCH   7  45
ATOM     45  N   UNK A  3       20.841 -29.839  12.116  0.00  0.00    -0.303 N 
ATOM     46  H   UNK A  1       20.795 -29.175  11.353  0.00  0.00    +0.149 HD
ATOM     47  C   UNK A  0       20.778 -29.403  13.416  0.00  0.00    +0.215 C 
ATOM     48  O   UNK A  0       21.031 -30.168  14.347  0.00  0.00    -0.276 OA
BRANCH  47  49
ATOM     49  C   UNK A  0       20.380 -27.954  13.706  0.00  0.00    +0.116 C 
BRANCH  49  50
ATOM     50  C   UNK A  0       19.327 -27.658  14.776  0.00  0.00    +0.088 C 
BRANCH  50  51
ATOM     51  N   UNK A  0       18.976 -28.914  15.481  0.00  0.00    -0.325 NA
ATOM     52  H   UNK A  0       18.862 -28.675  16.473  0.00  0.00    +0.119 HD
ATOM     53  H   UNK A  0       18.036 -29.197  15.202  0.00  0.00    +0.119 HD
ENDBRANCH  50  51
BRANCH  50  54
ATOM     54  C   UNK A  0       18.025 -26.967  14.271  0.00  0.00    +0.133 C 
BRANCH  54  55
ATOM     55  O   UNK A  0       18.379 -25.602  14.000  0.00  0.00    -0.390 OA
ATOM     56  H   UNK A  0       17.652 -25.030  14.298  0.00  0.00    +0.210 HD
ENDBRANCH  54  55
BRANCH  54  57
ATOM     57  C   UNK A  0       16.824 -27.015  15.238  0.00  0.00    +0.048 C 
BRANCH  57  58
ATOM     58  C   UNK A  0       15.775 -28.030  14.767  0.00  0.00    +0.080 C 
BRANCH  58  59
ATOM     59  N   UNK A  0       16.246 -28.834  13.645  0.00  0.00    -0.330 NA
ATOM     60  H   UNK A  0       15.441 -29.239  13.164  0.00  0.00    +0.118 HD
ATOM     61  H   UNK A  0       16.783 -29.633  13.987  0.00  0.00    +0.118 HD
ENDBRANCH  58  59
ENDBRANCH  57  58
ENDBRANCH  54  57
ENDBRANCH  50  54
ENDBRANCH  49  50
ENDBRANCH  47  49
ENDBRANCH   7  45
BRANCH  12  62
ATOM     62  CB  SER A  2       25.392 -33.147  13.222  0.00  0.00    +0.187 C 
BRANCH  62  63
ATOM     63  OG  SER A  2       25.727 -32.689  11.912  0.00  0.00    -0.393 OA
ATOM     64  H   SER A  2       24.889 -32.559  11.428  0.00  0.00    +0.209 HD
ENDBRANCH  62  63
ENDBRANCH  12  62
BRANCH  17  65
ATOM     65  C   UNK A  3       27.078 -28.116  14.027  0.00  0.00    +0.187 C 
BRANCH  65  66
ATOM     66  O   UNK A  3       26.483 -27.628  15.232  0.00  0.00    -0.393 OA
ATOM     67  H   UNK A  3       25.546 -27.406  15.052  0.00  0.00    +0.209 HD
ENDBRANCH  65  66
ENDBRANCH  17  65
TORSDOF 15
ENDMDL
MODEL 3
REMARK VINA RESULT:      -5.7      2.533      7.551
REMARK  Name = *****
REMARK                            x       y       z     vdW  Elec       q    Type
REMARK                         _______ _______ _______ _____ _____    ______ ____
ROOT
ATOM      1  C   UNK A  3       23.425 -32.431   8.238  0.00  0.00    +0.194 C 
ATOM      2  C   UNK A  3       22.802 -33.040   9.509  0.00  0.00    +0.237 C 
ATOM      3  O   UNK A  3       23.424 -33.825  10.230  0.00  0.00    -0.274 OA
ATOM      4  N   UNK A  3       21.489 -32.763   9.812  0.00  0.00    -0.311 N 
ATOM      5  H   UNK A  3       21.127 -33.464  10.449  0.00  0.00    +0.149 HD
ATOM      6  C   UNK A  3       21.087 -31.420  10.246  0.00  0.00    +0.136 C 
ATOM      7  C   UNK A  3       21.323 -31.172  11.759  0.00  0.00    +0.176 C 
ATOM      8  C   UNK A  1       22.811 -31.297  12.151  0.00  0.00    +0.235 C 
ATOM      9  O   UNK A  1       23.664 -30.580  11.634  0.00  0.00    -0.274 OA
ATOM     10  N   SER A  2       23.100 -32.123  13.208  0.00  0.00    -0.300 N 
ATOM     11  H   SER A  2       22.456 -32.884  13.386  0.00  0.00    +0.150 HD
ATOM     12  CA  SER A  2       24.441 -32.318  13.810  0.00  0.00    +0.184 C 
ATOM     13  C   SER A  2       25.107 -30.957  14.148  0.00  0.00    +0.236 C 
ATOM     14  O   SER A  2       24.708 -30.255  15.078  0.00  0.00    -0.274 OA
ATOM     15  N   UNK A  3       26.008 -30.465  13.221  0.00  0.00    -0.300 N 
ATOM     16  H   UNK A  3       26.219 -31.019  12.404  0.00  0.00    +0.150 HD
ATOM     17  C   UNK A  3       26.188 -29.012  13.058  0.00  0.00    +0.185 C 
ATOM     18  C   UNK A  3       26.496 -28.701  11.563  0.00  0.00    +0.240 C 
ATOM     19  O   UNK A  3       27.220 -27.770  11.223  0.00  0.00    -0.273 OA
ATOM     20  N   UNK A  3       25.733 -29.484  10.698  0.00  0.00    -0.279 N 
ATOM     21  H   UNK A  3       24.981 -30.002  11.158  0.00  0.00    +0.155 HD
ATOM     22  C   UNK A  3       25.543 -29.377   9.327  0.00  0.00    +0.110 C 
ATOM     23  C   UNK A  3       26.228 -28.557   8.517  0.00  0.00    +0.104 C 
ATOM     24  C   UNK A  3       24.369 -30.162   8.762  0.00  0.00    +0.260 C 
ATOM     25  O   UNK A  3       23.325 -29.584   8.476  0.00  0.00    -0.269 OA
ATOM     26  N   UNK A  3       24.541 -31.529   8.643  0.00  0.00    -0.296 N 
ATOM     27  H   UNK A  3       25.399 -31.951   8.975  0.00  0.00    +0.150 HD
ENDROOT
BRANCH   1  33
ATOM     28  N   UNK A  3       27.046 -32.310   6.435  0.00  0.00    -0.134 NA
ATOM     29  H   UNK A  3       27.289 -31.676   5.673  0.00  0.00    +0.306 HD
ATOM     30  C   UNK A  3       25.858 -32.762   6.247  0.00  0.00    +0.362 C 
ATOM     31  N   UNK A  3       25.330 -33.624   7.135  0.00  0.00    -0.234 N 
ATOM     32  H   UNK A  3       25.942 -33.778   7.927  0.00  0.00    +0.245 HD
ATOM     33  C   UNK A  3       23.901 -33.669   7.390  0.00  0.00    +0.168 C 
ATOM     34  C   UNK A  3       23.214 -33.825   6.019  0.00  0.00    +0.075 C 
ATOM     35  C   UNK A  3       23.688 -32.773   5.025  0.00  0.00    +0.188 C 
ATOM     36  N   UNK A  3       25.074 -32.413   5.207  0.00  0.00    -0.238 N 
ATOM     37  H   UNK A  3       25.434 -31.722   4.562  0.00  0.00    +0.244 HD
ENDBRANCH   1  33
BRANCH  23  38
ATOM     38  N   UNK A  3       25.919 -28.307   7.195  0.00  0.00    -0.274 N 
ATOM     39  H   UNK A  3       25.729 -29.091   6.578  0.00  0.00    +0.156 HD
ATOM     40  C   UNK A  3       25.796 -27.062   6.660  0.00  0.00    +0.301 C 
ATOM     41  O   UNK A  3       25.953 -25.989   7.270  0.00  0.00    -0.253 OA
ATOM     42  N   UNK A  3       25.534 -27.057   5.333  0.00  0.00    -0.313 N 
ATOM     43  H   UNK A  3       24.956 -27.783   4.938  0.00  0.00    +0.146 HD
ATOM     44  H   UNK A  3       25.415 -26.133   4.936  0.00  0.00    +0.146 HD
ENDBRANCH  23  38
BRANCH   7  45
ATOM     45  N   UNK A  3       20.896 -29.815  12.160  0.00  0.00    -0.303 N 
ATOM     46  H   UNK A  1       21.129 -29.070  11.516  0.00  0.00    +0.149 HD
ATOM     47  C   UNK A  0       20.521 -29.521  13.447  0.00  0.00    +0.215 C 
ATOM     48  O   UNK A  0       20.430 -30.412  14.292  0.00  0.00    -0.276 OA
BRANCH  47  49
ATOM     49  C   UNK A  0       20.204 -28.073  13.828  0.00  0.00    +0.116 C 
BRANCH  49  50
ATOM     50  C   UNK A  0       21.233 -27.256  14.612  0.00  0.00    +0.088 C 
BRANCH  50  51
ATOM     51  N   UNK A  0       20.550 -26.131  15.295  0.00  0.00    -0.325 NA
ATOM     52  H   UNK A  0       21.210 -25.345  15.304  0.00  0.00    +0.119 HD
ATOM     53  H   UNK A  0       19.795 -25.792  14.697  0.00  0.00    +0.119 HD
ENDBRANCH  50  51
BRANCH  50  54
ATOM     54  C   UNK A  0       22.433 -26.705  13.784  0.00  0.00    +0.133 C 
BRANCH  54  55
ATOM     55  O   UNK A  0       22.875 -27.793  12.956  0.00  0.00    -0.390 OA
ATOM     56  H   UNK A  0       23.747 -27.567  12.591  0.00  0.00    +0.210 HD
ENDBRANCH  54  55
BRANCH  54  57
ATOM     57  C   UNK A  0       23.618 -26.158  14.605  0.00  0.00    +0.048 C 
BRANCH  57  58
ATOM     58  C   UNK A  0       24.594 -25.377  13.716  0.00  0.00    +0.080 C 
BRANCH  58  59
ATOM     59  N   UNK A  0       25.902 -25.214  14.339  0.00  0.00    -0.330 NA
ATOM     60  H   UNK A  0       26.461 -24.570  13.775  0.00  0.00    +0.118 HD
ATOM     61  H   UNK A  0       26.413 -26.098  14.321  0.00  0.00    +0.118 HD
ENDBRANCH  58  59
ENDBRANCH  57  58
ENDBRANCH  54  57
ENDBRANCH  50  54
ENDBRANCH  49  50
ENDBRANCH  47  49
ENDBRANCH   7  45
BRANCH  12  62
ATOM     62  CB  SER A  2       25.335 -33.328  13.076  0.00  0.00    +0.187 C 
BRANCH  62  63
ATOM     63  OG  SER A  2       25.662 -32.843  11.774  0.00  0.00    -0.393 OA
ATOM     64  H   SER A  2       25.692 -31.869  11.828  0.00  0.00    +0.209 HD
ENDBRANCH  62  63
ENDBRANCH  12  62
BRANCH  17  65
ATOM     65  C   UNK A  3       27.228 -28.394  14.007  0.00  0.00    +0.187 C 
BRANCH  65  66
ATOM     66  O   UNK A  3       26.694 -28.018  15.278  0.00  0.00    -0.393 OA
ATOM     67  H   UNK A  3       27.052 -27.139  15.522  0.00  0.00    +0.209 HD
ENDBRANCH  65  66
ENDBRANCH  17  65
TORSDOF 15
ENDMDL
MODEL 4
REMARK VINA RESULT:      -5.4      2.258      3.901
REMARK  Name = *****
REMARK                            x       y       z     vdW  Elec       q    Type
REMARK                         _______ _______ _______ _____ _____    ______ ____
ROOT
ATOM      1  C   UNK A  3       25.919 -29.179  13.243  0.00  0.00    +0.194 C 
ATOM      2  C   UNK A  3       26.633 -29.899  12.083  0.00  0.00    +0.237 C 
ATOM      3  O   UNK A  3       26.858 -31.112  12.107  0.00  0.00    -0.274 OA
ATOM      4  N   UNK A  3       27.101 -29.161  11.021  0.00  0.00    -0.311 N 
ATOM      5  H   UNK A  3       27.813 -29.685  10.524  0.00  0.00    +0.149 HD
ATOM      6  C   UNK A  3       26.171 -28.535  10.074  0.00  0.00    +0.136 C 
ATOM      7  C   UNK A  3       25.674 -29.509   8.973  0.00  0.00    +0.176 C 
ATOM      8  C   UNK A  1       24.909 -30.716   9.557  0.00  0.00    +0.235 C 
ATOM      9  O   UNK A  1       23.899 -30.556  10.237  0.00  0.00    -0.274 OA
ATOM     10  N   SER A  2       25.317 -31.959   9.143  0.00  0.00    -0.300 N 
ATOM     11  H   SER A  2       26.284 -32.053   8.856  0.00  0.00    +0.150 HD
ATOM     12  CA  SER A  2       24.669 -33.244   9.502  0.00  0.00    +0.184 C 
ATOM     13  C   SER A  2       23.141 -33.195   9.233  0.00  0.00    +0.236 C 
ATOM     14  O   SER A  2       22.685 -33.195   8.089  0.00  0.00    -0.274 OA
ATOM     15  N   UNK A  3       22.334 -32.916  10.320  0.00  0.00    -0.300 N 
ATOM     16  H   UNK A  3       22.760 -32.799  11.228  0.00  0.00    +0.150 HD
ATOM     17  C   UNK A  3       21.052 -32.213  10.134  0.00  0.00    +0.185 C 
ATOM     18  C   UNK A  3       20.783 -31.306  11.372  0.00  0.00    +0.240 C 
ATOM     19  O   UNK A  3       19.650 -31.075  11.782  0.00  0.00    -0.273 OA
ATOM     20  N   UNK A  3       21.945 -30.683  11.826  0.00  0.00    -0.279 N 
ATOM     21  H   UNK A  3       22.742 -30.771  11.190  0.00  0.00    +0.155 HD
ATOM     22  C   UNK A  3       22.109 -29.653  12.742  0.00  0.00    +0.110 C 
ATOM     23  C   UNK A  3       21.138 -29.157  13.523  0.00  0.00    +0.104 C 
ATOM     24  C   UNK A  3       23.468 -28.971  12.731  0.00  0.00    +0.260 C 
ATOM     25  O   UNK A  3       23.601 -27.878  12.190  0.00  0.00    -0.269 OA
ATOM     26  N   UNK A  3       24.513 -29.667  13.311  0.00  0.00    -0.296 N 
ATOM     27  H   UNK A  3       24.348 -30.601  13.666  0.00  0.00    +0.150 HD
ENDROOT
BRANCH   1  33
ATOM     28  N   UNK A  3       27.442 -26.185  15.500  0.00  0.00    -0.134 NA
ATOM     29  H   UNK A  3       28.165 -25.536  15.185  0.00  0.00    +0.306 HD
ATOM     30  C   UNK A  3       27.732 -27.369  15.097  0.00  0.00    +0.362 C 
ATOM     31  N   UNK A  3       26.912 -28.392  15.403  0.00  0.00    -0.234 N 
ATOM     32  H   UNK A  3       26.081 -28.080  15.892  0.00  0.00    +0.245 HD
ATOM     33  C   UNK A  3       26.766 -29.536  14.521  0.00  0.00    +0.168 C 
ATOM     34  C   UNK A  3       28.188 -30.058  14.239  0.00  0.00    +0.075 C 
ATOM     35  C   UNK A  3       29.112 -28.949  13.754  0.00  0.00    +0.188 C 
ATOM     36  N   UNK A  3       28.816 -27.669  14.355  0.00  0.00    -0.238 N 
ATOM     37  H   UNK A  3       29.412 -26.904  14.067  0.00  0.00    +0.244 HD
ENDBRANCH   1  33
BRANCH  23  38
ATOM     38  N   UNK A  3       21.243 -28.016  14.293  0.00  0.00    -0.274 N 
ATOM     39  H   UNK A  3       22.135 -27.797  14.727  0.00  0.00    +0.156 HD
ATOM     40  C   UNK A  3       20.237 -27.118  14.473  0.00  0.00    +0.301 C 
ATOM     41  O   UNK A  3       19.094 -27.199  13.990  0.00  0.00    -0.253 OA
ATOM     42  N   UNK A  3       20.552 -26.099  15.305  0.00  0.00    -0.313 N 
ATOM     43  H   UNK A  3       21.493 -25.738  15.315  0.00  0.00    +0.146 HD
ATOM     44  H   UNK A  3       19.815 -25.414  15.421  0.00  0.00    +0.146 HD
ENDBRANCH  23  38
BRANCH   7  45
ATOM     45  N   UNK A  3       24.750 -28.841   8.034  0.00  0.00    -0.303 N 
ATOM     46  H   UNK A  1       23.797 -29.182   8.034  0.00  0.00    +0.149 HD
ATOM     47  C   UNK A  0       25.202 -28.057   7.001  0.00  0.00    +0.215 C 
ATOM     48  O   UNK A  0       26.401 -27.804   6.886  0.00  0.00    -0.276 OA
BRANCH  47  49
ATOM     49  C   UNK A  0       24.202 -27.491   5.991  0.00  0.00    +0.116 C 
BRANCH  49  50
ATOM     50  C   UNK A  0       24.364 -26.054   5.491  0.00  0.00    +0.088 C 
BRANCH  50  51
ATOM     51  N   UNK A  0       25.636 -25.935   4.738  0.00  0.00    -0.325 NA
ATOM     52  H   UNK A  0       26.097 -25.080   5.070  0.00  0.00    +0.119 HD
ATOM     53  H   UNK A  0       26.271 -26.673   5.046  0.00  0.00    +0.119 HD
ENDBRANCH  50  51
BRANCH  50  54
ATOM     54  C   UNK A  0       24.305 -24.946   6.586  0.00  0.00    +0.133 C 
BRANCH  54  55
ATOM     55  O   UNK A  0       23.074 -24.239   6.370  0.00  0.00    -0.390 OA
ATOM     56  H   UNK A  0       22.874 -23.718   7.166  0.00  0.00    +0.210 HD
ENDBRANCH  54  55
BRANCH  54  57
ATOM     57  C   UNK A  0       25.484 -23.952   6.595  0.00  0.00    +0.048 C 
BRANCH  57  58
ATOM     58  C   UNK A  0       25.047 -22.571   6.090  0.00  0.00    +0.080 C 
BRANCH  58  59
ATOM     59  N   UNK A  0       24.744 -22.573   4.664  0.00  0.00    -0.330 NA
ATOM     60  H   UNK A  0       24.157 -21.765   4.447  0.00  0.00    +0.118 HD
ATOM     61  H   UNK A  0       24.176 -23.387   4.426  0.00  0.00    +0.118 HD
ENDBRANCH  58  59
ENDBRANCH  57  58
ENDBRANCH  54  57
ENDBRANCH  50  54
ENDBRANCH  49  50
ENDBRANCH  47  49
ENDBRANCH   7  45
BRANCH  12  62
ATOM     62  CB  SER A  2       25.084 -33.816  10.865  0.00  0.00    +0.187 C 
BRANCH  62  63
ATOM     63  OG  SER A  2       24.689 -32.930  11.912  0.00  0.00    -0.393 OA
ATOM     64  H   SER A  2       24.681 -32.027  11.540  0.00  0.00    +0.209 HD
ENDBRANCH  62  63
ENDBRANCH  12  62
BRANCH  17  65
ATOM     65  C   UNK A  3       19.864 -33.136   9.821  0.00  0.00    +0.187 C 
BRANCH  65  66
ATOM     66  O   UNK A  3       18.680 -32.437   9.432  0.00  0.00    -0.393 OA
ATOM     67  H   UNK A  3       18.188 -32.986   8.787  0.00  0.00    +0.209 HD
ENDBRANCH  65  66
ENDBRANCH  17  65
TORSDOF 15
ENDMDL
MODEL 5
REMARK VINA RESULT:      -4.9      2.717      8.515
REMARK  Name = *****
REMARK                            x       y       z     vdW  Elec       q    Type
REMARK                         _______ _______ _______ _____ _____    ______ ____
ROOT
ATOM      1  C   UNK A  3       21.200 -32.099  11.438  0.00  0.00    +0.194 C 
ATOM      2  C   UNK A  3       21.139 -31.645  12.910  0.00  0.00    +0.237 C 
ATOM      3  O   UNK A  3       21.623 -32.319  13.822  0.00  0.00    -0.274 OA
ATOM      4  N   UNK A  3       20.460 -30.492  13.228  0.00  0.00    -0.311 N 
ATOM      5  H   UNK A  3       20.218 -30.495  14.213  0.00  0.00    +0.149 HD
ATOM      6  C   UNK A  3       20.984 -29.179  12.834  0.00  0.00    +0.136 C 
ATOM      7  C   UNK A  3       22.055 -28.630  13.814  0.00  0.00    +0.176 C 
ATOM      8  C   UNK A  1       23.292 -29.551  13.909  0.00  0.00    +0.235 C 
ATOM      9  O   UNK A  1       23.961 -29.816  12.914  0.00  0.00    -0.274 OA
ATOM     10  N   SER A  2       23.689 -29.914  15.171  0.00  0.00    -0.300 N 
ATOM     11  H   SER A  2       22.975 -29.936  15.890  0.00  0.00    +0.150 HD
ATOM     12  CA  SER A  2       24.897 -30.710  15.499  0.00  0.00    +0.184 C 
ATOM     13  C   SER A  2       26.160 -30.120  14.817  0.00  0.00    +0.236 C 
ATOM     14  O   SER A  2       26.663 -29.060  15.192  0.00  0.00    -0.274 OA
ATOM     15  N   UNK A  3       26.552 -30.712  13.630  0.00  0.00    -0.300 N 
ATOM     16  H   UNK A  3       26.036 -31.510  13.289  0.00  0.00    +0.150 HD
ATOM     17  C   UNK A  3       27.240 -29.920  12.596  0.00  0.00    +0.185 C 
ATOM     18  C   UNK A  3       26.822 -30.446  11.190  0.00  0.00    +0.240 C 
ATOM     19  O   UNK A  3       27.584 -30.422  10.228  0.00  0.00    -0.273 OA
ATOM     20  N   UNK A  3       25.468 -30.775  11.135  0.00  0.00    -0.279 N 
ATOM     21  H   UNK A  3       24.930 -30.463  11.947  0.00  0.00    +0.155 HD
ATOM     22  C   UNK A  3       24.662 -31.066  10.043  0.00  0.00    +0.110 C 
ATOM     23  C   UNK A  3       25.102 -31.257   8.791  0.00  0.00    +0.104 C 
ATOM     24  C   UNK A  3       23.164 -31.020  10.300  0.00  0.00    +0.260 C 
ATOM     25  O   UNK A  3       22.507 -30.052   9.930  0.00  0.00    -0.269 OA
ATOM     26  N   UNK A  3       22.624 -32.086  10.997  0.00  0.00    -0.296 N 
ATOM     27  H   UNK A  3       23.238 -32.811  11.345  0.00  0.00    +0.150 HD
ENDROOT
BRANCH   1  33
ATOM     28  N   UNK A  3       18.405 -33.001   8.655  0.00  0.00    -0.134 NA
ATOM     29  H   UNK A  3       17.479 -32.573   8.608  0.00  0.00    +0.306 HD
ATOM     30  C   UNK A  3       18.697 -33.243   9.882  0.00  0.00    +0.362 C 
ATOM     31  N   UNK A  3       19.879 -33.814  10.181  0.00  0.00    -0.234 N 
ATOM     32  H   UNK A  3       20.460 -33.938   9.361  0.00  0.00    +0.245 HD
ATOM     33  C   UNK A  3       20.559 -33.537  11.434  0.00  0.00    +0.168 C 
ATOM     34  C   UNK A  3       19.538 -33.802  12.557  0.00  0.00    +0.075 C 
ATOM     35  C   UNK A  3       18.232 -33.056  12.322  0.00  0.00    +0.188 C 
ATOM     36  N   UNK A  3       17.894 -32.942  10.922  0.00  0.00    -0.238 N 
ATOM     37  H   UNK A  3       17.028 -32.460  10.720  0.00  0.00    +0.244 HD
ENDBRANCH   1  33
BRANCH  23  38
ATOM     38  N   UNK A  3       24.298 -31.357   7.674  0.00  0.00    -0.274 N 
ATOM     39  H   UNK A  3       23.448 -31.912   7.727  0.00  0.00    +0.156 HD
ATOM     40  C   UNK A  3       24.535 -30.712   6.499  0.00  0.00    +0.301 C 
ATOM     41  O   UNK A  3       25.499 -29.963   6.262  0.00  0.00    -0.253 OA
ATOM     42  N   UNK A  3       23.639 -30.996   5.526  0.00  0.00    -0.313 N 
ATOM     43  H   UNK A  3       22.674 -31.159   5.771  0.00  0.00    +0.146 HD
ATOM     44  H   UNK A  3       23.796 -30.497   4.659  0.00  0.00    +0.146 HD
ENDBRANCH  23  38
BRANCH   7  45
ATOM     45  N   UNK A  3       22.551 -27.305  13.390  0.00  0.00    -0.303 N 
ATOM     46  H   UNK A  1       22.484 -27.103  12.401  0.00  0.00    +0.149 HD
ATOM     47  C   UNK A  0       23.349 -26.534  14.199  0.00  0.00    +0.215 C 
ATOM     48  O   UNK A  0       23.596 -26.885  15.353  0.00  0.00    -0.276 OA
BRANCH  47  49
ATOM     49  C   UNK A  0       23.929 -25.225  13.658  0.00  0.00    +0.116 C 
BRANCH  49  50
ATOM     50  C   UNK A  0       25.435 -25.107  13.418  0.00  0.00    +0.088 C 
BRANCH  50  51
ATOM     51  N   UNK A  0       25.997 -26.452  13.145  0.00  0.00    -0.325 NA
ATOM     52  H   UNK A  0       26.248 -26.857  14.053  0.00  0.00    +0.119 HD
ATOM     53  H   UNK A  0       25.246 -27.063  12.820  0.00  0.00    +0.119 HD
ENDBRANCH  50  51
BRANCH  50  54
ATOM     54  C   UNK A  0       26.251 -24.427  14.559  0.00  0.00    +0.133 C 
BRANCH  54  55
ATOM     55  O   UNK A  0       25.802 -23.064  14.609  0.00  0.00    -0.390 OA
ATOM     56  H   UNK A  0       25.994 -22.710  15.494  0.00  0.00    +0.210 HD
ENDBRANCH  54  55
BRANCH  54  57
ATOM     57  C   UNK A  0       27.785 -24.468  14.399  0.00  0.00    +0.048 C 
BRANCH  57  58
ATOM     58  C   UNK A  0       28.415 -25.472  15.374  0.00  0.00    +0.080 C 
BRANCH  58  59
ATOM     59  N   UNK A  0       28.590 -26.790  14.775  0.00  0.00    -0.330 NA
ATOM     60  H   UNK A  0       29.558 -26.888  14.462  0.00  0.00    +0.118 HD
ATOM     61  H   UNK A  0       28.026 -26.869  13.928  0.00  0.00    +0.118 HD
ENDBRANCH  58  59
ENDBRANCH  57  58
ENDBRANCH  54  57
ENDBRANCH  50  54
ENDBRANCH  49  50
ENDBRANCH  47  49
ENDBRANCH   7  45
BRANCH  12  62
ATOM     62  CB  SER A  2       24.722 -32.230  15.368  0.00  0.00    +0.187 C 
BRANCH  62  63
ATOM     63  OG  SER A  2       24.458 -32.579  14.009  0.00  0.00    -0.393 OA
ATOM     64  H   SER A  2       23.942 -31.849  13.617  0.00  0.00    +0.209 HD
ENDBRANCH  62  63
ENDBRANCH  12  62
BRANCH  17  65
ATOM     65  C   UNK A  3       28.766 -29.854  12.761  0.00  0.00    +0.187 C 
BRANCH  65  66
ATOM     66  O   UNK A  3       29.421 -29.092  11.745  0.00  0.00    -0.393 OA
ATOM     67  H   UNK A  3       28.757 -28.823  11.076  0.00  0.00    +0.209 HD
ENDBRANCH  65  66
ENDBRANCH  17  65
TORSDOF 15
ENDMDL
MODEL 6
REMARK VINA RESULT:      -4.2      1.987      2.614
REMARK  Name = *****
REMARK                            x       y       z     vdW  Elec       q    Type
REMARK                         _______ _______ _______ _____ _____    ______ ____
ROOT
ATOM      1  C   UNK A  3       26.414 -29.848  13.552  0.00  0.00    +0.194 C 
ATOM      2  C   UNK A  3       26.340 -31.306  13.058  0.00  0.00    +0.237 C 
ATOM      3  O   UNK A  3       25.915 -32.217  13.773  0.00  0.00    -0.274 OA
ATOM      4  N   UNK A  3       26.830 -31.618  11.811  0.00  0.00    -0.311 N 
ATOM      5  H   UNK A  3       27.023 -32.612  11.756  0.00  0.00    +0.149 HD
ATOM      6  C   UNK A  3       26.142 -31.161  10.599  0.00  0.00    +0.136 C 
ATOM      7  C   UNK A  3       24.958 -32.076  10.187  0.00  0.00    +0.176 C 
ATOM      8  C   UNK A  1       23.863 -32.146  11.274  0.00  0.00    +0.235 C 
ATOM      9  O   UNK A  1       23.287 -31.132  11.657  0.00  0.00    -0.274 OA
ATOM     10  N   SER A  2       23.463 -33.400  11.661  0.00  0.00    -0.300 N 
ATOM     11  H   SER A  2       24.138 -34.149  11.562  0.00  0.00    +0.150 HD
ATOM     12  CA  SER A  2       22.368 -33.700  12.615  0.00  0.00    +0.184 C 
ATOM     13  C   SER A  2       21.067 -32.946  12.231  0.00  0.00    +0.236 C 
ATOM     14  O   SER A  2       20.400 -33.265  11.246  0.00  0.00    -0.274 OA
ATOM     15  N   UNK A  3       20.821 -31.762  12.902  0.00  0.00    -0.300 N 
ATOM     16  H   UNK A  3       21.462 -31.468  13.625  0.00  0.00    +0.150 HD
ATOM     17  C   UNK A  3       20.076 -30.675  12.244  0.00  0.00    +0.185 C 
ATOM     18  C   UNK A  3       20.631 -29.305  12.738  0.00  0.00    +0.240 C 
ATOM     19  O   UNK A  3       19.920 -28.311  12.847  0.00  0.00    -0.273 OA
ATOM     20  N   UNK A  3       22.019 -29.319  12.868  0.00  0.00    -0.279 N 
ATOM     21  H   UNK A  3       22.468 -30.144  12.462  0.00  0.00    +0.155 HD
ATOM     22  C   UNK A  3       22.910 -28.273  13.066  0.00  0.00    +0.110 C 
ATOM     23  C   UNK A  3       22.562 -27.009  13.349  0.00  0.00    +0.104 C 
ATOM     24  C   UNK A  3       24.372 -28.593  12.797  0.00  0.00    +0.260 C 
ATOM     25  O   UNK A  3       24.899 -28.222  11.753  0.00  0.00    -0.269 OA
ATOM     26  N   UNK A  3       25.026 -29.346  13.756  0.00  0.00    -0.296 N 
ATOM     27  H   UNK A  3       24.506 -29.688  14.554  0.00  0.00    +0.150 HD
ENDROOT
BRANCH   1  33
ATOM     28  N   UNK A  3       27.888 -26.425  15.127  0.00  0.00    -0.134 NA
ATOM     29  H   UNK A  3       28.607 -25.850  14.685  0.00  0.00    +0.306 HD
ATOM     30  C   UNK A  3       28.193 -27.665  14.988  0.00  0.00    +0.362 C 
ATOM     31  N   UNK A  3       27.381 -28.608  15.500  0.00  0.00    -0.234 N 
ATOM     32  H   UNK A  3       26.544 -28.209  15.906  0.00  0.00    +0.245 HD
ATOM     33  C   UNK A  3       27.254 -29.916  14.882  0.00  0.00    +0.168 C 
ATOM     34  C   UNK A  3       28.684 -30.469  14.725  0.00  0.00    +0.075 C 
ATOM     35  C   UNK A  3       29.600 -29.478  14.020  0.00  0.00    +0.188 C 
ATOM     36  N   UNK A  3       29.287 -28.103  14.333  0.00  0.00    -0.238 N 
ATOM     37  H   UNK A  3       29.877 -27.410  13.892  0.00  0.00    +0.244 HD
ENDBRANCH   1  33
BRANCH  23  38
ATOM     38  N   UNK A  3       23.424 -25.932  13.358  0.00  0.00    -0.274 N 
ATOM     39  H   UNK A  3       23.291 -25.190  12.677  0.00  0.00    +0.156 HD
ATOM     40  C   UNK A  3       24.424 -25.759  14.264  0.00  0.00    +0.301 C 
ATOM     41  O   UNK A  3       24.710 -26.539  15.190  0.00  0.00    -0.253 OA
ATOM     42  N   UNK A  3       25.173 -24.653  14.052  0.00  0.00    -0.313 N 
ATOM     43  H   UNK A  3       24.737 -23.819  13.690  0.00  0.00    +0.146 HD
ATOM     44  H   UNK A  3       25.902 -24.506  14.740  0.00  0.00    +0.146 HD
ENDBRANCH  23  38
BRANCH   7  45
ATOM     45  N   UNK A  3       24.298 -31.591   8.958  0.00  0.00    -0.303 N 
ATOM     46  H   UNK A  1       23.354 -31.243   9.071  0.00  0.00    +0.149 HD
ATOM     47  C   UNK A  0       24.777 -31.892   7.707  0.00  0.00    +0.215 C 
ATOM     48  O   UNK A  0       25.840 -32.498   7.573  0.00  0.00    -0.276 OA
BRANCH  47  49
ATOM     49  C   UNK A  0       23.983 -31.461   6.472  0.00  0.00    +0.116 C 
BRANCH  49  50
ATOM     50  C   UNK A  0       24.512 -30.329   5.589  0.00  0.00    +0.088 C 
BRANCH  50  51
ATOM     51  N   UNK A  0       25.804 -30.738   4.988  0.00  0.00    -0.325 NA
ATOM     52  H   UNK A  0       25.720 -31.733   4.753  0.00  0.00    +0.119 HD
ATOM     53  H   UNK A  0       25.897 -30.293   4.073  0.00  0.00    +0.119 HD
ENDBRANCH  50  51
BRANCH  50  54
ATOM     54  C   UNK A  0       24.682 -28.947   6.291  0.00  0.00    +0.133 C 
BRANCH  54  55
ATOM     55  O   UNK A  0       23.771 -28.952   7.401  0.00  0.00    -0.390 OA
ATOM     56  H   UNK A  0       23.327 -28.088   7.438  0.00  0.00    +0.210 HD
ENDBRANCH  54  55
BRANCH  54  57
ATOM     57  C   UNK A  0       24.421 -27.712   5.405  0.00  0.00    +0.048 C 
BRANCH  57  58
ATOM     58  C   UNK A  0       25.739 -27.083   4.933  0.00  0.00    +0.080 C 
BRANCH  58  59
ATOM     59  N   UNK A  0       26.742 -27.037   5.990  0.00  0.00    -0.330 NA
ATOM     60  H   UNK A  0       27.143 -26.099   6.028  0.00  0.00    +0.118 HD
ATOM     61  H   UNK A  0       27.523 -27.653   5.759  0.00  0.00    +0.118 HD
ENDBRANCH  58  59
ENDBRANCH  57  58
ENDBRANCH  54  57
ENDBRANCH  50  54
ENDBRANCH  49  50
ENDBRANCH  47  49
ENDBRANCH   7  45
BRANCH  12  62
ATOM     62  CB  SER A  2       22.766 -33.623  14.096  0.00  0.00    +0.187 C 
BRANCH  62  63
ATOM     63  OG  SER A  2       23.117 -32.284  14.443  0.00  0.00    -0.393 OA
ATOM     64  H   SER A  2       22.296 -31.828  14.706  0.00  0.00    +0.209 HD
ENDBRANCH  62  63
ENDBRANCH  12  62
BRANCH  17  65
ATOM     65  C   UNK A  3       18.550 -30.772  12.395  0.00  0.00    +0.187 C 
BRANCH  65  66
ATOM     66  O   UNK A  3       17.878 -31.163  11.195  0.00  0.00    -0.393 OA
ATOM     67  H   UNK A  3       18.530 -31.192  10.464  0.00  0.00    +0.209 HD
ENDBRANCH  65  66
ENDBRANCH  17  65
TORSDOF 15
ENDMDL
MODEL 7
REMARK VINA RESULT:      -3.3      2.007      2.722
REMARK  Name = *****
REMARK                            x       y       z     vdW  Elec       q    Type
REMARK                         _______ _______ _______ _____ _____    ______ ____
ROOT
ATOM      1  C   UNK A  3       27.827 -29.056  12.066  0.00  0.00    +0.194 C 
ATOM      2  C   UNK A  3       27.607 -30.006  10.872  0.00  0.00    +0.237 C 
ATOM      3  O   UNK A  3       27.338 -31.199  11.028  0.00  0.00    -0.274 OA
ATOM      4  N   UNK A  3       27.787 -29.530   9.594  0.00  0.00    -0.311 N 
ATOM      5  H   UNK A  3       27.938 -30.305   8.957  0.00  0.00    +0.149 HD
ATOM      6  C   UNK A  3       26.847 -28.565   9.013  0.00  0.00    +0.136 C 
ATOM      7  C   UNK A  3       25.579 -29.232   8.416  0.00  0.00    +0.176 C 
ATOM      8  C   UNK A  1       24.765 -30.004   9.477  0.00  0.00    +0.235 C 
ATOM      9  O   UNK A  1       24.317 -29.434  10.468  0.00  0.00    -0.274 OA
ATOM     10  N   SER A  2       24.437 -31.301   9.173  0.00  0.00    -0.300 N 
ATOM     11  H   SER A  2       25.053 -31.795   8.538  0.00  0.00    +0.150 HD
ATOM     12  CA  SER A  2       23.587 -32.192  10.000  0.00  0.00    +0.184 C 
ATOM     13  C   SER A  2       22.250 -31.500  10.377  0.00  0.00    +0.236 C 
ATOM     14  O   SER A  2       21.365 -31.302   9.543  0.00  0.00    -0.274 OA
ATOM     15  N   UNK A  3       22.194 -30.910  11.627  0.00  0.00    -0.300 N 
ATOM     16  H   UNK A  3       22.991 -30.989  12.240  0.00  0.00    +0.150 HD
ATOM     17  C   UNK A  3       21.341 -29.730  11.854  0.00  0.00    +0.185 C 
ATOM     18  C   UNK A  3       22.027 -28.800  12.900  0.00  0.00    +0.240 C 
ATOM     19  O   UNK A  3       21.384 -28.113  13.687  0.00  0.00    -0.273 OA
ATOM     20  N   UNK A  3       23.407 -28.729  12.712  0.00  0.00    -0.279 N 
ATOM     21  H   UNK A  3       23.730 -29.143  11.834  0.00  0.00    +0.155 HD
ATOM     22  C   UNK A  3       24.343 -27.870  13.270  0.00  0.00    +0.110 C 
ATOM     23  C   UNK A  3       24.099 -27.013  14.272  0.00  0.00    +0.104 C 
ATOM     24  C   UNK A  3       25.695 -27.827  12.575  0.00  0.00    +0.260 C 
ATOM     25  O   UNK A  3       25.974 -26.891  11.833  0.00  0.00    -0.269 OA
ATOM     26  N   UNK A  3       26.536 -28.903  12.795  0.00  0.00    -0.296 N 
ATOM     27  H   UNK A  3       26.208 -29.681  13.353  0.00  0.00    +0.150 HD
ENDROOT
BRANCH   1  33
ATOM     28  N   UNK A  3       26.804 -30.945  15.495  0.00  0.00    -0.134 NA
ATOM     29  H   UNK A  3       26.437 -30.476  16.324  0.00  0.00    +0.306 HD
ATOM     30  C   UNK A  3       27.755 -30.240  14.996  0.00  0.00    +0.362 C 
ATOM     31  N   UNK A  3       28.391 -30.674  13.892  0.00  0.00    -0.234 N 
ATOM     32  H   UNK A  3       27.981 -31.524  13.526  0.00  0.00    +0.245 HD
ATOM     33  C   UNK A  3       28.951 -29.745  12.926  0.00  0.00    +0.168 C 
ATOM     34  C   UNK A  3       29.853 -28.778  13.718  0.00  0.00    +0.075 C 
ATOM     35  C   UNK A  3       29.120 -28.159  14.900  0.00  0.00    +0.188 C 
ATOM     36  N   UNK A  3       28.162 -29.058  15.500  0.00  0.00    -0.238 N 
ATOM     37  H   UNK A  3       27.657 -28.690  16.295  0.00  0.00    +0.244 HD
ENDBRANCH   1  33
BRANCH  23  38
ATOM     38  N   UNK A  3       24.964 -26.027  14.702  0.00  0.00    -0.274 N 
ATOM     39  H   UNK A  3       25.660 -26.257  15.406  0.00  0.00    +0.156 HD
ATOM     40  C   UNK A  3       24.990 -24.761  14.206  0.00  0.00    +0.301 C 
ATOM     41  O   UNK A  3       24.243 -24.311  13.319  0.00  0.00    -0.253 OA
ATOM     42  N   UNK A  3       25.890 -23.952  14.811  0.00  0.00    -0.313 N 
ATOM     43  H   UNK A  3       26.766 -24.335  15.131  0.00  0.00    +0.146 HD
ATOM     44  H   UNK A  3       25.931 -23.016  14.427  0.00  0.00    +0.146 HD
ENDBRANCH  23  38
BRANCH   7  45
ATOM     45  N   UNK A  3       24.662 -28.231   7.832  0.00  0.00    -0.303 N 
ATOM     46  H   UNK A  1       23.711 -28.250   8.175  0.00  0.00    +0.149 HD
ATOM     47  C   UNK A  0       24.967 -27.552   6.678  0.00  0.00    +0.215 C 
ATOM     48  O   UNK A  0       26.069 -27.685   6.145  0.00  0.00    -0.276 OA
BRANCH  47  49
ATOM     49  C   UNK A  0       23.927 -26.617   6.058  0.00  0.00    +0.116 C 
BRANCH  49  50
ATOM     50  C   UNK A  0       24.332 -25.198   5.651  0.00  0.00    +0.088 C 
BRANCH  50  51
ATOM     51  N   UNK A  0       25.800 -25.143   5.455  0.00  0.00    -0.325 NA
ATOM     52  H   UNK A  0       26.105 -26.097   5.228  0.00  0.00    +0.119 HD
ATOM     53  H   UNK A  0       25.999 -24.627   4.596  0.00  0.00    +0.119 HD
ENDBRANCH  50  51
BRANCH  50  54
ATOM     54  C   UNK A  0       23.897 -24.064   6.628  0.00  0.00    +0.133 C 
BRANCH  54  55
ATOM     55  O   UNK A  0       22.462 -24.040   6.594  0.00  0.00    -0.390 OA
ATOM     56  H   UNK A  0       22.146 -24.919   6.324  0.00  0.00    +0.210 HD
ENDBRANCH  54  55
BRANCH  54  57
ATOM     57  C   UNK A  0       24.452 -22.661   6.312  0.00  0.00    +0.048 C 
BRANCH  57  58
ATOM     58  C   UNK A  0       23.930 -21.622   7.313  0.00  0.00    +0.080 C 
BRANCH  58  59
ATOM     59  N   UNK A  0       23.200 -20.541   6.660  0.00  0.00    -0.330 NA
ATOM     60  H   UNK A  0       22.202 -20.652   6.848  0.00  0.00    +0.118 HD
ATOM     61  H   UNK A  0       23.291 -20.618   5.645  0.00  0.00    +0.118 HD
ENDBRANCH  58  59
ENDBRANCH  57  58
ENDBRANCH  54  57
ENDBRANCH  50  54
ENDBRANCH  49  50
ENDBRANCH  47  49
ENDBRANCH   7  45
BRANCH  12  62
ATOM     62  CB  SER A  2       24.319 -32.892  11.153  0.00  0.00    +0.187 C 
BRANCH  62  63
ATOM     63  OG  SER A  2       23.382 -33.557  12.001  0.00  0.00    -0.393 OA
ATOM     64  H   SER A  2       22.765 -32.879  12.336  0.00  0.00    +0.209 HD
ENDBRANCH  62  63
ENDBRANCH  12  62
BRANCH  17  65
ATOM     65  C   UNK A  3       19.890 -30.062  12.235  0.00  0.00    +0.187 C 
BRANCH  65  66
ATOM     66  O   UNK A  3       19.085 -30.471  11.127  0.00  0.00    -0.393 OA
ATOM     67  H   UNK A  3       19.173 -31.441  11.016  0.00  0.00    +0.209 HD
ENDBRANCH  65  66
ENDBRANCH  17  65
TORSDOF 15
ENDMDL
