MODEL 1
REMARK VINA RESULT:      -9.3      0.000      0.000
REMARK  Name = *****
REMARK                            x       y       z     vdW  Elec       q    Type
REMARK                         _______ _______ _______ _____ _____    ______ ____
ROOT
ATOM      1  C   LIG    1       29.028 -19.359   7.032  0.00  0.00    +0.010 A 
ATOM      2  C   LIG    1       28.781 -18.954   5.717  0.00  0.00    +0.121 A 
ATOM      3  C   LIG    1       27.670 -19.422   5.018  0.00  0.00    +0.047 A 
ATOM      4  C   LIG    1       26.789 -20.323   5.625  0.00  0.00    +0.027 A 
ATOM      5  C   LIG    1       26.985 -20.748   6.938  0.00  0.00    +0.032 A 
ATOM      6  C   LIG    1       28.083 -20.212   7.641  0.00  0.00    +0.031 A 
ENDROOT
BRANCH   2   7
ATOM      7  O   LIG    1       29.646 -18.090   5.107  0.00  0.00    -0.506 OA
ATOM      8  H   LIG    1       29.136 -17.366   4.706  0.00  0.00    +0.292 HD
ENDBRANCH   2   7
BRANCH   5   9
ATOM      9  N   LIG    1       26.137 -21.656   7.609  0.00  0.00    -0.314 N 
ATOM     10  H   LIG    1       26.424 -21.777   8.573  0.00  0.00    +0.152 HD
BRANCH   9  11
ATOM     11  C   LIG    1       24.967 -22.373   7.258  0.00  0.00    +0.042 A 
ATOM     12  C   LIG    1       25.037 -23.740   6.821  0.00  0.00    +0.022 A 
ATOM     13  C   LIG    1       23.819 -24.411   6.571  0.00  0.00    +0.074 A 
ATOM     14  C   LIG    1       23.814 -25.737   6.162  0.00  0.00    +0.048 A 
ATOM     15  C   LIG    1       25.003 -26.426   5.952  0.00  0.00    +0.043 A 
ATOM     16  C   LIG    1       26.217 -25.801   6.176  0.00  0.00    +0.021 A 
ATOM     17 CL   LIG    1       24.960 -28.052   5.391  0.00  0.00    -0.084 Cl
ATOM     18  N   LIG    1       22.616 -23.832   6.693  0.00  0.00    -0.255 NA
ATOM     19  C   LIG    1       22.582 -22.542   7.061  0.00  0.00    +0.113 A 
ATOM     20  C   LIG    1       26.241 -24.474   6.616  0.00  0.00    +0.013 A 
ATOM     21  C   LIG    1       23.700 -21.791   7.352  0.00  0.00    +0.043 A 
ENDBRANCH   9  11
ENDBRANCH   5   9
BRANCH   1  22
ATOM     22  C   LIG    1       30.244 -18.841   7.785  0.00  0.00    +0.123 C 
BRANCH  22  23
ATOM     23  N   LIG    1       30.518 -19.466   9.107  0.00  0.00    -0.299 NA
BRANCH  23  25
ATOM     24  C   LIG    1       31.007 -21.981   9.191  0.00  0.00    +0.020 C 
ATOM     25  C   LIG    1       31.513 -20.550   9.050  0.00  0.00    +0.081 C 
ENDBRANCH  23  25
BRANCH  23  26
ATOM     26  C   LIG    1       30.861 -18.411  10.081  0.00  0.00    +0.081 C 
ATOM     27  C   LIG    1       30.421 -17.013   9.658  0.00  0.00    +0.020 C 
ENDBRANCH  23  26
ENDBRANCH  22  23
ENDBRANCH   1  22
TORSDOF 7
ENDMDL
MODEL 2
REMARK VINA RESULT:      -8.5      2.067      3.181
REMARK  Name = *****
REMARK                            x       y       z     vdW  Elec       q    Type
REMARK                         _______ _______ _______ _____ _____    ______ ____
ROOT
ATOM      1  C   LIG    1       30.306 -19.045   8.651  0.00  0.00    +0.010 A 
ATOM      2  C   LIG    1       30.995 -20.259   8.728  0.00  0.00    +0.121 A 
ATOM      3  C   LIG    1       30.373 -21.461   8.394  0.00  0.00    +0.047 A 
ATOM      4  C   LIG    1       29.035 -21.467   7.987  0.00  0.00    +0.027 A 
ATOM      5  C   LIG    1       28.308 -20.282   7.883  0.00  0.00    +0.032 A 
ATOM      6  C   LIG    1       28.980 -19.077   8.171  0.00  0.00    +0.031 A 
ENDROOT
BRANCH   2   7
ATOM      7  O   LIG    1       32.297 -20.267   9.143  0.00  0.00    -0.506 OA
ATOM      8  H   LIG    1       32.620 -19.351   9.180  0.00  0.00    +0.292 HD
ENDBRANCH   2   7
BRANCH   5   9
ATOM      9  N   LIG    1       26.956 -20.218   7.483  0.00  0.00    -0.314 N 
ATOM     10  H   LIG    1       26.421 -19.617   8.100  0.00  0.00    +0.152 HD
BRANCH   9  11
ATOM     11  C   LIG    1       26.209 -20.747   6.402  0.00  0.00    +0.042 A 
ATOM     12  C   LIG    1       25.763 -22.112   6.405  0.00  0.00    +0.022 A 
ATOM     13  C   LIG    1       24.952 -22.540   5.329  0.00  0.00    +0.074 A 
ATOM     14  C   LIG    1       24.473 -23.841   5.279  0.00  0.00    +0.048 A 
ATOM     15  C   LIG    1       24.809 -24.765   6.261  0.00  0.00    +0.043 A 
ATOM     16  C   LIG    1       25.609 -24.390   7.326  0.00  0.00    +0.021 A 
ATOM     17 CL   LIG    1       24.243 -26.385   6.137  0.00  0.00    -0.084 Cl
ATOM     18  N   LIG    1       24.607 -21.749   4.303  0.00  0.00    -0.255 NA
ATOM     19  C   LIG    1       25.073 -20.490   4.304  0.00  0.00    +0.113 A 
ATOM     20  C   LIG    1       26.076 -23.074   7.408  0.00  0.00    +0.013 A 
ATOM     21  C   LIG    1       25.854 -19.955   5.306  0.00  0.00    +0.043 A 
ENDBRANCH   9  11
ENDBRANCH   5   9
BRANCH   1  22
ATOM     22  C   LIG    1       30.996 -17.740   9.019  0.00  0.00    +0.123 C 
BRANCH  22  23
ATOM     23  N   LIG    1       31.823 -17.756  10.255  0.00  0.00    -0.299 NA
BRANCH  23  25
ATOM     24  C   LIG    1       32.798 -15.474   9.610  0.00  0.00    +0.020 C 
ATOM     25  C   LIG    1       32.998 -16.871  10.188  0.00  0.00    +0.081 C 
ENDBRANCH  23  25
BRANCH  23  26
ATOM     26  C   LIG    1       30.959 -17.489  11.422  0.00  0.00    +0.081 C 
ATOM     27  C   LIG    1       31.720 -17.039  12.665  0.00  0.00    +0.020 C 
ENDBRANCH  23  26
ENDBRANCH  22  23
ENDBRANCH   1  22
TORSDOF 7
ENDMDL
MODEL 3
REMARK VINA RESULT:      -8.5      3.249      4.351
REMARK  Name = *****
REMARK                            x       y       z     vdW  Elec       q    Type
REMARK                         _______ _______ _______ _____ _____    ______ ____
ROOT
ATOM      1  C   LIG    1       30.731 -19.489   7.801  0.00  0.00    +0.010 A 
ATOM      2  C   LIG    1       31.139 -20.542   8.625  0.00  0.00    +0.121 A 
ATOM      3  C   LIG    1       30.382 -21.706   8.732  0.00  0.00    +0.047 A 
ATOM      4  C   LIG    1       29.185 -21.831   8.020  0.00  0.00    +0.027 A 
ATOM      5  C   LIG    1       28.740 -20.815   7.175  0.00  0.00    +0.032 A 
ATOM      6  C   LIG    1       29.557 -19.674   7.041  0.00  0.00    +0.031 A 
ENDROOT
BRANCH   2   7
ATOM      7  O   LIG    1       32.297 -20.422   9.342  0.00  0.00    -0.506 OA
ATOM      8  H   LIG    1       33.032 -20.264   8.726  0.00  0.00    +0.292 HD
ENDBRANCH   2   7
BRANCH   5   9
ATOM      9  N   LIG    1       27.542 -20.875   6.431  0.00  0.00    -0.314 N 
ATOM     10  H   LIG    1       27.732 -20.879   5.435  0.00  0.00    +0.152 HD
BRANCH   9  11
ATOM     11  C   LIG    1       26.169 -20.988   6.758  0.00  0.00    +0.042 A 
ATOM     12  C   LIG    1       25.154 -20.423   5.912  0.00  0.00    +0.022 A 
ATOM     13  C   LIG    1       23.805 -20.651   6.264  0.00  0.00    +0.074 A 
ATOM     14  C   LIG    1       22.776 -20.147   5.481  0.00  0.00    +0.048 A 
ATOM     15  C   LIG    1       23.044 -19.376   4.356  0.00  0.00    +0.043 A 
ATOM     16  C   LIG    1       24.352 -19.121   3.984  0.00  0.00    +0.021 A 
ATOM     17 CL   LIG    1       21.743 -18.721   3.441  0.00  0.00    -0.084 Cl
ATOM     18  N   LIG    1       23.430 -21.337   7.353  0.00  0.00    -0.255 NA
ATOM     19  C   LIG    1       24.398 -21.818   8.149  0.00  0.00    +0.113 A 
ATOM     20  C   LIG    1       25.402 -19.645   4.745  0.00  0.00    +0.013 A 
ATOM     21  C   LIG    1       25.746 -21.677   7.899  0.00  0.00    +0.043 A 
ENDBRANCH   9  11
ENDBRANCH   5   9
BRANCH   1  22
ATOM     22  C   LIG    1       31.566 -18.222   7.693  0.00  0.00    +0.123 C 
BRANCH  22  23
ATOM     23  N   LIG    1       31.341 -17.192   8.742  0.00  0.00    -0.299 NA
BRANCH  23  25
ATOM     24  C   LIG    1       30.367 -17.692  11.060  0.00  0.00    +0.020 C 
ATOM     25  C   LIG    1       30.151 -17.446   9.571  0.00  0.00    +0.081 C 
ENDBRANCH  23  25
BRANCH  23  26
ATOM     26  C   LIG    1       32.577 -17.025   9.532  0.00  0.00    +0.081 C 
ATOM     27  C   LIG    1       32.925 -15.571   9.836  0.00  0.00    +0.020 C 
ENDBRANCH  23  26
ENDBRANCH  22  23
ENDBRANCH   1  22
TORSDOF 7
ENDMDL
MODEL 4
REMARK VINA RESULT:      -8.4      4.172      8.392
REMARK  Name = *****
REMARK                            x       y       z     vdW  Elec       q    Type
REMARK                         _______ _______ _______ _____ _____    ______ ____
ROOT
ATOM      1  C   LIG    1       25.489 -21.304   5.976  0.00  0.00    +0.010 A 
ATOM      2  C   LIG    1       25.269 -22.532   6.606  0.00  0.00    +0.121 A 
ATOM      3  C   LIG    1       25.925 -22.858   7.792  0.00  0.00    +0.047 A 
ATOM      4  C   LIG    1       26.830 -21.957   8.362  0.00  0.00    +0.027 A 
ATOM      5  C   LIG    1       27.074 -20.715   7.778  0.00  0.00    +0.032 A 
ATOM      6  C   LIG    1       26.353 -20.388   6.612  0.00  0.00    +0.031 A 
ENDROOT
BRANCH   2   7
ATOM      7  O   LIG    1       24.402 -23.428   6.047  0.00  0.00    -0.506 OA
ATOM      8  H   LIG    1       23.804 -23.759   6.738  0.00  0.00    +0.292 HD
ENDBRANCH   2   7
BRANCH   5   9
ATOM      9  N   LIG    1       27.976 -19.762   8.299  0.00  0.00    -0.314 N 
ATOM     10  H   LIG    1       27.590 -19.305   9.117  0.00  0.00    +0.152 HD
BRANCH   9  11
ATOM     11  C   LIG    1       29.293 -19.353   7.975  0.00  0.00    +0.042 A 
ATOM     12  C   LIG    1       30.062 -18.541   8.877  0.00  0.00    +0.022 A 
ATOM     13  C   LIG    1       31.396 -18.246   8.518  0.00  0.00    +0.074 A 
ATOM     14  C   LIG    1       32.199 -17.481   9.352  0.00  0.00    +0.048 A 
ATOM     15  C   LIG    1       31.702 -16.955  10.538  0.00  0.00    +0.043 A 
ATOM     16  C   LIG    1       30.397 -17.211  10.921  0.00  0.00    +0.021 A 
ATOM     17 CL   LIG    1       32.710 -15.964  11.520  0.00  0.00    -0.084 Cl
ATOM     18  N   LIG    1       31.964 -18.659   7.376  0.00  0.00    -0.255 NA
ATOM     19  C   LIG    1       31.210 -19.380   6.532  0.00  0.00    +0.113 A 
ATOM     20  C   LIG    1       29.583 -18.005  10.107  0.00  0.00    +0.013 A 
ATOM     21  C   LIG    1       29.905 -19.747   6.782  0.00  0.00    +0.043 A 
ENDBRANCH   9  11
ENDBRANCH   5   9
BRANCH   1  22
ATOM     22  C   LIG    1       24.767 -20.960   4.681  0.00  0.00    +0.123 C 
BRANCH  22  23
ATOM     23  N   LIG    1       24.198 -19.588   4.586  0.00  0.00    -0.299 NA
BRANCH  23  25
ATOM     24  C   LIG    1       25.736 -17.952   3.349  0.00  0.00    +0.020 C 
ATOM     25  C   LIG    1       24.539 -18.896   3.332  0.00  0.00    +0.081 C 
ENDBRANCH  23  25
BRANCH  23  26
ATOM     26  C   LIG    1       22.746 -19.646   4.844  0.00  0.00    +0.081 C 
ATOM     27  C   LIG    1       21.990 -18.396   4.403  0.00  0.00    +0.020 C 
ENDBRANCH  23  26
ENDBRANCH  22  23
ENDBRANCH   1  22
TORSDOF 7
ENDMDL
MODEL 5
REMARK VINA RESULT:      -8.1      3.309      5.363
REMARK  Name = *****
REMARK                            x       y       z     vdW  Elec       q    Type
REMARK                         _______ _______ _______ _____ _____    ______ ____
ROOT
ATOM      1  C   LIG    1       25.468 -22.521   7.327  0.00  0.00    +0.010 A 
ATOM      2  C   LIG    1       24.095 -22.265   7.268  0.00  0.00    +0.121 A 
ATOM      3  C   LIG    1       23.196 -23.256   6.880  0.00  0.00    +0.047 A 
ATOM      4  C   LIG    1       23.663 -24.527   6.530  0.00  0.00    +0.027 A 
ATOM      5  C   LIG    1       25.021 -24.836   6.584  0.00  0.00    +0.032 A 
ATOM      6  C   LIG    1       25.901 -23.831   7.036  0.00  0.00    +0.031 A 
ENDROOT
BRANCH   2   7
ATOM      7  O   LIG    1       23.630 -21.020   7.589  0.00  0.00    -0.506 OA
ATOM      8  H   LIG    1       23.390 -20.555   6.770  0.00  0.00    +0.292 HD
ENDBRANCH   2   7
BRANCH   5   9
ATOM      9  N   LIG    1       25.559 -26.095   6.242  0.00  0.00    -0.314 N 
ATOM     10  H   LIG    1       26.487 -26.000   5.847  0.00  0.00    +0.152 HD
BRANCH   9  11
ATOM     11  C   LIG    1       25.124 -27.436   6.379  0.00  0.00    +0.042 A 
ATOM     12  C   LIG    1       25.471 -28.215   7.536  0.00  0.00    +0.022 A 
ATOM     13  C   LIG    1       24.929 -29.516   7.637  0.00  0.00    +0.074 A 
ATOM     14  C   LIG    1       25.211 -30.314   8.737  0.00  0.00    +0.048 A 
ATOM     15  C   LIG    1       26.061 -29.873   9.744  0.00  0.00    +0.043 A 
ATOM     16  C   LIG    1       26.621 -28.609   9.676  0.00  0.00    +0.021 A 
ATOM     17 CL   LIG    1       26.432 -30.911  11.064  0.00  0.00    -0.084 Cl
ATOM     18  N   LIG    1       24.138 -30.063   6.703  0.00  0.00    -0.255 NA
ATOM     19  C   LIG    1       23.864 -29.329   5.613  0.00  0.00    +0.113 A 
ATOM     20  C   LIG    1       26.325 -27.779   8.590  0.00  0.00    +0.013 A 
ATOM     21  C   LIG    1       24.318 -28.043   5.412  0.00  0.00    +0.043 A 
ENDBRANCH   9  11
ENDBRANCH   5   9
BRANCH   1  22
ATOM     22  C   LIG    1       26.440 -21.430   7.750  0.00  0.00    +0.123 C 
BRANCH  22  23
ATOM     23  N   LIG    1       27.628 -21.227   6.877  0.00  0.00    -0.299 NA
BRANCH  23  25
ATOM     24  C   LIG    1       26.319 -20.022   5.031  0.00  0.00    +0.020 C 
ATOM     25  C   LIG    1       27.508 -20.062   5.983  0.00  0.00    +0.081 C 
ENDBRANCH  23  25
BRANCH  23  26
ATOM     26  C   LIG    1       28.845 -21.199   7.711  0.00  0.00    +0.081 C 
ATOM     27  C   LIG    1       29.766 -20.017   7.421  0.00  0.00    +0.020 C 
ENDBRANCH  23  26
ENDBRANCH  22  23
ENDBRANCH   1  22
TORSDOF 7
ENDMDL
MODEL 6
REMARK VINA RESULT:      -7.9      2.580      3.739
REMARK  Name = *****
REMARK                            x       y       z     vdW  Elec       q    Type
REMARK                         _______ _______ _______ _____ _____    ______ ____
ROOT
ATOM      1  C   LIG    1       30.499 -19.417   7.484  0.00  0.00    +0.010 A 
ATOM      2  C   LIG    1       30.234 -20.459   8.379  0.00  0.00    +0.121 A 
ATOM      3  C   LIG    1       29.179 -21.342   8.160  0.00  0.00    +0.047 A 
ATOM      4  C   LIG    1       28.357 -21.187   7.040  0.00  0.00    +0.027 A 
ATOM      5  C   LIG    1       28.586 -20.172   6.112  0.00  0.00    +0.032 A 
ATOM      6  C   LIG    1       29.696 -19.330   6.328  0.00  0.00    +0.031 A 
ENDROOT
BRANCH   2   7
ATOM      7  O   LIG    1       31.020 -20.608   9.488  0.00  0.00    -0.506 OA
ATOM      8  H   LIG    1       30.454 -20.588  10.277  0.00  0.00    +0.292 HD
ENDBRANCH   2   7
BRANCH   5   9
ATOM      9  N   LIG    1       27.794 -19.957   4.964  0.00  0.00    -0.314 N 
ATOM     10  H   LIG    1       28.365 -19.931   4.128  0.00  0.00    +0.152 HD
BRANCH   9  11
ATOM     11  C   LIG    1       26.405 -19.833   4.720  0.00  0.00    +0.042 A 
ATOM     12  C   LIG    1       25.465 -20.760   5.287  0.00  0.00    +0.022 A 
ATOM     13  C   LIG    1       24.090 -20.518   5.065  0.00  0.00    +0.074 A 
ATOM     14  C   LIG    1       23.129 -21.365   5.598  0.00  0.00    +0.048 A 
ATOM     15  C   LIG    1       23.493 -22.491   6.328  0.00  0.00    +0.043 A 
ATOM     16  C   LIG    1       24.829 -22.769   6.558  0.00  0.00    +0.021 A 
ATOM     17 CL   LIG    1       22.276 -23.550   6.926  0.00  0.00    -0.084 Cl
ATOM     18  N   LIG    1       23.627 -19.492   4.336  0.00  0.00    -0.255 NA
ATOM     19  C   LIG    1       24.529 -18.666   3.783  0.00  0.00    +0.113 A 
ATOM     20  C   LIG    1       25.810 -21.910   6.053  0.00  0.00    +0.013 A 
ATOM     21  C   LIG    1       25.892 -18.788   3.945  0.00  0.00    +0.043 A 
ENDBRANCH   9  11
ENDBRANCH   5   9
BRANCH   1  22
ATOM     22  C   LIG    1       31.654 -18.459   7.735  0.00  0.00    +0.123 C 
BRANCH  22  23
ATOM     23  N   LIG    1       31.380 -17.319   8.652  0.00  0.00    -0.299 NA
BRANCH  23  25
ATOM     24  C   LIG    1       30.123 -17.552  10.874  0.00  0.00    +0.020 C 
ATOM     25  C   LIG    1       30.091 -17.427   9.355  0.00  0.00    +0.081 C 
ENDBRANCH  23  25
BRANCH  23  26
ATOM     26  C   LIG    1       32.528 -17.143   9.563  0.00  0.00    +0.081 C 
ATOM     27  C   LIG    1       32.963 -15.690   9.735  0.00  0.00    +0.020 C 
ENDBRANCH  23  26
ENDBRANCH  22  23
ENDBRANCH   1  22
TORSDOF 7
ENDMDL
MODEL 7
REMARK VINA RESULT:      -7.8      4.464      6.736
REMARK  Name = *****
REMARK                            x       y       z     vdW  Elec       q    Type
REMARK                         _______ _______ _______ _____ _____    ______ ____
ROOT
ATOM      1  C   LIG    1       25.416 -24.389   6.627  0.00  0.00    +0.010 A 
ATOM      2  C   LIG    1       25.087 -24.450   5.270  0.00  0.00    +0.121 A 
ATOM      3  C   LIG    1       25.105 -25.660   4.580  0.00  0.00    +0.047 A 
ATOM      4  C   LIG    1       25.470 -26.838   5.240  0.00  0.00    +0.027 A 
ATOM      5  C   LIG    1       25.796 -26.832   6.596  0.00  0.00    +0.032 A 
ATOM      6  C   LIG    1       25.712 -25.603   7.282  0.00  0.00    +0.031 A 
ENDROOT
BRANCH   2   7
ATOM      7  O   LIG    1       24.748 -23.302   4.610  0.00  0.00    -0.506 OA
ATOM      8  H   LIG    1       23.790 -23.307   4.443  0.00  0.00    +0.292 HD
ENDBRANCH   2   7
BRANCH   5   9
ATOM      9  N   LIG    1       26.176 -27.981   7.322  0.00  0.00    -0.314 N 
ATOM     10  H   LIG    1       27.174 -28.139   7.257  0.00  0.00    +0.152 HD
BRANCH   9  11
ATOM     11  C   LIG    1       25.496 -28.907   8.150  0.00  0.00    +0.042 A 
ATOM     12  C   LIG    1       25.896 -29.117   9.514  0.00  0.00    +0.022 A 
ATOM     13  C   LIG    1       25.115 -29.995  10.299  0.00  0.00    +0.074 A 
ATOM     14  C   LIG    1       25.436 -30.230  11.628  0.00  0.00    +0.048 A 
ATOM     15  C   LIG    1       26.553 -29.640  12.210  0.00  0.00    +0.043 A 
ATOM     16  C   LIG    1       27.349 -28.782  11.472  0.00  0.00    +0.021 A 
ATOM     17 CL   LIG    1       26.953 -29.997  13.844  0.00  0.00    -0.084 Cl
ATOM     18  N   LIG    1       24.047 -30.656   9.829  0.00  0.00    -0.255 NA
ATOM     19  C   LIG    1       23.721 -30.475   8.540  0.00  0.00    +0.113 A 
ATOM     20  C   LIG    1       27.024 -28.511  10.139  0.00  0.00    +0.013 A 
ATOM     21  C   LIG    1       24.394 -29.629   7.684  0.00  0.00    +0.043 A 
ENDBRANCH   9  11
ENDBRANCH   5   9
BRANCH   1  22
ATOM     22  C   LIG    1       25.394 -23.061   7.370  0.00  0.00    +0.123 C 
BRANCH  22  23
ATOM     23  N   LIG    1       26.027 -21.906   6.677  0.00  0.00    -0.299 NA
BRANCH  23  25
ATOM     24  C   LIG    1       23.724 -20.829   7.005  0.00  0.00    +0.020 C 
ATOM     25  C   LIG    1       25.213 -20.679   6.716  0.00  0.00    +0.081 C 
ENDBRANCH  23  25
BRANCH  23  26
ATOM     26  C   LIG    1       27.394 -21.716   7.201  0.00  0.00    +0.081 C 
ATOM     27  C   LIG    1       27.651 -20.320   7.761  0.00  0.00    +0.020 C 
ENDBRANCH  23  26
ENDBRANCH  22  23
ENDBRANCH   1  22
TORSDOF 7
ENDMDL
MODEL 8
REMARK VINA RESULT:      -7.7      4.169      8.014
REMARK  Name = *****
REMARK                            x       y       z     vdW  Elec       q    Type
REMARK                         _______ _______ _______ _____ _____    ______ ____
ROOT
ATOM      1  C   LIG    1       24.745 -27.566   6.489  0.00  0.00    +0.010 A 
ATOM      2  C   LIG    1       25.519 -27.892   5.372  0.00  0.00    +0.121 A 
ATOM      3  C   LIG    1       25.864 -26.925   4.429  0.00  0.00    +0.047 A 
ATOM      4  C   LIG    1       25.422 -25.608   4.584  0.00  0.00    +0.027 A 
ATOM      5  C   LIG    1       24.657 -25.229   5.687  0.00  0.00    +0.032 A 
ATOM      6  C   LIG    1       24.374 -26.215   6.654  0.00  0.00    +0.031 A 
ENDROOT
BRANCH   2   7
ATOM      7  O   LIG    1       25.939 -29.181   5.199  0.00  0.00    -0.506 OA
ATOM      8  H   LIG    1       25.923 -29.392   4.251  0.00  0.00    +0.292 HD
ENDBRANCH   2   7
BRANCH   5   9
ATOM      9  N   LIG    1       24.177 -23.920   5.903  0.00  0.00    -0.314 N 
ATOM     10  H   LIG    1       23.373 -23.923   6.520  0.00  0.00    +0.152 HD
BRANCH   9  11
ATOM     11  C   LIG    1       24.596 -22.626   5.507  0.00  0.00    +0.042 A 
ATOM     12  C   LIG    1       25.683 -21.961   6.170  0.00  0.00    +0.022 A 
ATOM     13  C   LIG    1       26.094 -20.709   5.660  0.00  0.00    +0.074 A 
ATOM     14  C   LIG    1       27.149 -20.021   6.244  0.00  0.00    +0.048 A 
ATOM     15  C   LIG    1       27.800 -20.525   7.363  0.00  0.00    +0.043 A 
ATOM     16  C   LIG    1       27.421 -21.743   7.899  0.00  0.00    +0.021 A 
ATOM     17 CL   LIG    1       29.067 -19.618   8.094  0.00  0.00    -0.084 Cl
ATOM     18  N   LIG    1       25.507 -20.105   4.618  0.00  0.00    -0.255 NA
ATOM     19  C   LIG    1       24.466 -20.728   4.043  0.00  0.00    +0.113 A 
ATOM     20  C   LIG    1       26.379 -22.464   7.306  0.00  0.00    +0.013 A 
ATOM     21  C   LIG    1       23.989 -21.959   4.438  0.00  0.00    +0.043 A 
ENDBRANCH   9  11
ENDBRANCH   5   9
BRANCH   1  22
ATOM     22  C   LIG    1       24.375 -28.631   7.510  0.00  0.00    +0.123 C 
BRANCH  22  23
ATOM     23  N   LIG    1       25.506 -29.365   8.140  0.00  0.00    -0.299 NA
BRANCH  23  25
ATOM     24  C   LIG    1       27.069 -29.227  10.167  0.00  0.00    +0.020 C 
ATOM     25  C   LIG    1       26.323 -28.529   9.036  0.00  0.00    +0.081 C 
ENDBRANCH  23  25
BRANCH  23  26
ATOM     26  C   LIG    1       24.991 -30.586   8.790  0.00  0.00    +0.081 C 
ATOM     27  C   LIG    1       23.606 -30.419   9.409  0.00  0.00    +0.020 C 
ENDBRANCH  23  26
ENDBRANCH  22  23
ENDBRANCH   1  22
TORSDOF 7
ENDMDL
MODEL 9
REMARK VINA RESULT:      -7.6      3.548      7.905
REMARK  Name = *****
REMARK                            x       y       z     vdW  Elec       q    Type
REMARK                         _______ _______ _______ _____ _____    ______ ____
ROOT
ATOM      1  C   LIG    1       25.528 -21.433   6.154  0.00  0.00    +0.010 A 
ATOM      2  C   LIG    1       24.960 -20.883   5.001  0.00  0.00    +0.121 A 
ATOM      3  C   LIG    1       25.620 -19.892   4.277  0.00  0.00    +0.047 A 
ATOM      4  C   LIG    1       26.864 -19.422   4.708  0.00  0.00    +0.027 A 
ATOM      5  C   LIG    1       27.478 -19.945   5.845  0.00  0.00    +0.032 A 
ATOM      6  C   LIG    1       26.815 -20.988   6.523  0.00  0.00    +0.031 A 
ENDROOT
BRANCH   2   7
ATOM      7  O   LIG    1       23.735 -21.322   4.582  0.00  0.00    -0.506 OA
ATOM      8  H   LIG    1       23.384 -20.694   3.928  0.00  0.00    +0.292 HD
ENDBRANCH   2   7
BRANCH   5   9
ATOM      9  N   LIG    1       28.730 -19.515   6.335  0.00  0.00    -0.314 N 
ATOM     10  H   LIG    1       29.072 -18.718   5.812  0.00  0.00    +0.152 HD
BRANCH   9  11
ATOM     11  C   LIG    1       29.566 -19.902   7.410  0.00  0.00    +0.042 A 
ATOM     12  C   LIG    1       30.071 -18.935   8.346  0.00  0.00    +0.022 A 
ATOM     13  C   LIG    1       30.829 -19.412   9.438  0.00  0.00    +0.074 A 
ATOM     14  C   LIG    1       31.332 -18.533  10.387  0.00  0.00    +0.048 A 
ATOM     15  C   LIG    1       31.136 -17.162  10.267  0.00  0.00    +0.043 A 
ATOM     16  C   LIG    1       30.407 -16.654   9.206  0.00  0.00    +0.021 A 
ATOM     17 CL   LIG    1       31.821 -16.097  11.432  0.00  0.00    -0.084 Cl
ATOM     18  N   LIG    1       31.122 -20.707   9.626  0.00  0.00    -0.255 NA
ATOM     19  C   LIG    1       30.675 -21.584   8.715  0.00  0.00    +0.113 A 
ATOM     20  C   LIG    1       29.868 -17.527   8.256  0.00  0.00    +0.013 A 
ATOM     21  C   LIG    1       29.910 -21.240   7.621  0.00  0.00    +0.043 A 
ENDBRANCH   9  11
ENDBRANCH   5   9
BRANCH   1  22
ATOM     22  C   LIG    1       24.797 -22.513   6.937  0.00  0.00    +0.123 C 
BRANCH  22  23
ATOM     23  N   LIG    1       24.830 -23.884   6.360  0.00  0.00    -0.299 NA
BRANCH  23  25
ATOM     24  C   LIG    1       25.852 -26.217   6.651  0.00  0.00    +0.020 C 
ATOM     25  C   LIG    1       25.936 -24.711   6.871  0.00  0.00    +0.081 C 
ENDBRANCH  23  25
BRANCH  23  26
ATOM     26  C   LIG    1       23.506 -24.514   6.527  0.00  0.00    +0.081 C 
ATOM     27  C   LIG    1       22.377 -23.519   6.781  0.00  0.00    +0.020 C 
ENDBRANCH  23  26
ENDBRANCH  22  23
ENDBRANCH   1  22
TORSDOF 7
ENDMDL
