MODEL 1
REMARK VINA RESULT:      25.6      0.000      0.000
REMARK  Name = *****
REMARK                            x       y       z     vdW  Elec       q    Type
REMARK                         _______ _______ _______ _____ _____    ______ ____
ROOT
ATOM      1  C   LIG    1       25.057 -11.447   1.822  0.00  0.00    +0.089 C 
ATOM      2  C   LIG    1       24.665 -12.658   2.626  0.00  0.00    +0.103 C 
ATOM      3  N   LIG    1       23.772 -13.531   2.023  0.00  0.00    -0.208 N 
ATOM      4  H   LIG    1       23.463 -13.318   1.081  0.00  0.00    +0.298 HD
ATOM      5  C   LIG    1       23.086 -14.541   2.659  0.00  0.00    +0.269 C 
ATOM      6  C   LIG    1       23.489 -14.912   3.894  0.00  0.00    +0.133 C 
ATOM      7  C   LIG    1       24.706 -14.246   4.545  0.00  0.00    +0.104 C 
ATOM      8  C   LIG    1       25.101 -12.928   3.879  0.00  0.00    +0.088 C 
ENDROOT
BRANCH   7   9
ATOM      9  C   LIG    1       25.914 -15.200   4.590  0.00  0.00    -0.028 A 
ATOM     10  C   LIG    1       25.948 -16.373   3.815  0.00  0.00    +0.088 A 
ATOM     11  C   LIG    1       27.059 -17.220   3.893  0.00  0.00    +0.273 A 
ATOM     12  C   LIG    1       28.147 -16.936   4.718  0.00  0.00    +0.084 A 
ATOM     13  C   LIG    1       28.123 -15.766   5.475  0.00  0.00    +0.007 A 
ATOM     14  C   LIG    1       27.017 -14.909   5.412  0.00  0.00    +0.005 A 
BRANCH  11  15
ATOM     15  N   LIG    1       27.083 -18.429   3.089  0.00  0.00    +0.080 N 
ATOM     16  O   LIG    1       26.269 -18.508   2.160  0.00  0.00    -0.576 OA
ATOM     17  O   LIG    1       27.923 -19.290   3.389  0.00  0.00    +0.041 OA
ENDBRANCH  11  15
ENDBRANCH   7   9
BRANCH   5  18
ATOM     18  N   LIG    1       22.027 -15.083   1.975  0.00  0.00    -0.251 N 
ATOM     19  H   LIG    1       21.441 -14.375   1.548  0.00  0.00    +0.288 HD
ATOM     20  H   LIG    1       21.476 -15.731   2.541  0.00  0.00    +0.288 HD
ENDBRANCH   5  18
BRANCH   6  21
ATOM     21  C   LIG    1       22.835 -15.923   4.763  0.00  0.00    +0.344 C 
ATOM     22  O   LIG    1       22.943 -15.931   5.982  0.00  0.00    -0.245 OA
BRANCH  21  23
ATOM     23  O   LIG    1       22.175 -16.878   4.052  0.00  0.00    -0.455 OA
BRANCH  23  24
ATOM     24  C   LIG    1       22.750 -18.193   4.220  0.00  0.00    +0.205 C 
ATOM     25  C   LIG    1       23.025 -19.034   2.956  0.00  0.00    +0.131 C 
ATOM     26  N   LIG    1       24.405 -19.310   3.431  0.00  0.00    -0.284 NA
ATOM     27  C   LIG    1       24.280 -18.188   4.388  0.00  0.00    +0.131 C 
BRANCH  26  28
ATOM     28  C   LIG    1       24.515 -20.621   4.137  0.00  0.00    +0.117 C 
BRANCH  28  29
ATOM     29  C   LIG    1       23.217 -21.000   4.873  0.00  0.00    -0.026 A 
ATOM     30  C   LIG    1       23.181 -21.195   6.267  0.00  0.00    +0.005 A 
ATOM     31  C   LIG    1       21.977 -21.452   6.921  0.00  0.00    +0.000 A 
ATOM     32  C   LIG    1       20.797 -21.571   6.189  0.00  0.00    +0.000 A 
ATOM     33  C   LIG    1       20.820 -21.427   4.805  0.00  0.00    +0.000 A 
ATOM     34  C   LIG    1       22.018 -21.135   4.151  0.00  0.00    +0.005 A 
ENDBRANCH  28  29
BRANCH  28  35
ATOM     35  C   LIG    1       25.694 -20.674   5.120  0.00  0.00    -0.026 A 
ATOM     36  C   LIG    1       25.730 -19.788   6.214  0.00  0.00    +0.005 A 
ATOM     37  C   LIG    1       26.838 -19.732   7.062  0.00  0.00    +0.000 A 
ATOM     38  C   LIG    1       27.925 -20.572   6.841  0.00  0.00    +0.000 A 
ATOM     39  C   LIG    1       27.903 -21.469   5.776  0.00  0.00    +0.000 A 
ATOM     40  C   LIG    1       26.801 -21.515   4.916  0.00  0.00    +0.005 A 
ENDBRANCH  28  35
ENDBRANCH  26  28
ENDBRANCH  23  24
ENDBRANCH  21  23
ENDBRANCH   6  21
BRANCH   8  41
ATOM     41  C   LIG    1       25.886 -11.946   4.684  0.00  0.00    +0.340 C 
ATOM     42  O   LIG    1       25.606 -11.549   5.802  0.00  0.00    -0.245 OA
BRANCH  41  43
ATOM     43  O   LIG    1       27.041 -11.686   4.025  0.00  0.00    -0.459 OA
BRANCH  43  44
ATOM     44  C   LIG    1       28.153 -12.572   4.237  0.00  0.00    +0.171 C 
ATOM     45  C   LIG    1       29.093 -11.855   5.202  0.00  0.00    +0.051 C 
ATOM     46  C   LIG    1       28.857 -12.808   2.902  0.00  0.00    +0.051 C 
ENDBRANCH  43  44
ENDBRANCH  41  43
ENDBRANCH   8  41
TORSDOF 12
ENDMDL
