MODEL 1
REMARK VINA RESULT:      -7.5      0.000      0.000
REMARK  Name = *****
REMARK                            x       y       z     vdW  Elec       q    Type
REMARK                         _______ _______ _______ _____ _____    ______ ____
ROOT
ATOM      1  C   LIG    1       25.900 -25.123   6.508  0.00  0.00    +0.063 C 
ATOM      2  C   LIG    1       25.552 -23.685   6.681  0.00  0.00    +0.043 C 
ATOM      3  C   LIG    1       25.842 -22.952   7.947  0.00  0.00    +0.150 C 
ATOM      4  C   LIG    1       25.320 -21.585   7.621  0.00  0.00    +0.245 C 
ATOM      5  O   LIG    1       25.352 -20.639   8.391  0.00  0.00    -0.273 OA
ATOM      6  N   LIG    1       24.836 -21.698   6.308  0.00  0.00    -0.161 N 
ATOM      7  N   LIG    1       24.986 -22.964   5.767  0.00  0.00    -0.181 NA
ENDROOT
BRANCH   6   8
ATOM      8  C   LIG    1       24.234 -20.689   5.513  0.00  0.00    +0.060 A 
ATOM      9  C   LIG    1       24.928 -20.145   4.419  0.00  0.00    +0.025 A 
ATOM     10  C   LIG    1       24.358 -19.148   3.620  0.00  0.00    +0.002 A 
ATOM     11  C   LIG    1       23.079 -18.679   3.903  0.00  0.00    +0.000 A 
ATOM     12  C   LIG    1       22.375 -19.206   4.981  0.00  0.00    +0.002 A 
ATOM     13  C   LIG    1       22.948 -20.202   5.780  0.00  0.00    +0.025 A 
ENDBRANCH   6   8
TORSDOF 1
ENDMDL
MODEL 2
REMARK VINA RESULT:      -7.2      7.061      8.330
REMARK  Name = *****
REMARK                            x       y       z     vdW  Elec       q    Type
REMARK                         _______ _______ _______ _____ _____    ______ ____
ROOT
ATOM      1  C   LIG    1       27.768 -20.294   7.188  0.00  0.00    +0.063 C 
ATOM      2  C   LIG    1       29.040 -20.069   7.929  0.00  0.00    +0.043 C 
ATOM      3  C   LIG    1       30.067 -21.142   8.072  0.00  0.00    +0.150 C 
ATOM      4  C   LIG    1       31.120 -20.434   8.871  0.00  0.00    +0.245 C 
ATOM      5  O   LIG    1       32.168 -20.946   9.228  0.00  0.00    -0.273 OA
ATOM      6  N   LIG    1       30.604 -19.142   9.067  0.00  0.00    -0.161 N 
ATOM      7  N   LIG    1       29.359 -18.948   8.494  0.00  0.00    -0.181 NA
ENDROOT
BRANCH   6   8
ATOM      8  C   LIG    1       31.205 -18.062   9.763  0.00  0.00    +0.060 A 
ATOM      9  C   LIG    1       32.239 -17.324   9.163  0.00  0.00    +0.025 A 
ATOM     10  C   LIG    1       32.848 -16.255   9.829  0.00  0.00    +0.002 A 
ATOM     11  C   LIG    1       32.431 -15.905  11.109  0.00  0.00    +0.000 A 
ATOM     12  C   LIG    1       31.407 -16.623  11.719  0.00  0.00    +0.002 A 
ATOM     13  C   LIG    1       30.800 -17.693  11.052  0.00  0.00    +0.025 A 
ENDBRANCH   6   8
TORSDOF 1
ENDMDL
MODEL 3
REMARK VINA RESULT:      -7.1      1.019      1.729
REMARK  Name = *****
REMARK                            x       y       z     vdW  Elec       q    Type
REMARK                         _______ _______ _______ _____ _____    ______ ____
ROOT
ATOM      1  C   LIG    1       24.392 -25.960   6.233  0.00  0.00    +0.063 C 
ATOM      2  C   LIG    1       24.743 -24.513   6.243  0.00  0.00    +0.043 C 
ATOM      3  C   LIG    1       25.915 -23.993   7.005  0.00  0.00    +0.150 C 
ATOM      4  C   LIG    1       25.837 -22.527   6.698  0.00  0.00    +0.245 C 
ATOM      5  O   LIG    1       26.621 -21.696   7.126  0.00  0.00    -0.273 OA
ATOM      6  N   LIG    1       24.717 -22.402   5.860  0.00  0.00    -0.161 N 
ATOM      7  N   LIG    1       24.079 -23.604   5.603  0.00  0.00    -0.181 NA
ENDROOT
BRANCH   6   8
ATOM      8  C   LIG    1       24.195 -21.220   5.276  0.00  0.00    +0.060 A 
ATOM      9  C   LIG    1       23.051 -20.611   5.817  0.00  0.00    +0.025 A 
ATOM     10  C   LIG    1       22.516 -19.445   5.259  0.00  0.00    +0.002 A 
ATOM     11  C   LIG    1       23.120 -18.867   4.147  0.00  0.00    +0.000 A 
ATOM     12  C   LIG    1       24.255 -19.454   3.597  0.00  0.00    +0.002 A 
ATOM     13  C   LIG    1       24.788 -20.621   4.156  0.00  0.00    +0.025 A 
ENDBRANCH   6   8
TORSDOF 1
ENDMDL
MODEL 4
REMARK VINA RESULT:      -7.1      2.742      3.882
REMARK  Name = *****
REMARK                            x       y       z     vdW  Elec       q    Type
REMARK                         _______ _______ _______ _____ _____    ______ ____
ROOT
ATOM      1  C   LIG    1       26.235 -27.332   4.972  0.00  0.00    +0.063 C 
ATOM      2  C   LIG    1       25.541 -26.149   5.552  0.00  0.00    +0.043 C 
ATOM      3  C   LIG    1       24.078 -26.158   5.838  0.00  0.00    +0.150 C 
ATOM      4  C   LIG    1       23.879 -24.780   6.396  0.00  0.00    +0.245 C 
ATOM      5  O   LIG    1       22.805 -24.342   6.773  0.00  0.00    -0.273 OA
ATOM      6  N   LIG    1       25.158 -24.201   6.364  0.00  0.00    -0.161 N 
ATOM      7  N   LIG    1       26.136 -25.039   5.855  0.00  0.00    -0.181 NA
ENDROOT
BRANCH   6   8
ATOM      8  C   LIG    1       25.534 -22.899   6.783  0.00  0.00    +0.060 A 
ATOM      9  C   LIG    1       25.931 -22.671   8.111  0.00  0.00    +0.025 A 
ATOM     10  C   LIG    1       26.305 -21.397   8.549  0.00  0.00    +0.002 A 
ATOM     11  C   LIG    1       26.288 -20.325   7.662  0.00  0.00    +0.000 A 
ATOM     12  C   LIG    1       25.899 -20.530   6.342  0.00  0.00    +0.002 A 
ATOM     13  C   LIG    1       25.524 -21.805   5.906  0.00  0.00    +0.025 A 
ENDBRANCH   6   8
TORSDOF 1
ENDMDL
MODEL 5
REMARK VINA RESULT:      -6.9      3.470      5.052
REMARK  Name = *****
REMARK                            x       y       z     vdW  Elec       q    Type
REMARK                         _______ _______ _______ _____ _____    ______ ____
ROOT
ATOM      1  C   LIG    1       24.057 -20.946   4.824  0.00  0.00    +0.063 C 
ATOM      2  C   LIG    1       25.032 -20.751   5.932  0.00  0.00    +0.043 C 
ATOM      3  C   LIG    1       24.617 -20.810   7.364  0.00  0.00    +0.150 C 
ATOM      4  C   LIG    1       25.923 -20.562   8.058  0.00  0.00    +0.245 C 
ATOM      5  O   LIG    1       26.058 -20.522   9.270  0.00  0.00    -0.273 OA
ATOM      6  N   LIG    1       26.852 -20.408   7.015  0.00  0.00    -0.161 N 
ATOM      7  N   LIG    1       26.295 -20.525   5.753  0.00  0.00    -0.181 NA
ENDROOT
BRANCH   6   8
ATOM      8  C   LIG    1       28.243 -20.155   7.120  0.00  0.00    +0.060 A 
ATOM      9  C   LIG    1       28.845 -19.176   6.312  0.00  0.00    +0.025 A 
ATOM     10  C   LIG    1       30.215 -18.907   6.395  0.00  0.00    +0.002 A 
ATOM     11  C   LIG    1       31.009 -19.616   7.292  0.00  0.00    +0.000 A 
ATOM     12  C   LIG    1       30.431 -20.589   8.102  0.00  0.00    +0.002 A 
ATOM     13  C   LIG    1       29.061 -20.856   8.016  0.00  0.00    +0.025 A 
ENDBRANCH   6   8
TORSDOF 1
ENDMDL
MODEL 6
REMARK VINA RESULT:      -6.8      2.807      3.463
REMARK  Name = *****
REMARK                            x       y       z     vdW  Elec       q    Type
REMARK                         _______ _______ _______ _____ _____    ______ ____
ROOT
ATOM      1  C   LIG    1       30.314 -19.201   6.163  0.00  0.00    +0.063 C 
ATOM      2  C   LIG    1       29.063 -19.865   6.623  0.00  0.00    +0.043 C 
ATOM      3  C   LIG    1       29.031 -20.726   7.841  0.00  0.00    +0.150 C 
ATOM      4  C   LIG    1       27.590 -21.137   7.871  0.00  0.00    +0.245 C 
ATOM      5  O   LIG    1       27.103 -21.865   8.722  0.00  0.00    -0.273 OA
ATOM      6  N   LIG    1       27.020 -20.506   6.754  0.00  0.00    -0.161 N 
ATOM      7  N   LIG    1       27.921 -19.751   6.023  0.00  0.00    -0.181 NA
ENDROOT
BRANCH   6   8
ATOM      8  C   LIG    1       25.672 -20.561   6.316  0.00  0.00    +0.060 A 
ATOM      9  C   LIG    1       25.365 -20.415   4.953  0.00  0.00    +0.025 A 
ATOM     10  C   LIG    1       24.044 -20.465   4.497  0.00  0.00    +0.002 A 
ATOM     11  C   LIG    1       23.004 -20.663   5.399  0.00  0.00    +0.000 A 
ATOM     12  C   LIG    1       23.287 -20.812   6.753  0.00  0.00    +0.002 A 
ATOM     13  C   LIG    1       24.609 -20.761   7.208  0.00  0.00    +0.025 A 
ENDBRANCH   6   8
TORSDOF 1
ENDMDL
MODEL 7
REMARK VINA RESULT:      -6.7      1.606      2.062
REMARK  Name = *****
REMARK                            x       y       z     vdW  Elec       q    Type
REMARK                         _______ _______ _______ _____ _____    ______ ____
ROOT
ATOM      1  C   LIG    1       28.453 -21.520   7.971  0.00  0.00    +0.063 C 
ATOM      2  C   LIG    1       27.148 -21.689   7.272  0.00  0.00    +0.043 C 
ATOM      3  C   LIG    1       26.451 -23.006   7.215  0.00  0.00    +0.150 C 
ATOM      4  C   LIG    1       25.223 -22.654   6.429  0.00  0.00    +0.245 C 
ATOM      5  O   LIG    1       24.347 -23.451   6.136  0.00  0.00    -0.273 OA
ATOM      6  N   LIG    1       25.360 -21.283   6.159  0.00  0.00    -0.161 N 
ATOM      7  N   LIG    1       26.520 -20.728   6.673  0.00  0.00    -0.181 NA
ENDROOT
BRANCH   6   8
ATOM      8  C   LIG    1       24.469 -20.445   5.442  0.00  0.00    +0.060 A 
ATOM      9  C   LIG    1       24.889 -19.816   4.257  0.00  0.00    +0.025 A 
ATOM     10  C   LIG    1       24.030 -18.985   3.533  0.00  0.00    +0.002 A 
ATOM     11  C   LIG    1       22.731 -18.767   3.982  0.00  0.00    +0.000 A 
ATOM     12  C   LIG    1       22.295 -19.381   5.151  0.00  0.00    +0.002 A 
ATOM     13  C   LIG    1       23.157 -20.212   5.876  0.00  0.00    +0.025 A 
ENDBRANCH   6   8
TORSDOF 1
ENDMDL
MODEL 8
REMARK VINA RESULT:      -6.7      2.767      4.244
REMARK  Name = *****
REMARK                            x       y       z     vdW  Elec       q    Type
REMARK                         _______ _______ _______ _____ _____    ______ ____
ROOT
ATOM      1  C   LIG    1       29.051 -19.711   5.976  0.00  0.00    +0.063 C 
ATOM      2  C   LIG    1       27.935 -20.328   6.744  0.00  0.00    +0.043 C 
ATOM      3  C   LIG    1       27.614 -19.909   8.139  0.00  0.00    +0.150 C 
ATOM      4  C   LIG    1       26.447 -20.798   8.451  0.00  0.00    +0.245 C 
ATOM      5  O   LIG    1       25.850 -20.796   9.516  0.00  0.00    -0.273 OA
ATOM      6  N   LIG    1       26.259 -21.555   7.283  0.00  0.00    -0.161 N 
ATOM      7  N   LIG    1       27.161 -21.256   6.276  0.00  0.00    -0.181 NA
ENDROOT
BRANCH   6   8
ATOM      8  C   LIG    1       25.281 -22.553   7.041  0.00  0.00    +0.060 A 
ATOM      9  C   LIG    1       23.915 -22.225   7.075  0.00  0.00    +0.025 A 
ATOM     10  C   LIG    1       22.931 -23.190   6.840  0.00  0.00    +0.002 A 
ATOM     11  C   LIG    1       23.297 -24.504   6.567  0.00  0.00    +0.000 A 
ATOM     12  C   LIG    1       24.645 -24.849   6.527  0.00  0.00    +0.002 A 
ATOM     13  C   LIG    1       25.628 -23.881   6.763  0.00  0.00    +0.025 A 
ENDBRANCH   6   8
TORSDOF 1
ENDMDL
MODEL 9
REMARK VINA RESULT:      -6.7      1.448      5.032
REMARK  Name = *****
REMARK                            x       y       z     vdW  Elec       q    Type
REMARK                         _______ _______ _______ _____ _____    ______ ____
ROOT
ATOM      1  C   LIG    1       24.018 -19.490   3.749  0.00  0.00    +0.063 C 
ATOM      2  C   LIG    1       23.924 -20.498   4.841  0.00  0.00    +0.043 C 
ATOM      3  C   LIG    1       23.220 -20.203   6.123  0.00  0.00    +0.150 C 
ATOM      4  C   LIG    1       23.400 -21.497   6.860  0.00  0.00    +0.245 C 
ATOM      5  O   LIG    1       22.972 -21.711   7.983  0.00  0.00    -0.273 OA
ATOM      6  N   LIG    1       24.125 -22.309   5.972  0.00  0.00    -0.161 N 
ATOM      7  N   LIG    1       24.427 -21.689   4.772  0.00  0.00    -0.181 NA
ENDROOT
BRANCH   6   8
ATOM      8  C   LIG    1       24.562 -23.644   6.174  0.00  0.00    +0.060 A 
ATOM      9  C   LIG    1       23.677 -24.715   5.967  0.00  0.00    +0.025 A 
ATOM     10  C   LIG    1       24.082 -26.039   6.159  0.00  0.00    +0.002 A 
ATOM     11  C   LIG    1       25.384 -26.315   6.562  0.00  0.00    +0.000 A 
ATOM     12  C   LIG    1       26.277 -25.269   6.771  0.00  0.00    +0.002 A 
ATOM     13  C   LIG    1       25.869 -23.944   6.580  0.00  0.00    +0.025 A 
ENDBRANCH   6   8
TORSDOF 1
ENDMDL
