MODEL 1
REMARK VINA RESULT:      -2.1      0.000      0.000
REMARK  Name = *****
REMARK                            x       y       z     vdW  Elec       q    Type
REMARK                         _______ _______ _______ _____ _____    ______ ____
ROOT
ATOM      1  N   LIG    1       25.714 -18.870   4.468  0.00  0.00    -0.297 N 
ATOM      2  C   LIG    1       26.706 -19.551   5.216  0.00  0.00    +0.048 A 
ATOM      3  C   LIG    1       26.445 -20.786   5.854  0.00  0.00    +0.034 A 
ATOM      4  C   LIG    1       27.456 -21.462   6.548  0.00  0.00    +0.017 A 
ATOM      5  C   LIG    1       28.714 -20.901   6.716  0.00  0.00    +0.001 A 
ATOM      6  C   LIG    1       28.963 -19.637   6.181  0.00  0.00    +0.002 A 
ATOM      7  S   LIG    1       24.850 -21.567   5.842  0.00  0.00    -0.086 S 
ATOM      8  C   LIG    1       23.820 -20.300   5.144  0.00  0.00    +0.034 A 
ATOM      9  C   LIG    1       22.457 -20.599   5.048  0.00  0.00    +0.017 A 
ATOM     10  C   LIG    1       21.571 -19.720   4.454  0.00  0.00    +0.001 A 
ATOM     11  C   LIG    1       22.027 -18.456   4.062  0.00  0.00    +0.002 A 
ATOM     12  C   LIG    1       23.381 -18.143   4.189  0.00  0.00    +0.024 A 
ATOM     13  C   LIG    1       27.977 -18.987   5.440  0.00  0.00    +0.024 A 
ATOM     14  C   LIG    1       24.323 -19.089   4.606  0.00  0.00    +0.048 A 
ENDROOT
BRANCH   1  15
ATOM     15  C   LIG    1       26.182 -18.258   3.169  0.00  0.00    +0.129 C 
BRANCH  15  16
ATOM     16  C   LIG    1       26.803 -16.803   3.227  0.00  0.00    +0.071 C 
ATOM     17  C   LIG    1       27.683 -16.574   4.469  0.00  0.00    +0.026 C 
BRANCH  16  18
ATOM     18  N   LIG    1       25.852 -15.651   3.067  0.00  0.00    -0.299 NA
BRANCH  18  20
ATOM     19  C   LIG    1       23.814 -14.455   4.097  0.00  0.00    +0.020 C 
ATOM     20  C   LIG    1       25.126 -15.211   4.265  0.00  0.00    +0.081 C 
ENDBRANCH  18  20
BRANCH  18  21
ATOM     21  C   LIG    1       26.319 -14.480   2.288  0.00  0.00    +0.081 C 
ATOM     22  C   LIG    1       27.158 -13.440   3.029  0.00  0.00    +0.020 C 
ENDBRANCH  18  21
ENDBRANCH  16  18
ENDBRANCH  15  16
ENDBRANCH   1  15
TORSDOF 5
ENDMDL
MODEL 2
REMARK VINA RESULT:      -1.7      1.767      5.562
REMARK  Name = *****
REMARK                            x       y       z     vdW  Elec       q    Type
REMARK                         _______ _______ _______ _____ _____    ______ ____
ROOT
ATOM      1  N   LIG    1       26.164 -18.810   4.450  0.00  0.00    -0.297 N 
ATOM      2  C   LIG    1       26.449 -17.474   4.070  0.00  0.00    +0.048 A 
ATOM      3  C   LIG    1       27.727 -16.899   4.262  0.00  0.00    +0.034 A 
ATOM      4  C   LIG    1       27.996 -15.592   3.834  0.00  0.00    +0.017 A 
ATOM      5  C   LIG    1       26.999 -14.789   3.300  0.00  0.00    +0.001 A 
ATOM      6  C   LIG    1       25.706 -15.303   3.196  0.00  0.00    +0.002 A 
ATOM      7  S   LIG    1       29.069 -17.754   5.050  0.00  0.00    -0.086 S 
ATOM      8  C   LIG    1       28.265 -19.205   5.683  0.00  0.00    +0.034 A 
ATOM      9  C   LIG    1       29.068 -20.081   6.421  0.00  0.00    +0.017 A 
ATOM     10  C   LIG    1       28.571 -21.278   6.900  0.00  0.00    +0.001 A 
ATOM     11  C   LIG    1       27.206 -21.553   6.755  0.00  0.00    +0.002 A 
ATOM     12  C   LIG    1       26.395 -20.665   6.048  0.00  0.00    +0.024 A 
ATOM     13  C   LIG    1       25.448 -16.623   3.566  0.00  0.00    +0.024 A 
ATOM     14  C   LIG    1       26.921 -19.548   5.390  0.00  0.00    +0.048 A 
ENDROOT
BRANCH   1  15
ATOM     15  C   LIG    1       25.333 -19.603   3.470  0.00  0.00    +0.129 C 
BRANCH  15  16
ATOM     16  C   LIG    1       24.244 -20.587   4.063  0.00  0.00    +0.071 C 
ATOM     17  C   LIG    1       23.690 -21.571   3.017  0.00  0.00    +0.026 C 
BRANCH  16  18
ATOM     18  N   LIG    1       23.105 -19.966   4.819  0.00  0.00    -0.299 NA
BRANCH  18  20
ATOM     19  C   LIG    1       23.179 -21.567   6.839  0.00  0.00    +0.020 C 
ATOM     20  C   LIG    1       23.087 -20.154   6.275  0.00  0.00    +0.081 C 
ENDBRANCH  18  20
BRANCH  18  21
ATOM     21  C   LIG    1       22.731 -18.574   4.475  0.00  0.00    +0.081 C 
ATOM     22  C   LIG    1       21.400 -18.369   3.752  0.00  0.00    +0.020 C 
ENDBRANCH  18  21
ENDBRANCH  16  18
ENDBRANCH  15  16
ENDBRANCH   1  15
TORSDOF 5
ENDMDL
MODEL 3
REMARK VINA RESULT:      -1.7      1.665      5.216
REMARK  Name = *****
REMARK                            x       y       z     vdW  Elec       q    Type
REMARK                         _______ _______ _______ _____ _____    ______ ____
ROOT
ATOM      1  N   LIG    1       25.518 -17.845   3.372  0.00  0.00    -0.297 N 
ATOM      2  C   LIG    1       25.460 -16.429   3.401  0.00  0.00    +0.048 A 
ATOM      3  C   LIG    1       24.420 -15.737   4.065  0.00  0.00    +0.034 A 
ATOM      4  C   LIG    1       24.413 -14.337   4.120  0.00  0.00    +0.017 A 
ATOM      5  C   LIG    1       25.364 -13.584   3.447  0.00  0.00    +0.001 A 
ATOM      6  C   LIG    1       26.340 -14.245   2.701  0.00  0.00    +0.002 A 
ATOM      7  S   LIG    1       23.061 -16.556   4.860  0.00  0.00    -0.086 S 
ATOM      8  C   LIG    1       23.277 -18.237   4.329  0.00  0.00    +0.034 A 
ATOM      9  C   LIG    1       22.306 -19.148   4.757  0.00  0.00    +0.017 A 
ATOM     10  C   LIG    1       22.410 -20.495   4.469  0.00  0.00    +0.001 A 
ATOM     11  C   LIG    1       23.435 -20.931   3.622  0.00  0.00    +0.002 A 
ATOM     12  C   LIG    1       24.386 -20.019   3.164  0.00  0.00    +0.024 A 
ATOM     13  C   LIG    1       26.386 -15.639   2.693  0.00  0.00    +0.024 A 
ATOM     14  C   LIG    1       24.408 -18.691   3.605  0.00  0.00    +0.048 A 
ENDROOT
BRANCH   1  15
ATOM     15  C   LIG    1       26.888 -18.446   3.575  0.00  0.00    +0.129 C 
BRANCH  15  16
ATOM     16  C   LIG    1       27.429 -18.550   5.058  0.00  0.00    +0.071 C 
ATOM     17  C   LIG    1       28.701 -17.714   5.294  0.00  0.00    +0.026 C 
BRANCH  16  18
ATOM     18  N   LIG    1       27.627 -19.931   5.616  0.00  0.00    -0.299 NA
BRANCH  18  20
ATOM     19  C   LIG    1       29.223 -21.393   7.016  0.00  0.00    +0.020 C 
ATOM     20  C   LIG    1       28.520 -20.063   6.774  0.00  0.00    +0.081 C 
ENDBRANCH  18  20
BRANCH  18  21
ATOM     21  C   LIG    1       26.425 -20.778   5.793  0.00  0.00    +0.081 C 
ATOM     22  C   LIG    1       25.503 -20.444   6.966  0.00  0.00    +0.020 C 
ENDBRANCH  18  21
ENDBRANCH  16  18
ENDBRANCH  15  16
ENDBRANCH   1  15
TORSDOF 5
ENDMDL
MODEL 4
REMARK VINA RESULT:      -1.2      1.835      5.676
REMARK  Name = *****
REMARK                            x       y       z     vdW  Elec       q    Type
REMARK                         _______ _______ _______ _____ _____    ______ ____
ROOT
ATOM      1  N   LIG    1       26.427 -18.983   4.498  0.00  0.00    -0.297 N 
ATOM      2  C   LIG    1       26.606 -17.637   4.091  0.00  0.00    +0.048 A 
ATOM      3  C   LIG    1       27.826 -16.951   4.294  0.00  0.00    +0.034 A 
ATOM      4  C   LIG    1       27.993 -15.637   3.838  0.00  0.00    +0.017 A 
ATOM      5  C   LIG    1       26.943 -14.934   3.264  0.00  0.00    +0.001 A 
ATOM      6  C   LIG    1       25.701 -15.559   3.146  0.00  0.00    +0.002 A 
ATOM      7  S   LIG    1       29.217 -17.669   5.132  0.00  0.00    -0.086 S 
ATOM      8  C   LIG    1       28.525 -19.168   5.785  0.00  0.00    +0.034 A 
ATOM      9  C   LIG    1       29.381 -19.954   6.562  0.00  0.00    +0.017 A 
ATOM     10  C   LIG    1       28.977 -21.178   7.061  0.00  0.00    +0.001 A 
ATOM     11  C   LIG    1       27.644 -21.572   6.895  0.00  0.00    +0.002 A 
ATOM     12  C   LIG    1       26.777 -20.773   6.148  0.00  0.00    +0.024 A 
ATOM     13  C   LIG    1       25.548 -16.887   3.545  0.00  0.00    +0.024 A 
ATOM     14  C   LIG    1       27.222 -19.631   5.473  0.00  0.00    +0.048 A 
ENDROOT
BRANCH   1  15
ATOM     15  C   LIG    1       25.689 -19.868   3.523  0.00  0.00    +0.129 C 
BRANCH  15  16
ATOM     16  C   LIG    1       24.465 -20.706   4.075  0.00  0.00    +0.071 C 
ATOM     17  C   LIG    1       23.762 -21.533   2.984  0.00  0.00    +0.026 C 
BRANCH  16  18
ATOM     18  N   LIG    1       23.438 -19.961   4.880  0.00  0.00    -0.299 NA
BRANCH  18  20
ATOM     19  C   LIG    1       22.225 -17.693   4.699  0.00  0.00    +0.020 C 
ATOM     20  C   LIG    1       22.521 -19.081   4.144  0.00  0.00    +0.081 C 
ENDBRANCH  18  20
BRANCH  18  21
ATOM     21  C   LIG    1       22.703 -20.715   5.921  0.00  0.00    +0.081 C 
ATOM     22  C   LIG    1       23.538 -21.467   6.957  0.00  0.00    +0.020 C 
ENDBRANCH  18  21
ENDBRANCH  16  18
ENDBRANCH  15  16
ENDBRANCH   1  15
TORSDOF 5
ENDMDL
MODEL 5
REMARK VINA RESULT:      -1.1      1.092      1.726
REMARK  Name = *****
REMARK                            x       y       z     vdW  Elec       q    Type
REMARK                         _______ _______ _______ _____ _____    ______ ____
ROOT
ATOM      1  N   LIG    1       25.663 -18.770   4.477  0.00  0.00    -0.297 N 
ATOM      2  C   LIG    1       26.909 -19.110   5.061  0.00  0.00    +0.048 A 
ATOM      3  C   LIG    1       27.120 -20.353   5.703  0.00  0.00    +0.034 A 
ATOM      4  C   LIG    1       28.375 -20.684   6.230  0.00  0.00    +0.017 A 
ATOM      5  C   LIG    1       29.421 -19.771   6.227  0.00  0.00    +0.001 A 
ATOM      6  C   LIG    1       29.204 -18.502   5.690  0.00  0.00    +0.002 A 
ATOM      7  S   LIG    1       25.844 -21.571   5.903  0.00  0.00    -0.086 S 
ATOM      8  C   LIG    1       24.396 -20.682   5.388  0.00  0.00    +0.034 A 
ATOM      9  C   LIG    1       23.184 -21.373   5.482  0.00  0.00    +0.017 A 
ATOM     10  C   LIG    1       22.001 -20.811   5.040  0.00  0.00    +0.001 A 
ATOM     11  C   LIG    1       22.002 -19.477   4.615  0.00  0.00    +0.002 A 
ATOM     12  C   LIG    1       23.205 -18.773   4.552  0.00  0.00    +0.024 A 
ATOM     13  C   LIG    1       27.974 -18.190   5.112  0.00  0.00    +0.024 A 
ATOM     14  C   LIG    1       24.435 -19.389   4.809  0.00  0.00    +0.048 A 
ENDROOT
BRANCH   1  15
ATOM     15  C   LIG    1       25.737 -18.076   3.139  0.00  0.00    +0.129 C 
BRANCH  15  16
ATOM     16  C   LIG    1       25.786 -16.494   3.136  0.00  0.00    +0.071 C 
ATOM     17  C   LIG    1       27.214 -15.936   3.268  0.00  0.00    +0.026 C 
BRANCH  16  18
ATOM     18  N   LIG    1       24.879 -15.784   4.100  0.00  0.00    -0.299 NA
BRANCH  18  20
ATOM     19  C   LIG    1       24.677 -13.237   3.759  0.00  0.00    +0.020 C 
ATOM     20  C   LIG    1       25.265 -14.427   4.506  0.00  0.00    +0.081 C 
ENDBRANCH  18  20
BRANCH  18  21
ATOM     21  C   LIG    1       23.421 -15.850   3.846  0.00  0.00    +0.081 C 
ATOM     22  C   LIG    1       22.495 -15.683   5.051  0.00  0.00    +0.020 C 
ENDBRANCH  18  21
ENDBRANCH  16  18
ENDBRANCH  15  16
ENDBRANCH   1  15
TORSDOF 5
ENDMDL
