MODEL 1
REMARK VINA RESULT:      -0.3      0.000      0.000
REMARK  Name = *****
REMARK                            x       y       z     vdW  Elec       q    Type
REMARK                         _______ _______ _______ _____ _____    ______ ____
ROOT
ATOM      1  C   LIG    1       25.717 -14.241   6.118  0.00  0.00    +0.025 C 
ATOM      2  C   LIG    1       26.110 -13.436   4.865  0.00  0.00    +0.042 C 
ATOM      3  CA  LIG    1       27.578 -13.734   4.467  0.00  0.00    +0.201 C 
ATOM      4  N   LIG    1       27.561 -14.853   3.510  0.00  0.00    -0.271 N 
ATOM      5  C   LIG    1       26.365 -14.992   2.649  0.00  0.00    +0.165 C 
ATOM      6  CA  LIG    1       26.424 -16.523   2.908  0.00  0.00    +0.190 C 
ATOM      7  C   LIG    1       27.476 -16.143   3.972  0.00  0.00    +0.240 C 
ATOM      8  O   LIG    1       27.962 -16.656   4.954  0.00  0.00    -0.273 OA
ATOM      9  S   LIG    1       25.050 -14.027   3.474  0.00  0.00    -0.127 S 
ATOM     10  C   LIG    1       25.752 -11.966   5.107  0.00  0.00    +0.025 C 
ENDROOT
BRANCH   6  11
ATOM     11  N   LIG    1       25.187 -17.192   3.383  0.00  0.00    -0.299 N 
ATOM     12  H   LIG    1       24.538 -16.724   4.012  0.00  0.00    +0.150 HD
ATOM     13  C   LIG    1       24.913 -18.498   3.028  0.00  0.00    +0.250 C 
ATOM     14  O   LIG    1       25.678 -19.137   2.304  0.00  0.00    -0.273 OA
BRANCH  13  15
ATOM     15  C   LIG    1       23.636 -19.118   3.635  0.00  0.00    +0.306 C 
BRANCH  15  16
ATOM     16  C   LIG    1       23.975 -19.982   4.842  0.00  0.00    -0.007 A 
ATOM     17  C   LIG    1       23.060 -20.207   5.882  0.00  0.00    +0.006 A 
ATOM     18  C   LIG    1       23.409 -20.991   6.984  0.00  0.00    +0.000 A 
ATOM     19  C   LIG    1       24.675 -21.568   7.062  0.00  0.00    +0.000 A 
ATOM     20  C   LIG    1       25.589 -21.375   6.031  0.00  0.00    +0.000 A 
ATOM     21  C   LIG    1       25.240 -20.596   4.926  0.00  0.00    +0.006 A 
ENDBRANCH  15  16
BRANCH  15  22
ATOM     22  N   LIG    1       22.691 -18.015   3.939  0.00  0.00    +0.094 NA
ATOM     23  N   LIG    1       21.491 -18.286   3.728  0.00  0.00    -0.014 NA
ATOM     24  N   LIG    1       20.399 -18.528   3.530  0.00  0.00    -0.328 NA
ENDBRANCH  15  22
ENDBRANCH  13  15
ENDBRANCH   6  11
BRANCH   3  25
ATOM     25  C   LIG    1       28.369 -12.569   3.855  0.00  0.00    +0.327 C 
ATOM     26  O   LIG    1       28.157 -12.086   2.753  0.00  0.00    -0.249 OA
BRANCH  25  27
ATOM     27  OXT LIG    1       29.305 -12.049   4.690  0.00  0.00    -0.479 OA
ATOM     28  HXT LIG    1       29.048 -12.206   5.622  0.00  0.00    +0.295 HD
ENDBRANCH  25  27
ENDBRANCH   3  25
TORSDOF 6
ENDMDL
MODEL 2
REMARK VINA RESULT:       0.3      2.406      3.381
REMARK  Name = *****
REMARK                            x       y       z     vdW  Elec       q    Type
REMARK                         _______ _______ _______ _____ _____    ______ ____
ROOT
ATOM      1  C   LIG    1       25.485 -13.773   5.973  0.00  0.00    +0.025 C 
ATOM      2  C   LIG    1       24.700 -13.612   4.658  0.00  0.00    +0.042 C 
ATOM      3  CA  LIG    1       25.640 -13.142   3.519  0.00  0.00    +0.201 C 
ATOM      4  N   LIG    1       26.156 -14.345   2.843  0.00  0.00    -0.271 N 
ATOM      5  C   LIG    1       25.288 -15.544   2.836  0.00  0.00    +0.165 C 
ATOM      6  CA  LIG    1       26.552 -16.393   3.143  0.00  0.00    +0.190 C 
ATOM      7  C   LIG    1       27.223 -15.022   3.378  0.00  0.00    +0.240 C 
ATOM      8  O   LIG    1       28.208 -14.608   3.945  0.00  0.00    -0.273 OA
ATOM      9  S   LIG    1       24.076 -15.282   4.179  0.00  0.00    -0.127 S 
ATOM     10  C   LIG    1       23.473 -12.739   4.936  0.00  0.00    +0.025 C 
ENDROOT
BRANCH   6  11
ATOM     11  N   LIG    1       26.494 -17.328   4.295  0.00  0.00    -0.299 N 
ATOM     12  H   LIG    1       26.681 -17.013   5.244  0.00  0.00    +0.150 HD
ATOM     13  C   LIG    1       26.239 -18.671   4.098  0.00  0.00    +0.250 C 
ATOM     14  O   LIG    1       26.047 -19.126   2.970  0.00  0.00    -0.273 OA
BRANCH  13  15
ATOM     15  C   LIG    1       26.272 -19.564   5.357  0.00  0.00    +0.306 C 
BRANCH  15  16
ATOM     16  C   LIG    1       24.920 -20.228   5.585  0.00  0.00    -0.007 A 
ATOM     17  C   LIG    1       24.615 -20.917   6.768  0.00  0.00    +0.006 A 
ATOM     18  C   LIG    1       23.371 -21.530   6.938  0.00  0.00    +0.000 A 
ATOM     19  C   LIG    1       22.410 -21.459   5.931  0.00  0.00    +0.000 A 
ATOM     20  C   LIG    1       22.686 -20.762   4.759  0.00  0.00    +0.000 A 
ATOM     21  C   LIG    1       23.927 -20.144   4.590  0.00  0.00    +0.006 A 
ENDBRANCH  15  16
BRANCH  15  22
ATOM     22  N   LIG    1       27.390 -20.528   5.207  0.00  0.00    +0.094 NA
ATOM     23  N   LIG    1       28.405 -20.256   5.879  0.00  0.00    -0.014 NA
ATOM     24  N   LIG    1       29.332 -20.006   6.487  0.00  0.00    -0.328 NA
ENDBRANCH  15  22
ENDBRANCH  13  15
ENDBRANCH   6  11
BRANCH   3  25
ATOM     25  C   LIG    1       25.025 -12.207   2.469  0.00  0.00    +0.327 C 
ATOM     26  O   LIG    1       23.827 -12.079   2.265  0.00  0.00    -0.249 OA
BRANCH  25  27
ATOM     27  OXT LIG    1       25.941 -11.449   1.812  0.00  0.00    -0.479 OA
ATOM     28  HXT LIG    1       25.581 -10.552   1.651  0.00  0.00    +0.295 HD
ENDBRANCH  25  27
ENDBRANCH   3  25
TORSDOF 6
ENDMDL
MODEL 3
REMARK VINA RESULT:       2.4      2.430      7.493
REMARK  Name = *****
REMARK                            x       y       z     vdW  Elec       q    Type
REMARK                         _______ _______ _______ _____ _____    ______ ____
ROOT
ATOM      1  C   LIG    1       22.176 -18.510   2.178  0.00  0.00    +0.025 C 
ATOM      2  C   LIG    1       22.166 -18.874   3.675  0.00  0.00    +0.042 C 
ATOM      3  CA  LIG    1       23.014 -20.146   3.930  0.00  0.00    +0.201 C 
ATOM      4  N   LIG    1       24.387 -19.712   4.239  0.00  0.00    -0.271 N 
ATOM      5  C   LIG    1       24.550 -18.394   4.893  0.00  0.00    +0.165 C 
ATOM      6  CA  LIG    1       25.749 -18.132   3.940  0.00  0.00    +0.190 C 
ATOM      7  C   LIG    1       25.249 -19.402   3.218  0.00  0.00    +0.240 C 
ATOM      8  O   LIG    1       25.382 -19.905   2.126  0.00  0.00    -0.273 OA
ATOM      9  S   LIG    1       22.989 -17.494   4.584  0.00  0.00    -0.127 S 
ATOM     10  C   LIG    1       20.710 -18.916   4.149  0.00  0.00    +0.025 C 
ENDROOT
BRANCH   6  11
ATOM     11  N   LIG    1       25.752 -16.865   3.165  0.00  0.00    -0.299 N 
ATOM     12  H   LIG    1       25.083 -16.698   2.418  0.00  0.00    +0.150 HD
ATOM     13  C   LIG    1       26.710 -15.899   3.403  0.00  0.00    +0.250 C 
ATOM     14  O   LIG    1       27.576 -16.056   4.264  0.00  0.00    -0.273 OA
BRANCH  13  15
ATOM     15  C   LIG    1       26.664 -14.653   2.492  0.00  0.00    +0.306 C 
BRANCH  15  16
ATOM     16  C   LIG    1       25.597 -13.675   2.966  0.00  0.00    -0.007 A 
ATOM     17  C   LIG    1       25.094 -13.694   4.276  0.00  0.00    +0.006 A 
ATOM     18  C   LIG    1       24.102 -12.794   4.674  0.00  0.00    +0.000 A 
ATOM     19  C   LIG    1       23.601 -11.857   3.772  0.00  0.00    +0.000 A 
ATOM     20  C   LIG    1       24.102 -11.809   2.474  0.00  0.00    +0.000 A 
ATOM     21  C   LIG    1       25.098 -12.704   2.077  0.00  0.00    +0.006 A 
ENDBRANCH  15  16
BRANCH  15  22
ATOM     22  N   LIG    1       28.027 -14.069   2.445  0.00  0.00    +0.094 NA
ATOM     23  N   LIG    1       28.313 -13.338   3.415  0.00  0.00    -0.014 NA
ATOM     24  N   LIG    1       28.573 -12.668   4.295  0.00  0.00    -0.328 NA
ENDBRANCH  15  22
ENDBRANCH  13  15
ENDBRANCH   6  11
BRANCH   3  25
ATOM     25  C   LIG    1       22.524 -21.079   5.047  0.00  0.00    +0.327 C 
ATOM     26  O   LIG    1       23.143 -21.322   6.073  0.00  0.00    -0.249 OA
BRANCH  25  27
ATOM     27  OXT LIG    1       21.276 -21.571   4.837  0.00  0.00    -0.479 OA
ATOM     28  HXT LIG    1       21.025 -21.460   3.897  0.00  0.00    +0.295 HD
ENDBRANCH  25  27
ENDBRANCH   3  25
TORSDOF 6
ENDMDL
MODEL 4
REMARK VINA RESULT:       2.5      2.381      3.028
REMARK  Name = *****
REMARK                            x       y       z     vdW  Elec       q    Type
REMARK                         _______ _______ _______ _____ _____    ______ ____
ROOT
ATOM      1  C   LIG    1       26.392 -14.124   5.693  0.00  0.00    +0.025 C 
ATOM      2  C   LIG    1       25.225 -13.610   4.829  0.00  0.00    +0.042 C 
ATOM      3  CA  LIG    1       25.703 -13.335   3.381  0.00  0.00    +0.201 C 
ATOM      4  N   LIG    1       25.490 -14.565   2.600  0.00  0.00    -0.271 N 
ATOM      5  C   LIG    1       24.372 -15.444   3.011  0.00  0.00    +0.165 C 
ATOM      6  CA  LIG    1       25.316 -16.657   2.789  0.00  0.00    +0.190 C 
ATOM      7  C   LIG    1       26.413 -15.578   2.660  0.00  0.00    +0.240 C 
ATOM      8  O   LIG    1       27.620 -15.534   2.739  0.00  0.00    -0.273 OA
ATOM      9  S   LIG    1       23.974 -14.963   4.729  0.00  0.00    -0.127 S 
ATOM     10  C   LIG    1       24.562 -12.441   5.564  0.00  0.00    +0.025 C 
ENDROOT
BRANCH   6  11
ATOM     11  N   LIG    1       25.454 -17.639   3.895  0.00  0.00    -0.299 N 
ATOM     12  H   LIG    1       25.767 -17.355   4.820  0.00  0.00    +0.150 HD
ATOM     13  C   LIG    1       25.214 -18.981   3.676  0.00  0.00    +0.250 C 
ATOM     14  O   LIG    1       24.874 -19.398   2.569  0.00  0.00    -0.273 OA
BRANCH  13  15
ATOM     15  C   LIG    1       25.455 -19.922   4.877  0.00  0.00    +0.306 C 
BRANCH  15  16
ATOM     16  C   LIG    1       26.864 -19.747   5.427  0.00  0.00    -0.007 A 
ATOM     17  C   LIG    1       27.309 -20.424   6.573  0.00  0.00    +0.006 A 
ATOM     18  C   LIG    1       28.603 -20.228   7.062  0.00  0.00    +0.000 A 
ATOM     19  C   LIG    1       29.475 -19.357   6.411  0.00  0.00    +0.000 A 
ATOM     20  C   LIG    1       29.059 -18.692   5.261  0.00  0.00    +0.000 A 
ATOM     21  C   LIG    1       27.768 -18.892   4.768  0.00  0.00    +0.006 A 
ENDBRANCH  15  16
BRANCH  15  22
ATOM     22  N   LIG    1       24.390 -19.670   5.878  0.00  0.00    +0.094 NA
ATOM     23  N   LIG    1       23.291 -20.199   5.614  0.00  0.00    -0.014 NA
ATOM     24  N   LIG    1       22.289 -20.676   5.371  0.00  0.00    -0.328 NA
ENDBRANCH  15  22
ENDBRANCH  13  15
ENDBRANCH   6  11
BRANCH   3  25
ATOM     25  C   LIG    1       25.032 -12.162   2.652  0.00  0.00    +0.327 C 
ATOM     26  O   LIG    1       25.584 -11.447   1.828  0.00  0.00    -0.249 OA
BRANCH  25  27
ATOM     27  OXT LIG    1       23.714 -12.021   2.944  0.00  0.00    -0.479 OA
ATOM     28  HXT LIG    1       23.606 -11.674   3.853  0.00  0.00    +0.295 HD
ENDBRANCH  25  27
ENDBRANCH   3  25
TORSDOF 6
ENDMDL
