MODEL 1
REMARK VINA RESULT:      -4.3      0.000      0.000
REMARK  Name = *****
REMARK                            x       y       z     vdW  Elec       q    Type
REMARK                         _______ _______ _______ _____ _____    ______ ____
ROOT
ATOM      1  C   LIG    1       25.656 -13.713   3.354  0.00  0.00    +0.064 A 
ATOM      2  N   LIG    1       26.214 -13.909   2.152  0.00  0.00    -0.179 NA
ATOM      3  N   LIG    1       27.520 -14.064   2.420  0.00  0.00    -0.284 N 
ATOM      4  H   LIG    1       28.156 -14.217   1.644  0.00  0.00    +0.188 HD
ATOM      5  C   LIG    1       27.815 -13.990   3.749  0.00  0.00    +0.105 A 
ATOM      6  C   LIG    1       26.621 -13.761   4.389  0.00  0.00    +0.044 A 
ENDROOT
BRANCH   1   7
ATOM      7  C   LIG    1       24.188 -13.477   3.481  0.00  0.00    +0.072 C 
BRANCH   7   8
ATOM      8  C   LIG    1       23.825 -12.002   3.289  0.00  0.00    +0.084 C 
BRANCH   8   9
ATOM      9  N   LIG    1       24.037 -11.569   1.904  0.00  0.00    -0.330 NA
ATOM     10  H   LIG    1       24.149 -10.555   1.886  0.00  0.00    +0.118 HD
ATOM     11  H   LIG    1       24.921 -11.953   1.570  0.00  0.00    +0.118 HD
ENDBRANCH   8   9
ENDBRANCH   7   8
ENDBRANCH   1   7
TORSDOF 3
ENDMDL
MODEL 2
REMARK VINA RESULT:      -4.3      7.573      7.952
REMARK  Name = *****
REMARK                            x       y       z     vdW  Elec       q    Type
REMARK                         _______ _______ _______ _____ _____    ______ ____
ROOT
ATOM      1  C   LIG    1       25.541 -20.596   6.411  0.00  0.00    +0.064 A 
ATOM      2  N   LIG    1       25.649 -20.368   5.095  0.00  0.00    -0.179 NA
ATOM      3  N   LIG    1       26.953 -20.106   4.916  0.00  0.00    -0.284 N 
ATOM      4  H   LIG    1       27.275 -19.888   3.978  0.00  0.00    +0.188 HD
ATOM      5  C   LIG    1       27.685 -20.174   6.064  0.00  0.00    +0.105 A 
ATOM      6  C   LIG    1       26.793 -20.491   7.061  0.00  0.00    +0.044 A 
ENDROOT
BRANCH   1   7
ATOM      7  C   LIG    1       24.215 -20.909   7.021  0.00  0.00    +0.072 C 
BRANCH   7   8
ATOM      8  C   LIG    1       23.053 -20.450   6.137  0.00  0.00    +0.084 C 
BRANCH   8   9
ATOM      9  N   LIG    1       22.639 -21.500   5.200  0.00  0.00    -0.330 NA
ATOM     10  H   LIG    1       22.236 -22.275   5.726  0.00  0.00    +0.118 HD
ATOM     11  H   LIG    1       21.886 -21.140   4.613  0.00  0.00    +0.118 HD
ENDBRANCH   8   9
ENDBRANCH   7   8
ENDBRANCH   1   7
TORSDOF 3
ENDMDL
MODEL 3
REMARK VINA RESULT:      -4.2      7.420      7.571
REMARK  Name = *****
REMARK                            x       y       z     vdW  Elec       q    Type
REMARK                         _______ _______ _______ _____ _____    ______ ____
ROOT
ATOM      1  C   LIG    1       24.877 -20.605   6.023  0.00  0.00    +0.064 A 
ATOM      2  N   LIG    1       25.255 -20.422   4.751  0.00  0.00    -0.179 NA
ATOM      3  N   LIG    1       26.585 -20.260   4.827  0.00  0.00    -0.284 N 
ATOM      4  H   LIG    1       27.099 -20.091   3.967  0.00  0.00    +0.188 HD
ATOM      5  C   LIG    1       27.073 -20.347   6.097  0.00  0.00    +0.105 A 
ATOM      6  C   LIG    1       25.984 -20.572   6.904  0.00  0.00    +0.044 A 
ENDROOT
BRANCH   1   7
ATOM      7  C   LIG    1       23.438 -20.806   6.366  0.00  0.00    +0.072 C 
BRANCH   7   8
ATOM      8  C   LIG    1       22.519 -20.519   5.176  0.00  0.00    +0.084 C 
BRANCH   8   9
ATOM      9  N   LIG    1       22.396 -19.079   4.923  0.00  0.00    -0.330 NA
ATOM     10  H   LIG    1       21.429 -18.796   5.076  0.00  0.00    +0.118 HD
ATOM     11  H   LIG    1       22.948 -18.574   5.616  0.00  0.00    +0.118 HD
ENDBRANCH   8   9
ENDBRANCH   7   8
ENDBRANCH   1   7
TORSDOF 3
ENDMDL
MODEL 4
REMARK VINA RESULT:      -4.2      7.799      8.626
REMARK  Name = *****
REMARK                            x       y       z     vdW  Elec       q    Type
REMARK                         _______ _______ _______ _____ _____    ______ ____
ROOT
ATOM      1  C   LIG    1       24.482 -20.818   6.063  0.00  0.00    +0.064 A 
ATOM      2  N   LIG    1       24.675 -21.526   4.941  0.00  0.00    -0.179 NA
ATOM      3  N   LIG    1       23.465 -21.549   4.359  0.00  0.00    -0.284 N 
ATOM      4  H   LIG    1       23.363 -22.050   3.482  0.00  0.00    +0.188 HD
ATOM      5  C   LIG    1       22.511 -20.870   5.058  0.00  0.00    +0.105 A 
ATOM      6  C   LIG    1       23.141 -20.381   6.177  0.00  0.00    +0.044 A 
ENDROOT
BRANCH   1   7
ATOM      7  C   LIG    1       25.607 -20.580   7.014  0.00  0.00    +0.072 C 
BRANCH   7   8
ATOM      8  C   LIG    1       26.969 -20.866   6.374  0.00  0.00    +0.084 C 
BRANCH   8   9
ATOM      9  N   LIG    1       27.193 -20.034   5.186  0.00  0.00    -0.330 NA
ATOM     10  H   LIG    1       26.547 -19.245   5.206  0.00  0.00    +0.118 HD
ATOM     11  H   LIG    1       28.128 -19.631   5.237  0.00  0.00    +0.118 HD
ENDBRANCH   8   9
ENDBRANCH   7   8
ENDBRANCH   1   7
TORSDOF 3
ENDMDL
MODEL 5
REMARK VINA RESULT:      -4.2      0.924      3.321
REMARK  Name = *****
REMARK                            x       y       z     vdW  Elec       q    Type
REMARK                         _______ _______ _______ _____ _____    ______ ____
ROOT
ATOM      1  C   LIG    1       25.441 -13.803   3.092  0.00  0.00    +0.064 A 
ATOM      2  N   LIG    1       25.278 -13.303   1.859  0.00  0.00    -0.179 NA
ATOM      3  N   LIG    1       24.344 -12.351   2.015  0.00  0.00    -0.284 N 
ATOM      4  H   LIG    1       24.045 -11.832   1.195  0.00  0.00    +0.188 HD
ATOM      5  C   LIG    1       23.917 -12.212   3.303  0.00  0.00    +0.105 A 
ATOM      6  C   LIG    1       24.612 -13.146   4.033  0.00  0.00    +0.044 A 
ENDROOT
BRANCH   1   7
ATOM      7  C   LIG    1       26.401 -14.919   3.338  0.00  0.00    +0.072 C 
BRANCH   7   8
ATOM      8  C   LIG    1       27.723 -14.419   3.927  0.00  0.00    +0.084 C 
BRANCH   8   9
ATOM      9  N   LIG    1       28.227 -13.246   3.204  0.00  0.00    -0.330 NA
ATOM     10  H   LIG    1       29.087 -12.926   3.650  0.00  0.00    +0.118 HD
ATOM     11  H   LIG    1       28.491 -13.528   2.260  0.00  0.00    +0.118 HD
ENDBRANCH   8   9
ENDBRANCH   7   8
ENDBRANCH   1   7
TORSDOF 3
ENDMDL
MODEL 6
REMARK VINA RESULT:      -4.1      6.814      7.848
REMARK  Name = *****
REMARK                            x       y       z     vdW  Elec       q    Type
REMARK                         _______ _______ _______ _____ _____    ______ ____
ROOT
ATOM      1  C   LIG    1       24.220 -20.339   5.159  0.00  0.00    +0.064 A 
ATOM      2  N   LIG    1       24.478 -19.647   4.040  0.00  0.00    -0.179 NA
ATOM      3  N   LIG    1       23.347 -18.961   3.814  0.00  0.00    -0.284 N 
ATOM      4  H   LIG    1       23.303 -18.362   2.995  0.00  0.00    +0.188 HD
ATOM      5  C   LIG    1       22.383 -19.175   4.754  0.00  0.00    +0.105 A 
ATOM      6  C   LIG    1       22.919 -20.070   5.648  0.00  0.00    +0.044 A 
ENDROOT
BRANCH   1   7
ATOM      7  C   LIG    1       25.245 -21.257   5.737  0.00  0.00    +0.072 C 
BRANCH   7   8
ATOM      8  C   LIG    1       26.489 -20.502   6.212  0.00  0.00    +0.084 C 
BRANCH   8   9
ATOM      9  N   LIG    1       27.334 -20.089   5.086  0.00  0.00    -0.330 NA
ATOM     10  H   LIG    1       27.836 -20.903   4.732  0.00  0.00    +0.118 HD
ATOM     11  H   LIG    1       26.736 -19.776   4.322  0.00  0.00    +0.118 HD
ENDBRANCH   8   9
ENDBRANCH   7   8
ENDBRANCH   1   7
TORSDOF 3
ENDMDL
MODEL 7
REMARK VINA RESULT:      -4.0      1.584      3.479
REMARK  Name = *****
REMARK                            x       y       z     vdW  Elec       q    Type
REMARK                         _______ _______ _______ _____ _____    ______ ____
ROOT
ATOM      1  C   LIG    1       26.385 -13.617   3.504  0.00  0.00    +0.064 A 
ATOM      2  N   LIG    1       26.229 -13.510   2.177  0.00  0.00    -0.179 NA
ATOM      3  N   LIG    1       24.934 -13.188   2.027  0.00  0.00    -0.284 N 
ATOM      4  H   LIG    1       24.576 -13.064   1.085  0.00  0.00    +0.188 HD
ATOM      5  C   LIG    1       24.262 -13.070   3.207  0.00  0.00    +0.105 A 
ATOM      6  C   LIG    1       25.179 -13.344   4.192  0.00  0.00    +0.044 A 
ENDROOT
BRANCH   1   7
ATOM      7  C   LIG    1       27.708 -13.989   4.085  0.00  0.00    +0.072 C 
BRANCH   7   8
ATOM      8  C   LIG    1       28.719 -12.843   3.989  0.00  0.00    +0.084 C 
BRANCH   8   9
ATOM      9  N   LIG    1       28.814 -12.099   5.250  0.00  0.00    -0.330 NA
ATOM     10  H   LIG    1       29.091 -12.739   5.994  0.00  0.00    +0.118 HD
ATOM     11  H   LIG    1       29.569 -11.417   5.175  0.00  0.00    +0.118 HD
ENDBRANCH   8   9
ENDBRANCH   7   8
ENDBRANCH   1   7
TORSDOF 3
ENDMDL
MODEL 8
REMARK VINA RESULT:      -3.9      1.570      3.562
REMARK  Name = *****
REMARK                            x       y       z     vdW  Elec       q    Type
REMARK                         _______ _______ _______ _____ _____    ______ ____
ROOT
ATOM      1  C   LIG    1       25.542 -13.290   2.893  0.00  0.00    +0.064 A 
ATOM      2  N   LIG    1       24.824 -12.627   1.976  0.00  0.00    -0.179 NA
ATOM      3  N   LIG    1       23.836 -12.058   2.685  0.00  0.00    -0.284 N 
ATOM      4  H   LIG    1       23.146 -11.502   2.188  0.00  0.00    +0.188 HD
ATOM      5  C   LIG    1       23.905 -12.319   4.021  0.00  0.00    +0.105 A 
ATOM      6  C   LIG    1       25.008 -13.121   4.192  0.00  0.00    +0.044 A 
ENDROOT
BRANCH   1   7
ATOM      7  C   LIG    1       26.740 -14.083   2.490  0.00  0.00    +0.072 C 
BRANCH   7   8
ATOM      8  C   LIG    1       27.048 -15.204   3.488  0.00  0.00    +0.084 C 
BRANCH   8   9
ATOM      9  N   LIG    1       26.265 -16.411   3.202  0.00  0.00    -0.330 NA
ATOM     10  H   LIG    1       26.552 -16.787   2.298  0.00  0.00    +0.118 HD
ATOM     11  H   LIG    1       26.501 -17.128   3.888  0.00  0.00    +0.118 HD
ENDBRANCH   8   9
ENDBRANCH   7   8
ENDBRANCH   1   7
TORSDOF 3
ENDMDL
MODEL 9
REMARK VINA RESULT:      -3.9      1.855      1.960
REMARK  Name = *****
REMARK                            x       y       z     vdW  Elec       q    Type
REMARK                         _______ _______ _______ _____ _____    ______ ____
ROOT
ATOM      1  C   LIG    1       26.212 -13.873   4.122  0.00  0.00    +0.064 A 
ATOM      2  N   LIG    1       26.532 -13.352   5.315  0.00  0.00    -0.179 NA
ATOM      3  N   LIG    1       27.814 -12.980   5.174  0.00  0.00    -0.284 N 
ATOM      4  H   LIG    1       28.283 -12.561   5.971  0.00  0.00    +0.188 HD
ATOM      5  C   LIG    1       28.320 -13.229   3.933  0.00  0.00    +0.105 A 
ATOM      6  C   LIG    1       27.301 -13.812   3.220  0.00  0.00    +0.044 A 
ENDROOT
BRANCH   1   7
ATOM      7  C   LIG    1       24.849 -14.428   3.877  0.00  0.00    +0.072 C 
BRANCH   7   8
ATOM      8  C   LIG    1       23.928 -13.409   3.200  0.00  0.00    +0.084 C 
BRANCH   8   9
ATOM      9  N   LIG    1       23.922 -12.128   3.915  0.00  0.00    -0.330 NA
ATOM     10  H   LIG    1       24.529 -12.200   4.731  0.00  0.00    +0.118 HD
ATOM     11  H   LIG    1       24.340 -11.415   3.317  0.00  0.00    +0.118 HD
ENDBRANCH   8   9
ENDBRANCH   7   8
ENDBRANCH   1   7
TORSDOF 3
ENDMDL
