MODEL 1
REMARK VINA RESULT:      -0.5      0.000      0.000
REMARK  Name = *****
REMARK                            x       y       z     vdW  Elec       q    Type
REMARK                         _______ _______ _______ _____ _____    ______ ____
ROOT
ATOM      1  C   LIG    1       23.313 -16.893   4.069  0.00  0.00    +0.126 C 
ATOM      2  C   LIG    1       24.404 -17.692   3.702  0.00  0.00    -0.001 C 
ATOM      3  C   LIG    1       25.687 -17.146   3.787  0.00  0.00    +0.021 C 
ATOM      4  C   LIG    1       25.852 -15.788   4.085  0.00  0.00    +0.046 C 
ATOM      5  C   LIG    1       27.225 -15.244   4.084  0.00  0.00    +0.203 C 
ATOM      6  C   LIG    1       27.379 -13.786   4.015  0.00  0.00    +0.122 C 
ATOM      7  C   LIG    1       26.261 -13.055   4.123  0.00  0.00    +0.105 C 
ATOM      8  N   LIG    1       24.948 -13.524   4.292  0.00  0.00    -0.340 NA
ATOM      9  O   LIG    1       28.216 -15.970   4.076  0.00  0.00    -0.286 OA
ATOM     10  C   LIG    1       24.754 -14.929   4.301  0.00  0.00    +0.057 C 
ATOM     11  C   LIG    1       23.506 -15.550   4.434  0.00  0.00    +0.072 C 
ENDROOT
BRANCH   1  13
ATOM     12  C   LIG    1       21.326 -17.656   5.136  0.00  0.00    +0.277 C 
ATOM     13  O   LIG    1       22.081 -17.480   3.947  0.00  0.00    -0.495 OA
ENDBRANCH   1  13
BRANCH   6  14
ATOM     14  C   LIG    1       28.670 -13.121   3.728  0.00  0.00    +0.342 C 
ATOM     15  O   LIG    1       29.056 -12.129   4.307  0.00  0.00    -0.245 OA
BRANCH  14  16
ATOM     16  O   LIG    1       29.344 -13.665   2.685  0.00  0.00    -0.477 OA
ATOM     17  H   LIG    1       28.852 -14.378   2.212  0.00  0.00    +0.295 HD
ENDBRANCH  14  16
ENDBRANCH   6  14
BRANCH   2  18
ATOM     18  C   LIG    1       24.233 -19.143   3.300  0.00  0.00    +0.076 C 
BRANCH  18  19
ATOM     19  C   LIG    1       24.255 -20.063   4.494  0.00  0.00    -0.006 C 
ATOM     20  C   LIG    1       25.471 -20.405   5.096  0.00  0.00    +0.145 C 
ATOM     21  F   LIG    1       26.618 -19.984   4.539  0.00  0.00    -0.204 F 
ATOM     22  C   LIG    1       25.499 -21.154   6.271  0.00  0.00    +0.076 C 
ATOM     23 CL   LIG    1       26.996 -21.558   7.016  0.00  0.00    -0.081 Cl
ATOM     24  C   LIG    1       24.305 -21.572   6.859  0.00  0.00    +0.023 C 
ATOM     25  C   LIG    1       23.086 -21.254   6.258  0.00  0.00    +0.002 C 
ATOM     26  C   LIG    1       23.061 -20.510   5.078  0.00  0.00    +0.007 C 
ENDBRANCH  18  19
ENDBRANCH   2  18
BRANCH   8  27
ATOM     27  C   LIG    1       23.815 -12.538   4.052  0.00  0.00    +0.115 C 
BRANCH  27  28
ATOM     28  C   LIG    1       23.597 -11.447   5.153  0.00  0.00    +0.008 C 
ATOM     29  C   LIG    1       24.637 -11.472   6.280  0.00  0.00    +0.009 C 
ATOM     30  C   LIG    1       22.205 -11.557   5.795  0.00  0.00    +0.009 C 
ENDBRANCH  27  28
BRANCH  27  31
ATOM     31  C   LIG    1       23.889 -11.956   2.619  0.00  0.00    +0.181 C 
BRANCH  31  32
ATOM     32  O   LIG    1       24.955 -12.526   1.861  0.00  0.00    -0.393 OA
ATOM     33  H   LIG    1       24.899 -13.490   1.988  0.00  0.00    +0.209 HD
ENDBRANCH  31  32
ENDBRANCH  27  31
ENDBRANCH   8  27
TORSDOF 9
ENDMDL
