MODEL 1
REMARK VINA RESULT:      12.6      0.000      0.000
REMARK  Name = *****
REMARK                            x       y       z     vdW  Elec       q    Type
REMARK                         _______ _______ _______ _____ _____    ______ ____
ROOT
ATOM      1  C   LIG    1       24.198 -19.762   5.377  0.00  0.00    +0.180 C 
ATOM      2  C   LIG    1       24.613 -19.632   3.822  0.00  0.00    +0.021 C 
ATOM      3  C   LIG    1       26.122 -19.277   3.885  0.00  0.00    +0.006 C 
ATOM      4  C   LIG    1       26.412 -17.780   4.227  0.00  0.00    +0.037 C 
ATOM      5  C   LIG    1       25.804 -16.830   3.174  0.00  0.00    +0.153 C 
ATOM      6  C   LIG    1       24.294 -17.129   2.932  0.00  0.00    +0.154 C 
ATOM      7  F   LIG    1       26.424 -17.197   1.983  0.00  0.00    -0.238 F 
ATOM      8  C   LIG    1       26.191 -15.282   3.393  0.00  0.00    +0.047 C 
ATOM      9  C   LIG    1       27.710 -15.122   3.695  0.00  0.00    -0.020 C 
ATOM     10  C   LIG    1       28.197 -13.867   3.853  0.00  0.00    +0.054 C 
ATOM     11  C   LIG    1       27.536 -13.227   5.053  0.00  0.00    +0.179 C 
ATOM     12  C   LIG    1       26.106 -13.594   5.292  0.00  0.00    +0.047 C 
ATOM     13  O   LIG    1       28.104 -12.371   5.716  0.00  0.00    -0.288 OA
ATOM     14  C   LIG    1       28.291 -16.148   4.646  0.00  0.00    +0.194 C 
ATOM     15  F   LIG    1       27.838 -15.932   5.916  0.00  0.00    -0.241 F 
ATOM     16  C   LIG    1       25.825 -14.523   2.085  0.00  0.00    +0.023 C 
ATOM     17  C   LIG    1       25.485 -14.510   4.521  0.00  0.00    -0.009 C 
ATOM     18  C   LIG    1       27.936 -17.571   4.289  0.00  0.00    +0.048 C 
ATOM     19  C   LIG    1       26.617 -20.246   4.956  0.00  0.00    +0.012 C 
ATOM     20  C   LIG    1       24.454 -21.014   3.104  0.00  0.00    +0.016 C 
ATOM     21  C   LIG    1       23.889 -18.614   2.903  0.00  0.00    +0.045 C 
ATOM     22  C   LIG    1       25.596 -20.086   6.082  0.00  0.00    +0.038 C 
ATOM     23  C   LIG    1       25.748 -21.247   7.062  0.00  0.00    +0.012 C 
ENDROOT
BRANCH   6  24
ATOM     24  O   LIG    1       23.397 -16.452   3.802  0.00  0.00    -0.389 OA
ATOM     25  H   LIG    1       23.112 -17.099   4.476  0.00  0.00    +0.210 HD
ENDBRANCH   6  24
BRANCH   1  26
ATOM     26  C   LIG    1       23.063 -20.823   5.601  0.00  0.00    +0.192 C 
ATOM     27  O   LIG    1       22.685 -21.140   6.732  0.00  0.00    -0.292 OA
BRANCH  26  28
ATOM     28  C   LIG    1       22.462 -21.493   4.372  0.00  0.00    +0.187 C 
ATOM     29 CL   LIG    1       20.684 -21.572   4.502  0.00  0.00    -0.117 Cl
ENDBRANCH  26  28
ENDBRANCH   1  26
BRANCH   1  30
ATOM     30  O   LIG    1       23.723 -18.450   5.799  0.00  0.00    -0.450 OA
BRANCH  30  31
ATOM     31  C   LIG    1       22.440 -18.076   5.518  0.00  0.00    +0.308 C 
ATOM     32  O   LIG    1       21.776 -18.514   4.608  0.00  0.00    -0.251 OA
BRANCH  31  34
ATOM     33  C   LIG    1       22.032 -15.631   5.788  0.00  0.00    +0.015 C 
ATOM     34  C   LIG    1       21.969 -16.991   6.462  0.00  0.00    +0.117 C 
ENDBRANCH  31  34
ENDBRANCH  30  31
ENDBRANCH   1  30
TORSDOF 6
ENDMDL
MODEL 2
REMARK VINA RESULT:      14.6      2.877      6.397
REMARK  Name = *****
REMARK                            x       y       z     vdW  Elec       q    Type
REMARK                         _______ _______ _______ _____ _____    ______ ____
ROOT
ATOM      1  C   LIG    1       24.258 -13.934   4.705  0.00  0.00    +0.180 C 
ATOM      2  C   LIG    1       23.939 -14.728   3.335  0.00  0.00    +0.021 C 
ATOM      3  C   LIG    1       23.129 -15.960   3.820  0.00  0.00    +0.006 C 
ATOM      4  C   LIG    1       24.005 -17.098   4.436  0.00  0.00    +0.037 C 
ATOM      5  C   LIG    1       25.024 -17.645   3.414  0.00  0.00    +0.153 C 
ATOM      6  C   LIG    1       25.861 -16.501   2.765  0.00  0.00    +0.154 C 
ATOM      7  F   LIG    1       24.237 -18.130   2.373  0.00  0.00    -0.238 F 
ATOM      8  C   LIG    1       25.858 -18.918   3.943  0.00  0.00    +0.047 C 
ATOM      9  C   LIG    1       24.921 -19.954   4.630  0.00  0.00    -0.020 C 
ATOM     10  C   LIG    1       25.474 -21.106   5.083  0.00  0.00    +0.054 C 
ATOM     11  C   LIG    1       26.482 -20.781   6.163  0.00  0.00    +0.179 C 
ATOM     12  C   LIG    1       27.250 -19.510   5.986  0.00  0.00    +0.047 C 
ATOM     13  O   LIG    1       26.734 -21.570   7.062  0.00  0.00    -0.288 OA
ATOM     14  C   LIG    1       23.860 -19.365   5.537  0.00  0.00    +0.194 C 
ATOM     15  F   LIG    1       24.428 -18.863   6.673  0.00  0.00    -0.241 F 
ATOM     16  C   LIG    1       26.552 -19.563   2.708  0.00  0.00    +0.023 C 
ATOM     17  C   LIG    1       26.985 -18.674   4.961  0.00  0.00    -0.009 C 
ATOM     18  C   LIG    1       23.081 -18.239   4.901  0.00  0.00    +0.048 C 
ATOM     19  C   LIG    1       22.179 -15.320   4.828  0.00  0.00    +0.012 C 
ATOM     20  C   LIG    1       23.023 -13.860   2.409  0.00  0.00    +0.016 C 
ATOM     21  C   LIG    1       25.098 -15.209   2.423  0.00  0.00    +0.045 C 
ATOM     22  C   LIG    1       23.097 -14.443   5.678  0.00  0.00    +0.038 C 
ATOM     23  C   LIG    1       22.245 -13.466   6.487  0.00  0.00    +0.012 C 
ENDROOT
BRANCH   6  24
ATOM     24  O   LIG    1       27.036 -16.136   3.476  0.00  0.00    -0.389 OA
ATOM     25  H   LIG    1       26.746 -15.703   4.302  0.00  0.00    +0.210 HD
ENDBRANCH   6  24
BRANCH   1  26
ATOM     26  C   LIG    1       24.328 -12.381   4.485  0.00  0.00    +0.192 C 
ATOM     27  O   LIG    1       24.278 -11.590   5.431  0.00  0.00    -0.292 OA
BRANCH  26  28
ATOM     28  C   LIG    1       24.418 -11.867   3.055  0.00  0.00    +0.187 C 
ATOM     29 CL   LIG    1       25.937 -12.402   2.285  0.00  0.00    -0.117 Cl
ENDBRANCH  26  28
ENDBRANCH   1  26
BRANCH   1  30
ATOM     30  O   LIG    1       25.550 -14.413   5.181  0.00  0.00    -0.450 OA
BRANCH  30  31
ATOM     31  C   LIG    1       26.604 -13.548   5.256  0.00  0.00    +0.308 C 
ATOM     32  O   LIG    1       26.618 -12.532   5.912  0.00  0.00    -0.251 OA
BRANCH  31  34
ATOM     33  C   LIG    1       28.805 -12.914   4.274  0.00  0.00    +0.015 C 
ATOM     34  C   LIG    1       27.741 -13.994   4.363  0.00  0.00    +0.117 C 
ENDBRANCH  31  34
ENDBRANCH  30  31
ENDBRANCH   1  30
TORSDOF 6
ENDMDL
