MODEL 1
REMARK VINA RESULT:      -8.4      0.000      0.000
REMARK  Name = *****
REMARK                            x       y       z     vdW  Elec       q    Type
REMARK                         _______ _______ _______ _____ _____    ______ ____
ROOT
ATOM      1  C   LIG    1       24.965 -20.139   5.033  0.00  0.00    -0.017 C 
ATOM      2  C   LIG    1       25.927 -20.456   6.044  0.00  0.00    +0.042 C 
ATOM      3  C   LIG    1       27.388 -20.436   6.043  0.00  0.00    +0.169 C 
ATOM      4  C   LIG    1       28.092 -20.757   7.373  0.00  0.00    +0.075 C 
ATOM      5  C   LIG    1       27.244 -21.656   8.303  0.00  0.00    +0.019 C 
ATOM      6  C   LIG    1       25.796 -21.184   8.497  0.00  0.00    +0.055 C 
ATOM      7  O   LIG    1       28.041 -20.110   5.055  0.00  0.00    -0.292 OA
ATOM      8  C   LIG    1       25.225 -20.814   7.177  0.00  0.00    +0.027 C 
ATOM      9  N   LIG    1       23.890 -20.768   6.896  0.00  0.00    -0.361 NA
ATOM     10  H   LIG    1       23.144 -20.999   7.540  0.00  0.00    +0.165 HD
ATOM     11  C   LIG    1       23.711 -20.337   5.603  0.00  0.00    +0.017 C 
ATOM     12  C   LIG    1       22.341 -20.159   5.054  0.00  0.00    +0.063 C 
ENDROOT
BRANCH   1  14
ATOM     13  C   LIG    1       25.410 -18.167   3.538  0.00  0.00    +0.009 C 
ATOM     14  C   LIG    1       25.249 -19.677   3.634  0.00  0.00    +0.034 C 
ENDBRANCH   1  14
BRANCH   4  15
ATOM     15  C   LIG    1       28.522 -19.413   7.997  0.00  0.00    +0.096 C 
BRANCH  15  16
ATOM     16  N   LIG    1       29.812 -18.873   7.520  0.00  0.00    -0.297 NA
ATOM     17  C   LIG    1       30.412 -17.864   8.426  0.00  0.00    +0.112 C 
ATOM     18  C   LIG    1       30.981 -18.443   9.732  0.00  0.00    +0.175 C 
ATOM     19  O   LIG    1       31.956 -19.458   9.464  0.00  0.00    -0.377 OA
ATOM     20  C   LIG    1       31.388 -20.507   8.671  0.00  0.00    +0.175 C 
ATOM     21  C   LIG    1       30.808 -19.963   7.350  0.00  0.00    +0.112 C 
ENDBRANCH  15  16
ENDBRANCH   4  15
TORSDOF 3
ENDMDL
MODEL 2
REMARK VINA RESULT:      -8.0      0.719      1.377
REMARK  Name = *****
REMARK                            x       y       z     vdW  Elec       q    Type
REMARK                         _______ _______ _______ _____ _____    ______ ____
ROOT
ATOM      1  C   LIG    1       24.897 -20.103   4.984  0.00  0.00    -0.017 C 
ATOM      2  C   LIG    1       25.843 -20.476   5.991  0.00  0.00    +0.042 C 
ATOM      3  C   LIG    1       27.303 -20.516   5.992  0.00  0.00    +0.169 C 
ATOM      4  C   LIG    1       27.991 -20.888   7.318  0.00  0.00    +0.075 C 
ATOM      5  C   LIG    1       27.105 -21.767   8.231  0.00  0.00    +0.019 C 
ATOM      6  C   LIG    1       25.677 -21.241   8.431  0.00  0.00    +0.055 C 
ATOM      7  O   LIG    1       27.971 -20.200   5.011  0.00  0.00    -0.292 OA
ATOM      8  C   LIG    1       25.125 -20.825   7.117  0.00  0.00    +0.027 C 
ATOM      9  N   LIG    1       23.793 -20.719   6.835  0.00  0.00    -0.361 NA
ATOM     10  H   LIG    1       23.037 -20.931   7.474  0.00  0.00    +0.165 HD
ATOM     11  C   LIG    1       23.635 -20.259   5.549  0.00  0.00    +0.017 C 
ATOM     12  C   LIG    1       22.274 -20.017   5.001  0.00  0.00    +0.063 C 
ENDROOT
BRANCH   1  14
ATOM     13  C   LIG    1       25.428 -18.126   3.525  0.00  0.00    +0.009 C 
ATOM     14  C   LIG    1       25.202 -19.629   3.595  0.00  0.00    +0.034 C 
ENDBRANCH   1  14
BRANCH   4  15
ATOM     15  C   LIG    1       28.474 -19.574   7.965  0.00  0.00    +0.096 C 
BRANCH  15  16
ATOM     16  N   LIG    1       29.638 -19.697   8.867  0.00  0.00    -0.297 NA
ATOM     17  C   LIG    1       30.859 -20.212   8.204  0.00  0.00    +0.112 C 
ATOM     18  C   LIG    1       31.532 -19.213   7.248  0.00  0.00    +0.175 C 
ATOM     19  O   LIG    1       31.857 -17.992   7.924  0.00  0.00    -0.377 OA
ATOM     20  C   LIG    1       30.683 -17.405   8.498  0.00  0.00    +0.175 C 
ATOM     21  C   LIG    1       29.981 -18.380   9.465  0.00  0.00    +0.112 C 
ENDBRANCH  15  16
ENDBRANCH   4  15
TORSDOF 3
ENDMDL
MODEL 3
REMARK VINA RESULT:      -7.5      3.834      6.105
REMARK  Name = *****
REMARK                            x       y       z     vdW  Elec       q    Type
REMARK                         _______ _______ _______ _____ _____    ______ ____
ROOT
ATOM      1  C   LIG    1       24.546 -20.364   4.802  0.00  0.00    -0.017 C 
ATOM      2  C   LIG    1       25.092 -21.231   5.801  0.00  0.00    +0.042 C 
ATOM      3  C   LIG    1       24.495 -22.300   6.600  0.00  0.00    +0.169 C 
ATOM      4  C   LIG    1       25.438 -23.089   7.525  0.00  0.00    +0.075 C 
ATOM      5  C   LIG    1       26.674 -22.272   7.967  0.00  0.00    +0.019 C 
ATOM      6  C   LIG    1       27.417 -21.573   6.821  0.00  0.00    +0.055 C 
ATOM      7  O   LIG    1       23.313 -22.615   6.498  0.00  0.00    -0.292 OA
ATOM      8  C   LIG    1       26.428 -20.912   5.933  0.00  0.00    +0.027 C 
ATOM      9  N   LIG    1       26.713 -19.874   5.093  0.00  0.00    -0.361 NA
ATOM     10  H   LIG    1       27.615 -19.425   4.996  0.00  0.00    +0.165 HD
ATOM     11  C   LIG    1       25.586 -19.542   4.380  0.00  0.00    +0.017 C 
ATOM     12  C   LIG    1       25.634 -18.461   3.360  0.00  0.00    +0.063 C 
ENDROOT
BRANCH   1  14
ATOM     13  C   LIG    1       22.338 -19.162   4.825  0.00  0.00    +0.009 C 
ATOM     14  C   LIG    1       23.133 -20.349   4.300  0.00  0.00    +0.034 C 
ENDBRANCH   1  14
BRANCH   4  15
ATOM     15  C   LIG    1       25.767 -24.418   6.813  0.00  0.00    +0.096 C 
BRANCH  15  16
ATOM     16  N   LIG    1       24.728 -24.921   5.890  0.00  0.00    -0.297 NA
ATOM     17  C   LIG    1       25.257 -25.382   4.584  0.00  0.00    +0.112 C 
ATOM     18  C   LIG    1       26.038 -26.705   4.646  0.00  0.00    +0.175 C 
ATOM     19  O   LIG    1       25.237 -27.750   5.212  0.00  0.00    -0.377 OA
ATOM     20  C   LIG    1       24.785 -27.387   6.522  0.00  0.00    +0.175 C 
ATOM     21  C   LIG    1       23.995 -26.063   6.498  0.00  0.00    +0.112 C 
ENDBRANCH  15  16
ENDBRANCH   4  15
TORSDOF 3
ENDMDL
MODEL 4
REMARK VINA RESULT:      -7.3      2.936      5.937
REMARK  Name = *****
REMARK                            x       y       z     vdW  Elec       q    Type
REMARK                         _______ _______ _______ _____ _____    ______ ____
ROOT
ATOM      1  C   LIG    1       28.315 -19.728   6.541  0.00  0.00    -0.017 C 
ATOM      2  C   LIG    1       26.982 -20.241   6.626  0.00  0.00    +0.042 C 
ATOM      3  C   LIG    1       25.962 -20.484   5.608  0.00  0.00    +0.169 C 
ATOM      4  C   LIG    1       24.654 -21.145   6.075  0.00  0.00    +0.075 C 
ATOM      5  C   LIG    1       24.335 -20.870   7.563  0.00  0.00    +0.019 C 
ATOM      6  C   LIG    1       25.506 -21.129   8.522  0.00  0.00    +0.055 C 
ATOM      7  O   LIG    1       26.150 -20.246   4.418  0.00  0.00    -0.292 OA
ATOM      8  C   LIG    1       26.741 -20.534   7.953  0.00  0.00    +0.027 C 
ATOM      9  N   LIG    1       27.843 -20.191   8.682  0.00  0.00    -0.361 NA
ATOM     10  H   LIG    1       27.937 -20.282   9.686  0.00  0.00    +0.165 HD
ATOM     11  C   LIG    1       28.820 -19.721   7.837  0.00  0.00    +0.017 C 
ATOM     12  C   LIG    1       30.145 -19.314   8.375  0.00  0.00    +0.063 C 
ENDROOT
BRANCH   1  14
ATOM     13  C   LIG    1       28.874 -17.803   5.023  0.00  0.00    +0.009 C 
ATOM     14  C   LIG    1       29.034 -19.291   5.299  0.00  0.00    +0.034 C 
ENDBRANCH   1  14
BRANCH   4  15
ATOM     15  C   LIG    1       24.741 -22.640   5.703  0.00  0.00    +0.096 C 
BRANCH  15  16
ATOM     16  N   LIG    1       24.558 -23.587   6.822  0.00  0.00    -0.297 NA
ATOM     17  C   LIG    1       23.534 -24.629   6.566  0.00  0.00    +0.112 C 
ATOM     18  C   LIG    1       23.959 -25.700   5.548  0.00  0.00    +0.175 C 
ATOM     19  O   LIG    1       25.174 -26.341   5.952  0.00  0.00    -0.377 OA
ATOM     20  C   LIG    1       26.223 -25.378   6.115  0.00  0.00    +0.175 C 
ATOM     21  C   LIG    1       25.832 -24.287   7.131  0.00  0.00    +0.112 C 
ENDBRANCH  15  16
ENDBRANCH   4  15
TORSDOF 3
ENDMDL
MODEL 5
REMARK VINA RESULT:      -6.9      3.195      4.426
REMARK  Name = *****
REMARK                            x       y       z     vdW  Elec       q    Type
REMARK                         _______ _______ _______ _____ _____    ______ ____
ROOT
ATOM      1  C   LIG    1       25.541 -24.578   6.458  0.00  0.00    -0.017 C 
ATOM      2  C   LIG    1       25.358 -23.187   6.735  0.00  0.00    +0.042 C 
ATOM      3  C   LIG    1       25.594 -22.391   7.938  0.00  0.00    +0.169 C 
ATOM      4  C   LIG    1       25.364 -20.873   7.827  0.00  0.00    +0.075 C 
ATOM      5  C   LIG    1       24.337 -20.496   6.734  0.00  0.00    +0.019 C 
ATOM      6  C   LIG    1       24.586 -21.159   5.372  0.00  0.00    +0.055 C 
ATOM      7  O   LIG    1       26.026 -22.882   8.977  0.00  0.00    -0.292 OA
ATOM      8  C   LIG    1       24.885 -22.599   5.580  0.00  0.00    +0.027 C 
ATOM      9  N   LIG    1       24.736 -23.566   4.628  0.00  0.00    -0.361 NA
ATOM     10  H   LIG    1       24.389 -23.420   3.688  0.00  0.00    +0.165 HD
ATOM     11  C   LIG    1       25.152 -24.774   5.136  0.00  0.00    +0.017 C 
ATOM     12  C   LIG    1       25.132 -25.993   4.286  0.00  0.00    +0.063 C 
ENDROOT
BRANCH   1  14
ATOM     13  C   LIG    1       25.762 -27.039   6.927  0.00  0.00    +0.009 C 
ATOM     14  C   LIG    1       26.058 -25.623   7.401  0.00  0.00    +0.034 C 
ENDBRANCH   1  14
BRANCH   4  15
ATOM     15  C   LIG    1       26.748 -20.214   7.662  0.00  0.00    +0.096 C 
BRANCH  15  16
ATOM     16  N   LIG    1       27.674 -20.896   6.734  0.00  0.00    -0.297 NA
ATOM     17  C   LIG    1       28.132 -20.047   5.609  0.00  0.00    +0.112 C 
ATOM     18  C   LIG    1       29.128 -18.946   6.009  0.00  0.00    +0.175 C 
ATOM     19  O   LIG    1       30.275 -19.501   6.662  0.00  0.00    -0.377 OA
ATOM     20  C   LIG    1       29.885 -20.252   7.818  0.00  0.00    +0.175 C 
ATOM     21  C   LIG    1       28.886 -21.368   7.454  0.00  0.00    +0.112 C 
ENDBRANCH  15  16
ENDBRANCH   4  15
TORSDOF 3
ENDMDL
MODEL 6
REMARK VINA RESULT:      -6.6      3.430      5.774
REMARK  Name = *****
REMARK                            x       y       z     vdW  Elec       q    Type
REMARK                         _______ _______ _______ _____ _____    ______ ____
ROOT
ATOM      1  C   LIG    1       26.238 -20.062   5.041  0.00  0.00    -0.017 C 
ATOM      2  C   LIG    1       25.429 -20.827   5.940  0.00  0.00    +0.042 C 
ATOM      3  C   LIG    1       24.112 -21.441   5.786  0.00  0.00    +0.169 C 
ATOM      4  C   LIG    1       23.592 -22.283   6.965  0.00  0.00    +0.075 C 
ATOM      5  C   LIG    1       24.186 -21.847   8.326  0.00  0.00    +0.019 C 
ATOM      6  C   LIG    1       25.713 -21.694   8.334  0.00  0.00    +0.055 C 
ATOM      7  O   LIG    1       23.466 -21.362   4.745  0.00  0.00    -0.292 OA
ATOM      8  C   LIG    1       26.133 -20.948   7.120  0.00  0.00    +0.027 C 
ATOM      9  N   LIG    1       27.309 -20.267   6.998  0.00  0.00    -0.361 NA
ATOM     10  H   LIG    1       28.014 -20.174   7.719  0.00  0.00    +0.165 HD
ATOM     11  C   LIG    1       27.402 -19.741   5.732  0.00  0.00    +0.017 C 
ATOM     12  C   LIG    1       28.612 -18.980   5.322  0.00  0.00    +0.063 C 
ENDROOT
BRANCH   1  14
ATOM     13  C   LIG    1       25.101 -18.397   3.538  0.00  0.00    +0.009 C 
ATOM     14  C   LIG    1       25.904 -19.687   3.627  0.00  0.00    +0.034 C 
ENDBRANCH   1  14
BRANCH   4  15
ATOM     15  C   LIG    1       23.829 -23.764   6.607  0.00  0.00    +0.096 C 
BRANCH  15  16
ATOM     16  N   LIG    1       25.066 -24.048   5.850  0.00  0.00    -0.297 NA
ATOM     17  C   LIG    1       26.124 -24.707   6.653  0.00  0.00    +0.112 C 
ATOM     18  C   LIG    1       25.835 -26.177   6.998  0.00  0.00    +0.175 C 
ATOM     19  O   LIG    1       25.609 -26.950   5.813  0.00  0.00    -0.377 OA
ATOM     20  C   LIG    1       24.525 -26.404   5.053  0.00  0.00    +0.175 C 
ATOM     21  C   LIG    1       24.781 -24.928   4.687  0.00  0.00    +0.112 C 
ENDBRANCH  15  16
ENDBRANCH   4  15
TORSDOF 3
ENDMDL
MODEL 7
REMARK VINA RESULT:      -6.4      2.258      6.206
REMARK  Name = *****
REMARK                            x       y       z     vdW  Elec       q    Type
REMARK                         _______ _______ _______ _____ _____    ______ ____
ROOT
ATOM      1  C   LIG    1       28.901 -20.577   7.017  0.00  0.00    -0.017 C 
ATOM      2  C   LIG    1       27.480 -20.733   6.947  0.00  0.00    +0.042 C 
ATOM      3  C   LIG    1       26.485 -20.212   6.012  0.00  0.00    +0.169 C 
ATOM      4  C   LIG    1       25.032 -20.681   6.206  0.00  0.00    +0.075 C 
ATOM      5  C   LIG    1       24.715 -21.077   7.667  0.00  0.00    +0.019 C 
ATOM      6  C   LIG    1       25.736 -22.031   8.303  0.00  0.00    +0.055 C 
ATOM      7  O   LIG    1       26.786 -19.491   5.065  0.00  0.00    -0.292 OA
ATOM      8  C   LIG    1       27.107 -21.552   7.993  0.00  0.00    +0.027 C 
ATOM      9  N   LIG    1       28.221 -21.872   8.715  0.00  0.00    -0.361 NA
ATOM     10  H   LIG    1       28.238 -22.447   9.548  0.00  0.00    +0.165 HD
ATOM     11  C   LIG    1       29.325 -21.307   8.123  0.00  0.00    +0.017 C 
ATOM     12  C   LIG    1       30.680 -21.534   8.691  0.00  0.00    +0.063 C 
ENDROOT
BRANCH   1  14
ATOM     13  C   LIG    1       29.986 -18.358   6.547  0.00  0.00    +0.009 C 
ATOM     14  C   LIG    1       29.766 -19.789   6.079  0.00  0.00    +0.034 C 
ENDBRANCH   1  14
BRANCH   4  15
ATOM     15  C   LIG    1       24.769 -21.791   5.169  0.00  0.00    +0.096 C 
BRANCH  15  16
ATOM     16  N   LIG    1       23.594 -21.584   4.296  0.00  0.00    -0.297 NA
ATOM     17  C   LIG    1       22.425 -20.995   4.993  0.00  0.00    +0.112 C 
ATOM     18  C   LIG    1       22.587 -19.510   5.359  0.00  0.00    +0.175 C 
ATOM     19  O   LIG    1       22.876 -18.722   4.199  0.00  0.00    -0.377 OA
ATOM     20  C   LIG    1       24.060 -19.196   3.548  0.00  0.00    +0.175 C 
ATOM     21  C   LIG    1       23.934 -20.684   3.163  0.00  0.00    +0.112 C 
ENDBRANCH  15  16
ENDBRANCH   4  15
TORSDOF 3
ENDMDL
MODEL 8
REMARK VINA RESULT:      -6.3      1.928      6.699
REMARK  Name = *****
REMARK                            x       y       z     vdW  Elec       q    Type
REMARK                         _______ _______ _______ _____ _____    ______ ____
ROOT
ATOM      1  C   LIG    1       30.356 -19.927   8.315  0.00  0.00    -0.017 C 
ATOM      2  C   LIG    1       29.277 -20.077   7.387  0.00  0.00    +0.042 C 
ATOM      3  C   LIG    1       28.253 -21.109   7.239  0.00  0.00    +0.169 C 
ATOM      4  C   LIG    1       27.180 -20.877   6.159  0.00  0.00    +0.075 C 
ATOM      5  C   LIG    1       27.675 -19.982   4.999  0.00  0.00    +0.019 C 
ATOM      6  C   LIG    1       28.357 -18.682   5.445  0.00  0.00    +0.055 C 
ATOM      7  O   LIG    1       28.191 -22.086   7.979  0.00  0.00    -0.292 OA
ATOM      8  C   LIG    1       29.308 -18.985   6.544  0.00  0.00    +0.027 C 
ATOM      9  N   LIG    1       30.370 -18.198   6.889  0.00  0.00    -0.361 NA
ATOM     10  H   LIG    1       30.642 -17.340   6.427  0.00  0.00    +0.165 HD
ATOM     11  C   LIG    1       31.006 -18.743   7.979  0.00  0.00    +0.017 C 
ATOM     12  C   LIG    1       32.178 -18.058   8.584  0.00  0.00    +0.063 C 
ENDROOT
BRANCH   1  14
ATOM     13  C   LIG    1       31.486 -22.078   8.962  0.00  0.00    +0.009 C 
ATOM     14  C   LIG    1       30.713 -20.856   9.437  0.00  0.00    +0.034 C 
ENDBRANCH   1  14
BRANCH   4  15
ATOM     15  C   LIG    1       25.917 -20.359   6.876  0.00  0.00    +0.096 C 
BRANCH  15  16
ATOM     16  N   LIG    1       24.811 -21.331   7.003  0.00  0.00    -0.297 NA
ATOM     17  C   LIG    1       23.472 -20.706   7.116  0.00  0.00    +0.112 C 
ATOM     18  C   LIG    1       22.952 -20.078   5.812  0.00  0.00    +0.175 C 
ATOM     19  O   LIG    1       22.922 -21.041   4.752  0.00  0.00    -0.377 OA
ATOM     20  C   LIG    1       24.224 -21.601   4.541  0.00  0.00    +0.175 C 
ATOM     21  C   LIG    1       24.776 -22.243   5.829  0.00  0.00    +0.112 C 
ENDBRANCH  15  16
ENDBRANCH   4  15
TORSDOF 3
ENDMDL
MODEL 9
REMARK VINA RESULT:      -6.2      2.746      6.216
REMARK  Name = *****
REMARK                            x       y       z     vdW  Elec       q    Type
REMARK                         _______ _______ _______ _____ _____    ______ ____
ROOT
ATOM      1  C   LIG    1       29.190 -19.221   6.423  0.00  0.00    -0.017 C 
ATOM      2  C   LIG    1       27.979 -19.906   6.757  0.00  0.00    +0.042 C 
ATOM      3  C   LIG    1       26.772 -20.190   5.983  0.00  0.00    +0.169 C 
ATOM      4  C   LIG    1       25.693 -21.051   6.663  0.00  0.00    +0.075 C 
ATOM      5  C   LIG    1       25.721 -20.948   8.206  0.00  0.00    +0.019 C 
ATOM      6  C   LIG    1       27.111 -21.135   8.830  0.00  0.00    +0.055 C 
ATOM      7  O   LIG    1       26.637 -19.828   4.817  0.00  0.00    -0.292 OA
ATOM      8  C   LIG    1       28.101 -20.340   8.061  0.00  0.00    +0.027 C 
ATOM      9  N   LIG    1       29.306 -19.923   8.548  0.00  0.00    -0.361 NA
ATOM     10  H   LIG    1       29.651 -20.086   9.485  0.00  0.00    +0.165 HD
ATOM     11  C   LIG    1       29.993 -19.260   7.558  0.00  0.00    +0.017 C 
ATOM     12  C   LIG    1       31.359 -18.734   7.816  0.00  0.00    +0.063 C 
ENDROOT
BRANCH   1  14
ATOM     13  C   LIG    1       28.683 -17.365   4.804  0.00  0.00    +0.009 C 
ATOM     14  C   LIG    1       29.533 -18.590   5.106  0.00  0.00    +0.034 C 
ENDBRANCH   1  14
BRANCH   4  15
ATOM     15  C   LIG    1       25.841 -22.485   6.113  0.00  0.00    +0.096 C 
BRANCH  15  16
ATOM     16  N   LIG    1       24.763 -22.936   5.209  0.00  0.00    -0.297 NA
ATOM     17  C   LIG    1       24.655 -24.410   5.091  0.00  0.00    +0.112 C 
ATOM     18  C   LIG    1       24.089 -25.107   6.338  0.00  0.00    +0.175 C 
ATOM     19  O   LIG    1       22.803 -24.580   6.684  0.00  0.00    -0.377 OA
ATOM     20  C   LIG    1       22.880 -23.167   6.907  0.00  0.00    +0.175 C 
ATOM     21  C   LIG    1       23.443 -22.433   5.674  0.00  0.00    +0.112 C 
ENDBRANCH  15  16
ENDBRANCH   4  15
TORSDOF 3
ENDMDL
