MODEL 1
REMARK VINA RESULT:      -4.5      0.000      0.000
REMARK  Name = *****
REMARK                            x       y       z     vdW  Elec       q    Type
REMARK                         _______ _______ _______ _____ _____    ______ ____
ROOT
ATOM      1  C   LIG    1       25.099 -17.838   3.523  0.00  0.00    +0.330 A 
ATOM      2  O   LIG    1       26.460 -17.754   3.261  0.00  0.00    -0.278 OA
ATOM      3  N   LIG    1       26.843 -16.409   3.167  0.00  0.00    +0.233 NA
ATOM      4  N   LIG    1       25.738 -15.740   3.404  0.00  0.00    +0.064 N 
ATOM      5  C   LIG    1       24.635 -16.539   3.583  0.00  0.00    +0.447 A 
ENDROOT
BRANCH   4   6
ATOM      6  N   LIG    1       25.665 -14.287   3.367  0.00  0.00    -0.106 N 
ATOM      7  C   LIG    1       25.474 -13.688   4.702  0.00  0.00    +0.201 C 
ATOM      8  C   LIG    1       26.778 -13.684   5.505  0.00  0.00    +0.184 C 
ATOM      9  O   LIG    1       27.794 -12.979   4.794  0.00  0.00    -0.376 OA
ATOM     10  C   LIG    1       28.063 -13.565   3.519  0.00  0.00    +0.184 C 
ATOM     11  C   LIG    1       26.788 -13.627   2.673  0.00  0.00    +0.201 C 
ENDBRANCH   4   6
BRANCH   1  13
ATOM     12  C   LIG    1       24.930 -20.002   4.210  0.00  0.00    +0.391 C 
ATOM     13  N   LIG    1       24.401 -18.993   3.611  0.00  0.00    -0.135 NA
BRANCH  12  14
ATOM     14  O   LIG    1       24.233 -21.146   4.288  0.00  0.00    -0.466 OA
ATOM     15  H   LIG    1       23.320 -21.091   3.989  0.00  0.00    +0.297 HD
ENDBRANCH  12  14
BRANCH  12  16
ATOM     16  O   LIG    1       26.143 -19.989   4.810  0.00  0.00    -0.450 OA
BRANCH  16  18
ATOM     17  C   LIG    1       27.839 -20.261   6.477  0.00  0.00    +0.048 C 
ATOM     18  C   LIG    1       26.371 -20.458   6.153  0.00  0.00    +0.230 C 
ENDBRANCH  16  18
ENDBRANCH  12  16
ENDBRANCH   1  13
TORSDOF 5
ENDMDL
MODEL 2
REMARK VINA RESULT:      -4.3      1.214      1.614
REMARK  Name = *****
REMARK                            x       y       z     vdW  Elec       q    Type
REMARK                         _______ _______ _______ _____ _____    ______ ____
ROOT
ATOM      1  C   LIG    1       24.750 -17.982   3.453  0.00  0.00    +0.330 A 
ATOM      2  O   LIG    1       26.021 -17.659   2.995  0.00  0.00    -0.278 OA
ATOM      3  N   LIG    1       26.273 -16.298   3.218  0.00  0.00    +0.233 NA
ATOM      4  N   LIG    1       25.189 -15.861   3.820  0.00  0.00    +0.064 N 
ATOM      5  C   LIG    1       24.210 -16.815   3.953  0.00  0.00    +0.447 A 
ENDROOT
BRANCH   4   6
ATOM      6  N   LIG    1       24.999 -14.471   4.204  0.00  0.00    -0.106 N 
ATOM      7  C   LIG    1       26.272 -13.741   4.360  0.00  0.00    +0.201 C 
ATOM      8  C   LIG    1       26.874 -13.369   3.001  0.00  0.00    +0.184 C 
ATOM      9  O   LIG    1       25.950 -12.585   2.249  0.00  0.00    -0.376 OA
ATOM     10  C   LIG    1       24.723 -13.279   2.013  0.00  0.00    +0.184 C 
ATOM     11  C   LIG    1       24.081 -13.707   3.336  0.00  0.00    +0.201 C 
ENDBRANCH   4   6
BRANCH   1  13
ATOM     12  C   LIG    1       24.596 -20.170   4.067  0.00  0.00    +0.391 C 
ATOM     13  N   LIG    1       24.175 -19.201   3.332  0.00  0.00    -0.135 NA
BRANCH  12  14
ATOM     14  O   LIG    1       24.023 -21.376   3.937  0.00  0.00    -0.466 OA
ATOM     15  H   LIG    1       24.231 -21.843   3.121  0.00  0.00    +0.297 HD
ENDBRANCH  12  14
BRANCH  12  16
ATOM     16  O   LIG    1       25.566 -20.056   5.004  0.00  0.00    -0.450 OA
BRANCH  16  18
ATOM     17  C   LIG    1       26.850 -20.482   6.979  0.00  0.00    +0.048 C 
ATOM     18  C   LIG    1       25.548 -20.768   6.257  0.00  0.00    +0.230 C 
ENDBRANCH  16  18
ENDBRANCH  12  16
ENDBRANCH   1  13
TORSDOF 5
ENDMDL
MODEL 3
REMARK VINA RESULT:      -4.1      1.454      2.091
REMARK  Name = *****
REMARK                            x       y       z     vdW  Elec       q    Type
REMARK                         _______ _______ _______ _____ _____    ______ ____
ROOT
ATOM      1  C   LIG    1       25.969 -18.453   3.507  0.00  0.00    +0.330 A 
ATOM      2  O   LIG    1       27.205 -18.079   4.020  0.00  0.00    -0.278 OA
ATOM      3  N   LIG    1       27.339 -16.684   3.962  0.00  0.00    +0.233 NA
ATOM      4  N   LIG    1       26.197 -16.269   3.463  0.00  0.00    +0.064 N 
ATOM      5  C   LIG    1       25.339 -17.287   3.123  0.00  0.00    +0.447 A 
ENDROOT
BRANCH   4   6
ATOM      6  N   LIG    1       25.912 -14.869   3.189  0.00  0.00    -0.106 N 
ATOM      7  C   LIG    1       25.404 -14.145   4.372  0.00  0.00    +0.201 C 
ATOM      8  C   LIG    1       26.534 -13.810   5.350  0.00  0.00    +0.184 C 
ATOM      9  O   LIG    1       27.539 -13.035   4.698  0.00  0.00    -0.376 OA
ATOM     10  C   LIG    1       28.110 -13.724   3.584  0.00  0.00    +0.184 C 
ATOM     11  C   LIG    1       27.025 -14.117   2.577  0.00  0.00    +0.201 C 
ENDBRANCH   4   6
BRANCH   1  13
ATOM     12  C   LIG    1       24.591 -20.166   4.100  0.00  0.00    +0.391 C 
ATOM     13  N   LIG    1       25.551 -19.731   3.361  0.00  0.00    -0.135 NA
BRANCH  12  14
ATOM     14  O   LIG    1       24.186 -21.436   3.953  0.00  0.00    -0.466 OA
ATOM     15  H   LIG    1       23.549 -21.584   3.247  0.00  0.00    +0.297 HD
ENDBRANCH  12  14
BRANCH  12  16
ATOM     16  O   LIG    1       23.921 -19.417   5.008  0.00  0.00    -0.450 OA
BRANCH  16  18
ATOM     17  C   LIG    1       21.949 -18.198   4.414  0.00  0.00    +0.048 C 
ATOM     18  C   LIG    1       22.486 -19.418   5.136  0.00  0.00    +0.230 C 
ENDBRANCH  16  18
ENDBRANCH  12  16
ENDBRANCH   1  13
TORSDOF 5
ENDMDL
MODEL 4
REMARK VINA RESULT:      -4.1      2.073      6.229
REMARK  Name = *****
REMARK                            x       y       z     vdW  Elec       q    Type
REMARK                         _______ _______ _______ _____ _____    ______ ____
ROOT
ATOM      1  C   LIG    1       26.579 -17.660   3.643  0.00  0.00    +0.330 A 
ATOM      2  O   LIG    1       27.133 -18.600   4.503  0.00  0.00    -0.278 OA
ATOM      3  N   LIG    1       26.246 -19.673   4.667  0.00  0.00    +0.233 NA
ATOM      4  N   LIG    1       25.227 -19.373   3.894  0.00  0.00    +0.064 N 
ATOM      5  C   LIG    1       25.341 -18.149   3.280  0.00  0.00    +0.447 A 
ENDROOT
BRANCH   4   6
ATOM      6  N   LIG    1       24.038 -20.204   3.788  0.00  0.00    -0.106 N 
ATOM      7  C   LIG    1       24.240 -21.565   4.325  0.00  0.00    +0.201 C 
ATOM      8  C   LIG    1       24.210 -21.572   5.856  0.00  0.00    +0.184 C 
ATOM      9  O   LIG    1       22.973 -21.039   6.328  0.00  0.00    -0.376 OA
ATOM     10  C   LIG    1       22.764 -19.695   5.889  0.00  0.00    +0.184 C 
ATOM     11  C   LIG    1       22.813 -19.612   4.360  0.00  0.00    +0.201 C 
ENDBRANCH   4   6
BRANCH   1  13
ATOM     12  C   LIG    1       26.433 -15.409   3.336  0.00  0.00    +0.391 C 
ATOM     13  N   LIG    1       27.151 -16.477   3.324  0.00  0.00    -0.135 NA
BRANCH  12  14
ATOM     14  O   LIG    1       27.007 -14.240   3.014  0.00  0.00    -0.466 OA
ATOM     15  H   LIG    1       27.085 -14.068   2.071  0.00  0.00    +0.297 HD
ENDBRANCH  12  14
BRANCH  12  16
ATOM     16  O   LIG    1       25.127 -15.367   3.689  0.00  0.00    -0.450 OA
BRANCH  16  18
ATOM     17  C   LIG    1       23.851 -13.385   3.269  0.00  0.00    +0.048 C 
ATOM     18  C   LIG    1       24.514 -14.234   4.336  0.00  0.00    +0.230 C 
ENDBRANCH  16  18
ENDBRANCH  12  16
ENDBRANCH   1  13
TORSDOF 5
ENDMDL
MODEL 5
REMARK VINA RESULT:      -4.0      1.839      2.510
REMARK  Name = *****
REMARK                            x       y       z     vdW  Elec       q    Type
REMARK                         _______ _______ _______ _____ _____    ______ ____
ROOT
ATOM      1  C   LIG    1       25.345 -18.014   3.403  0.00  0.00    +0.330 A 
ATOM      2  O   LIG    1       24.171 -17.327   3.685  0.00  0.00    -0.278 OA
ATOM      3  N   LIG    1       24.437 -15.954   3.782  0.00  0.00    +0.233 NA
ATOM      4  N   LIG    1       25.722 -15.854   3.528  0.00  0.00    +0.064 N 
ATOM      5  C   LIG    1       26.343 -17.064   3.335  0.00  0.00    +0.447 A 
ENDROOT
BRANCH   4   6
ATOM      6  N   LIG    1       26.442 -14.590   3.562  0.00  0.00    -0.106 N 
ATOM      7  C   LIG    1       26.389 -13.866   2.277  0.00  0.00    +0.201 C 
ATOM      8  C   LIG    1       25.033 -13.182   2.075  0.00  0.00    +0.184 C 
ATOM      9  O   LIG    1       24.766 -12.286   3.153  0.00  0.00    -0.376 OA
ATOM     10  C   LIG    1       24.739 -12.956   4.415  0.00  0.00    +0.184 C 
ATOM     11  C   LIG    1       26.061 -13.688   4.667  0.00  0.00    +0.201 C 
ENDBRANCH   4   6
BRANCH   1  13
ATOM     12  C   LIG    1       24.782 -20.099   4.125  0.00  0.00    +0.391 C 
ATOM     13  N   LIG    1       25.447 -19.360   3.307  0.00  0.00    -0.135 NA
BRANCH  12  14
ATOM     14  O   LIG    1       24.892 -21.432   4.027  0.00  0.00    -0.466 OA
ATOM     15  H   LIG    1       25.118 -21.762   3.151  0.00  0.00    +0.297 HD
ENDBRANCH  12  14
BRANCH  12  16
ATOM     16  O   LIG    1       23.937 -19.627   5.073  0.00  0.00    -0.450 OA
BRANCH  16  18
ATOM     17  C   LIG    1       23.354 -20.826   7.061  0.00  0.00    +0.048 C 
ATOM     18  C   LIG    1       22.895 -20.420   5.674  0.00  0.00    +0.230 C 
ENDBRANCH  16  18
ENDBRANCH  12  16
ENDBRANCH   1  13
TORSDOF 5
ENDMDL
MODEL 6
REMARK VINA RESULT:      -3.9      2.119      6.002
REMARK  Name = *****
REMARK                            x       y       z     vdW  Elec       q    Type
REMARK                         _______ _______ _______ _____ _____    ______ ____
ROOT
ATOM      1  C   LIG    1       26.353 -17.527   3.469  0.00  0.00    +0.330 A 
ATOM      2  O   LIG    1       27.227 -18.189   4.322  0.00  0.00    -0.278 OA
ATOM      3  N   LIG    1       26.679 -19.425   4.695  0.00  0.00    +0.233 NA
ATOM      4  N   LIG    1       25.539 -19.484   4.045  0.00  0.00    +0.064 N 
ATOM      5  C   LIG    1       25.257 -18.351   3.321  0.00  0.00    +0.447 A 
ENDROOT
BRANCH   4   6
ATOM      6  N   LIG    1       24.608 -20.595   4.173  0.00  0.00    -0.106 N 
ATOM      7  C   LIG    1       24.903 -21.458   5.333  0.00  0.00    +0.201 C 
ATOM      8  C   LIG    1       24.440 -20.813   6.643  0.00  0.00    +0.184 C 
ATOM      9  O   LIG    1       23.043 -20.529   6.587  0.00  0.00    -0.376 OA
ATOM     10  C   LIG    1       22.718 -19.639   5.517  0.00  0.00    +0.184 C 
ATOM     11  C   LIG    1       23.183 -20.214   4.176  0.00  0.00    +0.201 C 
ENDBRANCH   4   6
BRANCH   1  13
ATOM     12  C   LIG    1       25.804 -15.319   3.383  0.00  0.00    +0.391 C 
ATOM     13  N   LIG    1       26.553 -16.283   2.976  0.00  0.00    -0.135 NA
BRANCH  12  14
ATOM     14  O   LIG    1       26.006 -14.089   2.886  0.00  0.00    -0.466 OA
ATOM     15  H   LIG    1       25.336 -13.782   2.267  0.00  0.00    +0.297 HD
ENDBRANCH  12  14
BRANCH  12  16
ATOM     16  O   LIG    1       24.832 -15.444   4.318  0.00  0.00    -0.450 OA
BRANCH  16  18
ATOM     17  C   LIG    1       22.525 -15.739   4.885  0.00  0.00    +0.048 C 
ATOM     18  C   LIG    1       23.531 -14.835   4.199  0.00  0.00    +0.230 C 
ENDBRANCH  16  18
ENDBRANCH  12  16
ENDBRANCH   1  13
TORSDOF 5
ENDMDL
MODEL 7
REMARK VINA RESULT:      -3.9      1.703      2.432
REMARK  Name = *****
REMARK                            x       y       z     vdW  Elec       q    Type
REMARK                         _______ _______ _______ _____ _____    ______ ____
ROOT
ATOM      1  C   LIG    1       26.986 -18.207   4.196  0.00  0.00    +0.330 A 
ATOM      2  O   LIG    1       25.835 -18.071   3.431  0.00  0.00    -0.278 OA
ATOM      3  N   LIG    1       25.743 -16.762   2.939  0.00  0.00    +0.233 NA
ATOM      4  N   LIG    1       26.831 -16.172   3.381  0.00  0.00    +0.064 N 
ATOM      5  C   LIG    1       27.605 -16.973   4.185  0.00  0.00    +0.447 A 
ENDROOT
BRANCH   4   6
ATOM      6  N   LIG    1       27.129 -14.770   3.138  0.00  0.00    -0.106 N 
ATOM      7  C   LIG    1       25.964 -14.015   2.634  0.00  0.00    +0.201 C 
ATOM      8  C   LIG    1       24.975 -13.696   3.759  0.00  0.00    +0.184 C 
ATOM      9  O   LIG    1       25.625 -12.958   4.793  0.00  0.00    -0.376 OA
ATOM     10  C   LIG    1       26.721 -13.679   5.361  0.00  0.00    +0.184 C 
ATOM     11  C   LIG    1       27.737 -14.057   4.279  0.00  0.00    +0.201 C 
ENDBRANCH   4   6
BRANCH   1  13
ATOM     12  C   LIG    1       26.418 -20.116   5.299  0.00  0.00    +0.391 C 
ATOM     13  N   LIG    1       27.339 -19.328   4.865  0.00  0.00    -0.135 NA
BRANCH  12  14
ATOM     14  O   LIG    1       26.777 -21.223   5.966  0.00  0.00    -0.466 OA
ATOM     15  H   LIG    1       26.725 -21.159   6.924  0.00  0.00    +0.297 HD
ENDBRANCH  12  14
BRANCH  12  16
ATOM     16  O   LIG    1       25.092 -19.929   5.100  0.00  0.00    -0.450 OA
BRANCH  16  18
ATOM     17  C   LIG    1       22.732 -20.038   5.483  0.00  0.00    +0.048 C 
ATOM     18  C   LIG    1       24.072 -20.677   5.789  0.00  0.00    +0.230 C 
ENDBRANCH  16  18
ENDBRANCH  12  16
ENDBRANCH   1  13
TORSDOF 5
ENDMDL
MODEL 8
REMARK VINA RESULT:      -3.9      2.137      6.348
REMARK  Name = *****
REMARK                            x       y       z     vdW  Elec       q    Type
REMARK                         _______ _______ _______ _____ _____    ______ ____
ROOT
ATOM      1  C   LIG    1       23.641 -16.736   4.065  0.00  0.00    +0.330 A 
ATOM      2  O   LIG    1       24.859 -17.181   3.565  0.00  0.00    -0.278 OA
ATOM      3  N   LIG    1       24.872 -18.583   3.529  0.00  0.00    +0.233 NA
ATOM      4  N   LIG    1       23.681 -18.930   3.963  0.00  0.00    +0.064 N 
ATOM      5  C   LIG    1       22.902 -17.866   4.348  0.00  0.00    +0.447 A 
ENDROOT
BRANCH   4   6
ATOM      6  N   LIG    1       23.269 -20.315   4.130  0.00  0.00    -0.106 N 
ATOM      7  C   LIG    1       24.404 -21.259   4.088  0.00  0.00    +0.201 C 
ATOM      8  C   LIG    1       25.190 -21.247   5.403  0.00  0.00    +0.184 C 
ATOM      9  O   LIG    1       24.330 -21.565   6.496  0.00  0.00    -0.376 OA
ATOM     10  C   LIG    1       23.251 -20.636   6.619  0.00  0.00    +0.184 C 
ATOM     11  C   LIG    1       22.438 -20.576   5.321  0.00  0.00    +0.201 C 
ENDBRANCH   4   6
BRANCH   1  13
ATOM     12  C   LIG    1       24.210 -14.531   4.050  0.00  0.00    +0.391 C 
ATOM     13  N   LIG    1       23.329 -15.438   4.287  0.00  0.00    -0.135 NA
BRANCH  12  14
ATOM     14  O   LIG    1       23.893 -13.247   4.278  0.00  0.00    -0.466 OA
ATOM     15  H   LIG    1       23.023 -12.978   3.968  0.00  0.00    +0.297 HD
ENDBRANCH  12  14
BRANCH  12  16
ATOM     16  O   LIG    1       25.444 -14.772   3.547  0.00  0.00    -0.450 OA
BRANCH  16  18
ATOM     17  C   LIG    1       27.648 -13.856   3.364  0.00  0.00    +0.048 C 
ATOM     18  C   LIG    1       26.224 -13.783   2.848  0.00  0.00    +0.230 C 
ENDBRANCH  16  18
ENDBRANCH  12  16
ENDBRANCH   1  13
TORSDOF 5
ENDMDL
MODEL 9
REMARK VINA RESULT:      -3.7      1.926      6.066
REMARK  Name = *****
REMARK                            x       y       z     vdW  Elec       q    Type
REMARK                         _______ _______ _______ _____ _____    ______ ____
ROOT
ATOM      1  C   LIG    1       25.910 -17.732   3.331  0.00  0.00    +0.330 A 
ATOM      2  O   LIG    1       27.044 -18.032   4.076  0.00  0.00    -0.278 OA
ATOM      3  N   LIG    1       26.909 -19.302   4.654  0.00  0.00    +0.233 NA
ATOM      4  N   LIG    1       25.745 -19.733   4.223  0.00  0.00    +0.064 N 
ATOM      5  C   LIG    1       25.066 -18.817   3.456  0.00  0.00    +0.447 A 
ENDROOT
BRANCH   4   6
ATOM      6  N   LIG    1       25.177 -21.013   4.617  0.00  0.00    -0.106 N 
ATOM      7  C   LIG    1       25.615 -21.446   5.958  0.00  0.00    +0.201 C 
ATOM      8  C   LIG    1       24.875 -20.684   7.062  0.00  0.00    +0.184 C 
ATOM      9  O   LIG    1       23.466 -20.864   6.927  0.00  0.00    -0.376 OA
ATOM     10  C   LIG    1       22.983 -20.394   5.666  0.00  0.00    +0.184 C 
ATOM     11  C   LIG    1       23.707 -21.098   4.514  0.00  0.00    +0.201 C 
ENDBRANCH   4   6
BRANCH   1  13
ATOM     12  C   LIG    1       26.380 -15.524   3.037  0.00  0.00    +0.391 C 
ATOM     13  N   LIG    1       25.694 -16.558   2.695  0.00  0.00    -0.135 NA
BRANCH  12  14
ATOM     14  O   LIG    1       26.156 -14.362   2.406  0.00  0.00    -0.466 OA
ATOM     15  H   LIG    1       26.914 -13.772   2.351  0.00  0.00    +0.297 HD
ENDBRANCH  12  14
BRANCH  12  16
ATOM     16  O   LIG    1       27.353 -15.526   3.978  0.00  0.00    -0.450 OA
BRANCH  16  18
ATOM     17  C   LIG    1       26.966 -13.637   5.397  0.00  0.00    +0.048 C 
ATOM     18  C   LIG    1       27.967 -14.327   4.490  0.00  0.00    +0.230 C 
ENDBRANCH  16  18
ENDBRANCH  12  16
ENDBRANCH   1  13
TORSDOF 5
ENDMDL
