MODEL 1
REMARK VINA RESULT:      -7.4      0.000      0.000
REMARK  Name = *****
REMARK                            x       y       z     vdW  Elec       q    Type
REMARK                         _______ _______ _______ _____ _____    ______ ____
ROOT
ATOM      1  C   LIG    1       25.581 -22.661   7.526  0.00  0.00    +0.239 C 
ATOM      2  N   LIG    1       25.462 -24.018   7.518  0.00  0.00    -0.300 N 
ATOM      3  H   LIG    1       25.169 -24.364   8.427  0.00  0.00    +0.150 HD
ATOM      4  O   LIG    1       25.432 -22.115   8.629  0.00  0.00    -0.273 OA
ENDROOT
BRANCH   2   5
ATOM      5  CA  LIG    1       25.836 -25.002   6.477  0.00  0.00    +0.191 C 
ATOM      6  C   LIG    1       26.485 -26.333   7.015  0.00  0.00    +0.169 C 
ATOM      7  N   LIG    1       25.530 -27.044   6.192  0.00  0.00    -0.249 N 
ATOM      8  CA  LIG    1       25.126 -28.347   6.363  0.00  0.00    +0.123 C 
ATOM      9  C   LIG    1       25.511 -29.066   7.452  0.00  0.00    -0.021 C 
ATOM     10  C   LIG    1       26.346 -28.482   8.578  0.00  0.00    +0.104 C 
ATOM     11  S   LIG    1       26.182 -26.693   8.772  0.00  0.00    -0.131 S 
ATOM     12  C   LIG    1       24.749 -25.963   5.918  0.00  0.00    +0.244 C 
ATOM     13  O   LIG    1       23.600 -25.860   5.538  0.00  0.00    -0.273 OA
BRANCH   8  14
ATOM     14  C   LIG    1       24.348 -28.873   5.187  0.00  0.00    +0.351 C 
ATOM     15  O   LIG    1       24.784 -28.974   4.051  0.00  0.00    -0.244 OA
BRANCH  14  16
ATOM     16  OXT LIG    1       23.113 -29.314   5.453  0.00  0.00    -0.476 OA
ATOM     17  HXT LIG    1       22.568 -28.832   4.794  0.00  0.00    +0.295 HD
ENDBRANCH  14  16
ENDBRANCH   8  14
BRANCH   9  18
ATOM     18  C   LIG    1       25.141 -30.514   7.731  0.00  0.00    +0.111 C 
BRANCH  18  19
ATOM     19  S   LIG    1       25.298 -30.856   9.511  0.00  0.00    -0.080 S 
BRANCH  19  20
ATOM     20  C   LIG    1       23.650 -30.689   9.997  0.00  0.00    +0.209 A 
ATOM     21  N   LIG    1       23.239 -30.000  11.100  0.00  0.00    -0.223 N 
ATOM     22  C   LIG    1       23.992 -29.245  12.062  0.00  0.00    +0.177 C 
ATOM     23  N   LIG    1       21.898 -30.067  11.195  0.00  0.00    -0.043 NA
ATOM     24  N   LIG    1       21.512 -30.779  10.145  0.00  0.00    -0.022 NA
ATOM     25  N   LIG    1       22.592 -31.174   9.388  0.00  0.00    -0.102 NA
ENDBRANCH  19  20
ENDBRANCH  18  19
ENDBRANCH   9  18
ENDBRANCH   2   5
BRANCH   1  26
ATOM     26  CA  LIG    1       26.002 -21.853   6.271  0.00  0.00    +0.191 C 
BRANCH  26  34
ATOM     27  N   LIG    1       31.131 -18.479   8.281  0.00  0.00    -0.292 N 
ATOM     28  C   LIG    1       31.258 -19.764   8.804  0.00  0.00    +0.302 C 
ATOM     29  O   LIG    1       32.011 -20.043   9.728  0.00  0.00    -0.265 OA
ATOM     30  C   LIG    1       30.391 -20.871   8.149  0.00  0.00    +0.309 C 
ATOM     31  O   LIG    1       30.863 -22.002   8.125  0.00  0.00    -0.265 OA
ATOM     32  N   LIG    1       29.174 -20.464   7.579  0.00  0.00    -0.217 N 
ATOM     33  C   LIG    1       28.247 -21.424   7.197  0.00  0.00    +0.310 C 
ATOM     34  N   LIG    1       27.044 -20.931   6.737  0.00  0.00    -0.284 N 
ATOM     35  H   LIG    1       26.659 -20.139   7.230  0.00  0.00    +0.151 HD
ATOM     36  O   LIG    1       28.440 -22.637   7.202  0.00  0.00    -0.252 OA
ATOM     37  C   LIG    1       28.881 -19.032   7.532  0.00  0.00    +0.137 C 
ATOM     38  C   LIG    1       30.135 -18.208   7.268  0.00  0.00    +0.127 C 
BRANCH  27  40
ATOM     39  C   LIG    1       31.466 -16.571   9.812  0.00  0.00    +0.024 C 
ATOM     40  C   LIG    1       32.045 -17.421   8.693  0.00  0.00    +0.105 C 
ENDBRANCH  27  40
ENDBRANCH  26  34
BRANCH  26  41
ATOM     41  C   LIG    1       24.872 -21.024   5.654  0.00  0.00    -0.018 A 
ATOM     42  C   LIG    1       23.613 -20.882   6.266  0.00  0.00    +0.009 A 
ATOM     43  C   LIG    1       22.626 -20.061   5.719  0.00  0.00    +0.045 A 
ATOM     44  C   LIG    1       22.884 -19.356   4.555  0.00  0.00    +0.117 A 
ATOM     45  C   LIG    1       24.116 -19.471   3.920  0.00  0.00    +0.045 A 
ATOM     46  C   LIG    1       25.106 -20.298   4.470  0.00  0.00    +0.009 A 
BRANCH  44  47
ATOM     47  O   LIG    1       21.896 -18.552   4.074  0.00  0.00    -0.507 OA
ATOM     48  H   LIG    1       21.217 -19.108   3.660  0.00  0.00    +0.292 HD
ENDBRANCH  44  47
ENDBRANCH  26  41
ENDBRANCH   1  26
TORSDOF 11
ENDMDL
MODEL 2
REMARK VINA RESULT:      -7.3      1.809      2.550
REMARK  Name = *****
REMARK                            x       y       z     vdW  Elec       q    Type
REMARK                         _______ _______ _______ _____ _____    ______ ____
ROOT
ATOM      1  C   LIG    1       25.542 -22.666   7.456  0.00  0.00    +0.239 C 
ATOM      2  N   LIG    1       25.427 -24.023   7.459  0.00  0.00    -0.300 N 
ATOM      3  H   LIG    1       25.140 -24.363   8.372  0.00  0.00    +0.150 HD
ATOM      4  O   LIG    1       25.399 -22.112   8.555  0.00  0.00    -0.273 OA
ENDROOT
BRANCH   2   5
ATOM      5  CA  LIG    1       25.796 -25.015   6.423  0.00  0.00    +0.191 C 
ATOM      6  C   LIG    1       26.446 -26.343   6.968  0.00  0.00    +0.169 C 
ATOM      7  N   LIG    1       25.487 -27.058   6.153  0.00  0.00    -0.249 N 
ATOM      8  CA  LIG    1       25.083 -28.359   6.333  0.00  0.00    +0.123 C 
ATOM      9  C   LIG    1       25.471 -29.072   7.426  0.00  0.00    -0.021 C 
ATOM     10  C   LIG    1       26.310 -28.481   8.545  0.00  0.00    +0.104 C 
ATOM     11  S   LIG    1       26.148 -26.691   8.728  0.00  0.00    -0.131 S 
ATOM     12  C   LIG    1       24.706 -25.978   5.874  0.00  0.00    +0.244 C 
ATOM     13  O   LIG    1       23.556 -25.877   5.497  0.00  0.00    -0.273 OA
BRANCH   8  14
ATOM     14  C   LIG    1       24.301 -28.893   5.163  0.00  0.00    +0.351 C 
ATOM     15  O   LIG    1       24.721 -28.969   4.019  0.00  0.00    -0.244 OA
BRANCH  14  16
ATOM     16  OXT LIG    1       23.082 -29.369   5.442  0.00  0.00    -0.476 OA
ATOM     17  HXT LIG    1       22.924 -29.032   6.350  0.00  0.00    +0.295 HD
ENDBRANCH  14  16
ENDBRANCH   8  14
BRANCH   9  18
ATOM     18  C   LIG    1       25.101 -30.518   7.715  0.00  0.00    +0.111 C 
BRANCH  18  19
ATOM     19  S   LIG    1       26.105 -31.627   6.681  0.00  0.00    -0.080 S 
BRANCH  19  20
ATOM     20  C   LIG    1       24.857 -32.442   5.810  0.00  0.00    +0.209 A 
ATOM     21  N   LIG    1       25.073 -33.265   4.745  0.00  0.00    -0.223 N 
ATOM     22  C   LIG    1       26.298 -33.686   4.126  0.00  0.00    +0.177 C 
ATOM     23  N   LIG    1       23.894 -33.733   4.296  0.00  0.00    -0.043 NA
ATOM     24  N   LIG    1       22.982 -33.204   5.100  0.00  0.00    -0.022 NA
ATOM     25  N   LIG    1       23.566 -32.397   6.050  0.00  0.00    -0.102 NA
ENDBRANCH  19  20
ENDBRANCH  18  19
ENDBRANCH   9  18
ENDBRANCH   2   5
BRANCH   1  26
ATOM     26  CA  LIG    1       25.953 -21.867   6.192  0.00  0.00    +0.191 C 
BRANCH  26  34
ATOM     27  N   LIG    1       31.136 -18.556   8.167  0.00  0.00    -0.292 N 
ATOM     28  C   LIG    1       31.209 -19.816   8.756  0.00  0.00    +0.302 C 
ATOM     29  O   LIG    1       31.929 -20.072   9.712  0.00  0.00    -0.265 OA
ATOM     30  C   LIG    1       30.323 -20.927   8.134  0.00  0.00    +0.309 C 
ATOM     31  O   LIG    1       30.759 -22.072   8.177  0.00  0.00    -0.265 OA
ATOM     32  N   LIG    1       29.134 -20.512   7.513  0.00  0.00    -0.217 N 
ATOM     33  C   LIG    1       28.187 -21.461   7.154  0.00  0.00    +0.310 C 
ATOM     34  N   LIG    1       27.012 -20.956   6.639  0.00  0.00    -0.284 N 
ATOM     35  H   LIG    1       26.640 -20.128   7.082  0.00  0.00    +0.151 HD
ATOM     36  O   LIG    1       28.341 -22.677   7.224  0.00  0.00    -0.252 OA
ATOM     37  C   LIG    1       28.889 -19.076   7.388  0.00  0.00    +0.137 C 
ATOM     38  C   LIG    1       30.174 -18.305   7.116  0.00  0.00    +0.127 C 
BRANCH  27  40
ATOM     39  C   LIG    1       31.512 -16.613   9.644  0.00  0.00    +0.024 C 
ATOM     40  C   LIG    1       32.073 -17.507   8.551  0.00  0.00    +0.105 C 
ENDBRANCH  27  40
ENDBRANCH  26  34
BRANCH  26  41
ATOM     41  C   LIG    1       24.823 -21.027   5.590  0.00  0.00    -0.018 A 
ATOM     42  C   LIG    1       23.575 -20.871   6.219  0.00  0.00    +0.009 A 
ATOM     43  C   LIG    1       22.588 -20.041   5.684  0.00  0.00    +0.045 A 
ATOM     44  C   LIG    1       22.838 -19.340   4.515  0.00  0.00    +0.117 A 
ATOM     45  C   LIG    1       24.059 -19.469   3.863  0.00  0.00    +0.045 A 
ATOM     46  C   LIG    1       25.048 -20.306   4.401  0.00  0.00    +0.009 A 
BRANCH  44  47
ATOM     47  O   LIG    1       21.852 -18.527   4.046  0.00  0.00    -0.507 OA
ATOM     48  H   LIG    1       20.995 -18.960   4.193  0.00  0.00    +0.292 HD
ENDBRANCH  44  47
ENDBRANCH  26  41
ENDBRANCH   1  26
TORSDOF 11
ENDMDL
MODEL 3
REMARK VINA RESULT:      -7.0      4.668     10.839
REMARK  Name = *****
REMARK                            x       y       z     vdW  Elec       q    Type
REMARK                         _______ _______ _______ _____ _____    ______ ____
ROOT
ATOM      1  C   LIG    1       26.336 -30.499  12.475  0.00  0.00    +0.239 C 
ATOM      2  N   LIG    1       26.183 -30.984  11.211  0.00  0.00    -0.300 N 
ATOM      3  H   LIG    1       27.053 -31.374  10.862  0.00  0.00    +0.150 HD
ATOM      4  O   LIG    1       27.494 -30.510  12.918  0.00  0.00    -0.273 OA
ENDROOT
BRANCH   2   5
ATOM      5  CA  LIG    1       25.035 -30.877  10.281  0.00  0.00    +0.191 C 
ATOM      6  C   LIG    1       24.882 -29.483   9.562  0.00  0.00    +0.169 C 
ATOM      7  N   LIG    1       24.775 -30.219   8.321  0.00  0.00    -0.249 N 
ATOM      8  CA  LIG    1       25.011 -29.720   7.062  0.00  0.00    +0.123 C 
ATOM      9  C   LIG    1       25.518 -28.470   6.883  0.00  0.00    -0.021 C 
ATOM     10  C   LIG    1       25.918 -27.566   8.035  0.00  0.00    +0.104 C 
ATOM     11  S   LIG    1       26.378 -28.447   9.544  0.00  0.00    -0.131 S 
ATOM     12  C   LIG    1       25.185 -31.414   8.829  0.00  0.00    +0.244 C 
ATOM     13  O   LIG    1       25.633 -32.414   8.306  0.00  0.00    -0.273 OA
BRANCH   8  14
ATOM     14  C   LIG    1       24.542 -30.647   5.972  0.00  0.00    +0.351 C 
ATOM     15  O   LIG    1       25.271 -31.360   5.301  0.00  0.00    -0.244 OA
BRANCH  14  16
ATOM     16  OXT LIG    1       23.217 -30.718   5.793  0.00  0.00    -0.476 OA
ATOM     17  HXT LIG    1       22.879 -30.072   6.450  0.00  0.00    +0.295 HD
ENDBRANCH  14  16
ENDBRANCH   8  14
BRANCH   9  18
ATOM     18  C   LIG    1       25.798 -27.812   5.541  0.00  0.00    +0.111 C 
BRANCH  18  19
ATOM     19  S   LIG    1       26.524 -26.166   5.804  0.00  0.00    -0.080 S 
BRANCH  19  20
ATOM     20  C   LIG    1       25.105 -25.271   6.213  0.00  0.00    +0.209 A 
ATOM     21  N   LIG    1       25.114 -24.021   6.756  0.00  0.00    -0.223 N 
ATOM     22  C   LIG    1       26.210 -23.150   7.075  0.00  0.00    +0.177 C 
ATOM     23  N   LIG    1       23.848 -23.611   6.956  0.00  0.00    -0.043 NA
ATOM     24  N   LIG    1       23.088 -24.607   6.518  0.00  0.00    -0.022 NA
ATOM     25  N   LIG    1       23.857 -25.648   6.050  0.00  0.00    -0.102 NA
ENDBRANCH  19  20
ENDBRANCH  18  19
ENDBRANCH   9  18
ENDBRANCH   2   5
BRANCH   1  26
ATOM     26  CA  LIG    1       25.170 -29.855  13.269  0.00  0.00    +0.191 C 
BRANCH  26  34
ATOM     27  N   LIG    1       19.457 -31.890  11.046  0.00  0.00    -0.292 N 
ATOM     28  C   LIG    1       19.715 -32.600  12.216  0.00  0.00    +0.302 C 
ATOM     29  O   LIG    1       19.126 -33.628  12.524  0.00  0.00    -0.265 OA
ATOM     30  C   LIG    1       20.807 -32.022  13.155  0.00  0.00    +0.309 C 
ATOM     31  O   LIG    1       20.658 -32.208  14.358  0.00  0.00    -0.265 OA
ATOM     32  N   LIG    1       21.830 -31.276  12.548  0.00  0.00    -0.217 N 
ATOM     33  C   LIG    1       22.956 -30.939  13.286  0.00  0.00    +0.310 C 
ATOM     34  N   LIG    1       23.949 -30.291  12.583  0.00  0.00    -0.284 N 
ATOM     35  H   LIG    1       24.136 -30.624  11.648  0.00  0.00    +0.151 HD
ATOM     36  O   LIG    1       23.099 -31.137  14.489  0.00  0.00    -0.252 OA
ATOM     37  C   LIG    1       21.720 -30.996  11.117  0.00  0.00    +0.137 C 
ATOM     38  C   LIG    1       20.276 -30.750  10.699  0.00  0.00    +0.127 C 
BRANCH  27  40
ATOM     39  C   LIG    1       17.671 -31.015   9.582  0.00  0.00    +0.024 C 
ATOM     40  C   LIG    1       18.318 -32.240  10.207  0.00  0.00    +0.105 C 
ENDBRANCH  27  40
ENDBRANCH  26  34
BRANCH  26  41
ATOM     41  C   LIG    1       25.193 -28.324  13.278  0.00  0.00    -0.018 A 
ATOM     42  C   LIG    1       24.047 -27.548  13.530  0.00  0.00    +0.009 A 
ATOM     43  C   LIG    1       24.111 -26.156  13.606  0.00  0.00    +0.045 A 
ATOM     44  C   LIG    1       25.328 -25.514  13.444  0.00  0.00    +0.117 A 
ATOM     45  C   LIG    1       26.483 -26.245  13.193  0.00  0.00    +0.045 A 
ATOM     46  C   LIG    1       26.416 -27.644  13.115  0.00  0.00    +0.009 A 
BRANCH  44  47
ATOM     47  O   LIG    1       25.341 -24.156  13.550  0.00  0.00    -0.507 OA
ATOM     48  H   LIG    1       24.701 -23.891  14.230  0.00  0.00    +0.292 HD
ENDBRANCH  44  47
ENDBRANCH  26  41
ENDBRANCH   1  26
TORSDOF 11
ENDMDL
MODEL 4
REMARK VINA RESULT:      -6.4      6.173      8.907
REMARK  Name = *****
REMARK                            x       y       z     vdW  Elec       q    Type
REMARK                         _______ _______ _______ _____ _____    ______ ____
ROOT
ATOM      1  C   LIG    1       24.424 -31.044   8.429  0.00  0.00    +0.239 C 
ATOM      2  N   LIG    1       23.604 -31.052   9.516  0.00  0.00    -0.300 N 
ATOM      3  H   LIG    1       22.910 -31.790   9.445  0.00  0.00    +0.150 HD
ATOM      4  O   LIG    1       24.120 -31.831   7.521  0.00  0.00    -0.273 OA
ENDROOT
BRANCH   2   5
ATOM      5  CA  LIG    1       23.495 -30.089  10.636  0.00  0.00    +0.191 C 
ATOM      6  C   LIG    1       22.026 -29.797  11.128  0.00  0.00    +0.169 C 
ATOM      7  N   LIG    1       22.504 -30.058  12.469  0.00  0.00    -0.249 N 
ATOM      8  CA  LIG    1       21.729 -30.410  13.549  0.00  0.00    +0.123 C 
ATOM      9  C   LIG    1       20.405 -30.687  13.405  0.00  0.00    -0.021 C 
ATOM     10  C   LIG    1       19.701 -30.692  12.060  0.00  0.00    +0.104 C 
ATOM     11  S   LIG    1       20.785 -31.040  10.657  0.00  0.00    -0.131 S 
ATOM     12  C   LIG    1       23.696 -30.596  12.092  0.00  0.00    +0.244 C 
ATOM     13  O   LIG    1       24.486 -31.316  12.669  0.00  0.00    -0.273 OA
BRANCH   8  14
ATOM     14  C   LIG    1       22.479 -30.333  14.852  0.00  0.00    +0.351 C 
ATOM     15  O   LIG    1       22.654 -29.311  15.496  0.00  0.00    -0.244 OA
BRANCH  14  16
ATOM     16  OXT LIG    1       22.918 -31.497  15.345  0.00  0.00    -0.476 OA
ATOM     17  HXT LIG    1       22.901 -31.339  16.313  0.00  0.00    +0.295 HD
ENDBRANCH  14  16
ENDBRANCH   8  14
BRANCH   9  18
ATOM     18  C   LIG    1       19.453 -31.066  14.529  0.00  0.00    +0.111 C 
BRANCH  18  19
ATOM     19  S   LIG    1       17.806 -30.371  14.199  0.00  0.00    -0.080 S 
BRANCH  19  20
ATOM     20  C   LIG    1       18.103 -28.707  14.551  0.00  0.00    +0.209 A 
ATOM     21  N   LIG    1       17.166 -27.721  14.454  0.00  0.00    -0.223 N 
ATOM     22  C   LIG    1       15.775 -27.787  14.106  0.00  0.00    +0.177 C 
ATOM     23  N   LIG    1       17.721 -26.543  14.795  0.00  0.00    -0.043 NA
ATOM     24  N   LIG    1       18.978 -26.830  15.107  0.00  0.00    -0.022 NA
ATOM     25  N   LIG    1       19.231 -28.174  14.961  0.00  0.00    -0.102 NA
ENDBRANCH  19  20
ENDBRANCH  18  19
ENDBRANCH   9  18
ENDBRANCH   2   5
BRANCH   1  26
ATOM     26  CA  LIG    1       25.589 -30.032   8.270  0.00  0.00    +0.191 C 
BRANCH  26  34
ATOM     27  N   LIG    1       27.250 -27.680  14.052  0.00  0.00    -0.292 N 
ATOM     28  C   LIG    1       28.025 -28.817  13.837  0.00  0.00    +0.302 C 
ATOM     29  O   LIG    1       28.621 -29.403  14.730  0.00  0.00    -0.265 OA
ATOM     30  C   LIG    1       28.119 -29.329  12.376  0.00  0.00    +0.309 C 
ATOM     31  O   LIG    1       29.167 -29.872  12.045  0.00  0.00    -0.265 OA
ATOM     32  N   LIG    1       27.021 -29.062  11.542  0.00  0.00    -0.217 N 
ATOM     33  C   LIG    1       26.933 -29.694  10.309  0.00  0.00    +0.310 C 
ATOM     34  N   LIG    1       25.776 -29.446   9.601  0.00  0.00    -0.284 N 
ATOM     35  H   LIG    1       24.916 -29.421  10.130  0.00  0.00    +0.151 HD
ATOM     36  O   LIG    1       27.806 -30.399   9.811  0.00  0.00    -0.252 OA
ATOM     37  C   LIG    1       25.946 -28.222  12.069  0.00  0.00    +0.137 C 
ATOM     38  C   LIG    1       26.483 -27.113  12.964  0.00  0.00    +0.127 C 
BRANCH  27  40
ATOM     39  C   LIG    1       28.037 -25.703  15.304  0.00  0.00    +0.024 C 
ATOM     40  C   LIG    1       27.264 -27.011  15.347  0.00  0.00    +0.105 C 
ENDBRANCH  27  40
ENDBRANCH  26  34
BRANCH  26  41
ATOM     41  C   LIG    1       25.300 -28.898   7.284  0.00  0.00    -0.018 A 
ATOM     42  C   LIG    1       24.435 -29.048   6.184  0.00  0.00    +0.009 A 
ATOM     43  C   LIG    1       24.132 -27.976   5.344  0.00  0.00    +0.045 A 
ATOM     44  C   LIG    1       24.678 -26.728   5.596  0.00  0.00    +0.117 A 
ATOM     45  C   LIG    1       25.537 -26.539   6.673  0.00  0.00    +0.045 A 
ATOM     46  C   LIG    1       25.843 -27.619   7.514  0.00  0.00    +0.009 A 
BRANCH  44  47
ATOM     47  O   LIG    1       24.333 -25.710   4.760  0.00  0.00    -0.507 OA
ATOM     48  H   LIG    1       23.553 -25.979   4.248  0.00  0.00    +0.292 HD
ENDBRANCH  44  47
ENDBRANCH  26  41
ENDBRANCH   1  26
TORSDOF 11
ENDMDL
MODEL 5
REMARK VINA RESULT:      -5.8      5.813      8.749
REMARK  Name = *****
REMARK                            x       y       z     vdW  Elec       q    Type
REMARK                         _______ _______ _______ _____ _____    ______ ____
ROOT
ATOM      1  C   LIG    1       24.088 -30.379   8.194  0.00  0.00    +0.239 C 
ATOM      2  N   LIG    1       23.459 -30.610   9.380  0.00  0.00    -0.300 N 
ATOM      3  H   LIG    1       22.629 -31.180   9.248  0.00  0.00    +0.150 HD
ATOM      4  O   LIG    1       23.499 -30.789   7.184  0.00  0.00    -0.273 OA
ENDROOT
BRANCH   2   5
ATOM      5  CA  LIG    1       23.716 -30.041  10.723  0.00  0.00    +0.191 C 
ATOM      6  C   LIG    1       22.428 -29.679  11.555  0.00  0.00    +0.169 C 
ATOM      7  N   LIG    1       23.018 -30.422  12.649  0.00  0.00    -0.249 N 
ATOM      8  CA  LIG    1       22.342 -30.962  13.718  0.00  0.00    +0.123 C 
ATOM      9  C   LIG    1       20.983 -30.957  13.766  0.00  0.00    -0.021 C 
ATOM     10  C   LIG    1       20.115 -30.426  12.639  0.00  0.00    +0.104 C 
ATOM     11  S   LIG    1       20.894 -30.491  11.010  0.00  0.00    -0.131 S 
ATOM     12  C   LIG    1       24.002 -31.004  11.910  0.00  0.00    +0.244 C 
ATOM     13  O   LIG    1       24.689 -31.987  12.095  0.00  0.00    -0.273 OA
BRANCH   8  14
ATOM     14  C   LIG    1       23.263 -31.420  14.817  0.00  0.00    +0.351 C 
ATOM     15  O   LIG    1       23.461 -32.586  15.120  0.00  0.00    -0.244 OA
BRANCH  14  16
ATOM     16  OXT LIG    1       23.949 -30.457  15.445  0.00  0.00    -0.476 OA
ATOM     17  HXT LIG    1       23.730 -30.621  16.387  0.00  0.00    +0.295 HD
ENDBRANCH  14  16
ENDBRANCH   8  14
BRANCH   9  18
ATOM     18  C   LIG    1       20.136 -31.507  14.903  0.00  0.00    +0.111 C 
BRANCH  18  19
ATOM     19  S   LIG    1       18.556 -30.611  14.981  0.00  0.00    -0.080 S 
BRANCH  19  20
ATOM     20  C   LIG    1       17.456 -31.910  14.692  0.00  0.00    +0.209 A 
ATOM     21  N   LIG    1       16.594 -31.969  13.637  0.00  0.00    -0.223 N 
ATOM     22  C   LIG    1       16.403 -31.066  12.537  0.00  0.00    +0.177 C 
ATOM     23  N   LIG    1       15.878 -33.106  13.708  0.00  0.00    -0.043 NA
ATOM     24  N   LIG    1       16.323 -33.729  14.791  0.00  0.00    -0.022 NA
ATOM     25  N   LIG    1       17.308 -32.997  15.415  0.00  0.00    -0.102 NA
ENDBRANCH  19  20
ENDBRANCH  18  19
ENDBRANCH   9  18
ENDBRANCH   2   5
BRANCH   1  26
ATOM     26  CA  LIG    1       25.393 -29.547   8.090  0.00  0.00    +0.191 C 
BRANCH  26  34
ATOM     27  N   LIG    1       27.367 -27.679  13.950  0.00  0.00    -0.292 N 
ATOM     28  C   LIG    1       28.092 -28.823  13.621  0.00  0.00    +0.302 C 
ATOM     29  O   LIG    1       28.702 -29.493  14.444  0.00  0.00    -0.265 OA
ATOM     30  C   LIG    1       28.108 -29.230  12.124  0.00  0.00    +0.309 C 
ATOM     31  O   LIG    1       29.123 -29.781  11.711  0.00  0.00    -0.265 OA
ATOM     32  N   LIG    1       26.988 -28.867  11.360  0.00  0.00    -0.217 N 
ATOM     33  C   LIG    1       26.828 -29.403  10.089  0.00  0.00    +0.310 C 
ATOM     34  N   LIG    1       25.654 -29.066   9.451  0.00  0.00    -0.284 N 
ATOM     35  H   LIG    1       24.817 -29.051  10.016  0.00  0.00    +0.151 HD
ATOM     36  O   LIG    1       27.655 -30.098   9.505  0.00  0.00    -0.252 OA
ATOM     37  C   LIG    1       25.966 -28.032  11.990  0.00  0.00    +0.137 C 
ATOM     38  C   LIG    1       26.579 -27.010  12.939  0.00  0.00    +0.127 C 
BRANCH  27  40
ATOM     39  C   LIG    1       28.253 -25.814  15.302  0.00  0.00    +0.024 C 
ATOM     40  C   LIG    1       27.458 -27.108  15.288  0.00  0.00    +0.105 C 
ENDBRANCH  27  40
ENDBRANCH  26  34
BRANCH  26  41
ATOM     41  C   LIG    1       25.286 -28.331   7.165  0.00  0.00    -0.018 A 
ATOM     42  C   LIG    1       24.352 -28.255   6.116  0.00  0.00    +0.009 A 
ATOM     43  C   LIG    1       24.227 -27.105   5.335  0.00  0.00    +0.045 A 
ATOM     44  C   LIG    1       25.023 -26.004   5.599  0.00  0.00    +0.117 A 
ATOM     45  C   LIG    1       25.958 -26.040   6.628  0.00  0.00    +0.045 A 
ATOM     46  C   LIG    1       26.085 -27.198   7.409  0.00  0.00    +0.009 A 
BRANCH  44  47
ATOM     47  O   LIG    1       24.847 -24.898   4.823  0.00  0.00    -0.507 OA
ATOM     48  H   LIG    1       24.723 -24.129   5.403  0.00  0.00    +0.292 HD
ENDBRANCH  44  47
ENDBRANCH  26  41
ENDBRANCH   1  26
TORSDOF 11
ENDMDL
MODEL 6
REMARK VINA RESULT:      -4.8      5.226      9.382
REMARK  Name = *****
REMARK                            x       y       z     vdW  Elec       q    Type
REMARK                         _______ _______ _______ _____ _____    ______ ____
ROOT
ATOM      1  C   LIG    1       26.806 -32.292   9.059  0.00  0.00    +0.239 C 
ATOM      2  N   LIG    1       27.124 -31.270   9.901  0.00  0.00    -0.300 N 
ATOM      3  H   LIG    1       27.818 -31.562  10.583  0.00  0.00    +0.150 HD
ATOM      4  O   LIG    1       27.309 -33.391   9.332  0.00  0.00    -0.273 OA
ENDROOT
BRANCH   2   5
ATOM      5  CA  LIG    1       26.514 -29.928  10.048  0.00  0.00    +0.191 C 
ATOM      6  C   LIG    1       25.296 -29.851  11.046  0.00  0.00    +0.169 C 
ATOM      7  N   LIG    1       25.964 -28.721  11.654  0.00  0.00    -0.249 N 
ATOM      8  CA  LIG    1       25.751 -28.245  12.927  0.00  0.00    +0.123 C 
ATOM      9  C   LIG    1       24.955 -28.914  13.804  0.00  0.00    -0.021 C 
ATOM     10  C   LIG    1       24.301 -30.245  13.481  0.00  0.00    +0.104 C 
ATOM     11  S   LIG    1       25.178 -31.220  12.238  0.00  0.00    -0.131 S 
ATOM     12  C   LIG    1       27.158 -28.907  11.027  0.00  0.00    +0.244 C 
ATOM     13  O   LIG    1       28.282 -28.523  11.280  0.00  0.00    -0.273 OA
BRANCH   8  14
ATOM     14  C   LIG    1       26.385 -26.899  13.158  0.00  0.00    +0.351 C 
ATOM     15  O   LIG    1       25.825 -25.827  12.993  0.00  0.00    -0.244 OA
BRANCH  14  16
ATOM     16  OXT LIG    1       27.633 -26.915  13.640  0.00  0.00    -0.476 OA
ATOM     17  HXT LIG    1       27.808 -27.875  13.747  0.00  0.00    +0.295 HD
ENDBRANCH  14  16
ENDBRANCH   8  14
BRANCH   9  18
ATOM     18  C   LIG    1       24.636 -28.470  15.224  0.00  0.00    +0.111 C 
BRANCH  18  19
ATOM     19  S   LIG    1       23.355 -27.180  15.190  0.00  0.00    -0.080 S 
BRANCH  19  20
ATOM     20  C   LIG    1       21.958 -28.148  14.884  0.00  0.00    +0.209 A 
ATOM     21  N   LIG    1       21.019 -27.865  13.937  0.00  0.00    -0.223 N 
ATOM     22  C   LIG    1       20.952 -26.798  12.978  0.00  0.00    +0.177 C 
ATOM     23  N   LIG    1       20.063 -28.812  13.958  0.00  0.00    -0.043 NA
ATOM     24  N   LIG    1       20.441 -29.664  14.902  0.00  0.00    -0.022 NA
ATOM     25  N   LIG    1       21.620 -29.264  15.488  0.00  0.00    -0.102 NA
ENDBRANCH  19  20
ENDBRANCH  18  19
ENDBRANCH   9  18
ENDBRANCH   2   5
BRANCH   1  26
ATOM     26  CA  LIG    1       25.780 -32.134   7.906  0.00  0.00    +0.191 C 
BRANCH  26  34
ATOM     27  N   LIG    1       25.097 -25.994   6.019  0.00  0.00    -0.292 N 
ATOM     28  C   LIG    1       25.413 -26.736   4.883  0.00  0.00    +0.302 C 
ATOM     29  O   LIG    1       25.812 -26.235   3.840  0.00  0.00    -0.265 OA
ATOM     30  C   LIG    1       25.228 -28.273   4.983  0.00  0.00    +0.309 C 
ATOM     31  O   LIG    1       24.907 -28.860   3.955  0.00  0.00    -0.265 OA
ATOM     32  N   LIG    1       25.376 -28.845   6.257  0.00  0.00    -0.217 N 
ATOM     33  C   LIG    1       25.464 -30.225   6.378  0.00  0.00    +0.310 C 
ATOM     34  N   LIG    1       25.703 -30.691   7.652  0.00  0.00    -0.284 N 
ATOM     35  H   LIG    1       26.366 -30.171   8.209  0.00  0.00    +0.151 HD
ATOM     36  O   LIG    1       25.305 -31.027   5.462  0.00  0.00    -0.252 OA
ATOM     37  C   LIG    1       25.561 -27.947   7.396  0.00  0.00    +0.137 C 
ATOM     38  C   LIG    1       24.744 -26.670   7.247  0.00  0.00    +0.127 C 
BRANCH  27  40
ATOM     39  C   LIG    1       23.813 -23.982   6.648  0.00  0.00    +0.024 C 
ATOM     40  C   LIG    1       25.047 -24.538   5.958  0.00  0.00    +0.105 C 
ENDBRANCH  27  40
ENDBRANCH  26  34
BRANCH  26  41
ATOM     41  C   LIG    1       24.374 -32.635   8.248  0.00  0.00    -0.018 A 
ATOM     42  C   LIG    1       23.760 -32.387   9.489  0.00  0.00    +0.009 A 
ATOM     43  C   LIG    1       22.450 -32.792   9.747  0.00  0.00    +0.045 A 
ATOM     44  C   LIG    1       21.724 -33.442   8.762  0.00  0.00    +0.117 A 
ATOM     45  C   LIG    1       22.296 -33.706   7.523  0.00  0.00    +0.045 A 
ATOM     46  C   LIG    1       23.614 -33.301   7.267  0.00  0.00    +0.009 A 
BRANCH  44  47
ATOM     47  O   LIG    1       20.442 -33.797   9.056  0.00  0.00    -0.507 OA
ATOM     48  H   LIG    1       20.429 -34.215   9.933  0.00  0.00    +0.292 HD
ENDBRANCH  44  47
ENDBRANCH  26  41
ENDBRANCH   1  26
TORSDOF 11
ENDMDL
MODEL 7
REMARK VINA RESULT:      -4.7      3.123     10.004
REMARK  Name = *****
REMARK                            x       y       z     vdW  Elec       q    Type
REMARK                         _______ _______ _______ _____ _____    ______ ____
ROOT
ATOM      1  C   LIG    1       25.990 -27.649   5.422  0.00  0.00    +0.239 C 
ATOM      2  N   LIG    1       25.684 -26.388   5.007  0.00  0.00    -0.300 N 
ATOM      3  H   LIG    1       26.430 -26.000   4.438  0.00  0.00    +0.150 HD
ATOM      4  O   LIG    1       27.131 -28.045   5.144  0.00  0.00    -0.273 OA
ENDROOT
BRANCH   2   5
ATOM      5  CA  LIG    1       24.556 -25.506   5.386  0.00  0.00    +0.191 C 
ATOM      6  C   LIG    1       24.798 -24.622   6.667  0.00  0.00    +0.169 C 
ATOM      7  N   LIG    1       24.354 -23.492   5.878  0.00  0.00    -0.249 N 
ATOM      8  CA  LIG    1       24.628 -22.169   6.135  0.00  0.00    +0.123 C 
ATOM      9  C   LIG    1       25.492 -21.808   7.121  0.00  0.00    -0.021 C 
ATOM     10  C   LIG    1       26.259 -22.814   7.961  0.00  0.00    +0.104 C 
ATOM     11  S   LIG    1       26.539 -24.401   7.144  0.00  0.00    -0.131 S 
ATOM     12  C   LIG    1       24.400 -24.131   4.677  0.00  0.00    +0.244 C 
ATOM     13  O   LIG    1       24.456 -23.721   3.536  0.00  0.00    -0.273 OA
BRANCH   8  14
ATOM     14  C   LIG    1       23.794 -21.231   5.303  0.00  0.00    +0.351 C 
ATOM     15  O   LIG    1       22.665 -20.865   5.585  0.00  0.00    -0.244 OA
BRANCH  14  16
ATOM     16  OXT LIG    1       24.389 -20.731   4.213  0.00  0.00    -0.476 OA
ATOM     17  HXT LIG    1       23.708 -20.863   3.519  0.00  0.00    +0.295 HD
ENDBRANCH  14  16
ENDBRANCH   8  14
BRANCH   9  18
ATOM     18  C   LIG    1       25.852 -20.380   7.503  0.00  0.00    +0.111 C 
BRANCH  18  19
ATOM     19  S   LIG    1       27.433 -20.365   8.400  0.00  0.00    -0.080 S 
BRANCH  19  20
ATOM     20  C   LIG    1       28.446 -19.621   7.216  0.00  0.00    +0.209 A 
ATOM     21  N   LIG    1       29.600 -18.953   7.502  0.00  0.00    -0.223 N 
ATOM     22  C   LIG    1       30.265 -18.733   8.755  0.00  0.00    +0.177 C 
ATOM     23  N   LIG    1       30.144 -18.494   6.360  0.00  0.00    -0.043 NA
ATOM     24  N   LIG    1       29.327 -18.902   5.398  0.00  0.00    -0.022 NA
ATOM     25  N   LIG    1       28.264 -19.607   5.916  0.00  0.00    -0.102 NA
ENDBRANCH  19  20
ENDBRANCH  18  19
ENDBRANCH   9  18
ENDBRANCH   2   5
BRANCH   1  26
ATOM     26  CA  LIG    1       25.029 -28.496   6.297  0.00  0.00    +0.191 C 
BRANCH  26  34
ATOM     27  N   LIG    1       27.026 -29.055  12.414  0.00  0.00    -0.292 N 
ATOM     28  C   LIG    1       25.635 -29.111  12.434  0.00  0.00    +0.302 C 
ATOM     29  O   LIG    1       24.969 -28.946  13.447  0.00  0.00    -0.265 OA
ATOM     30  C   LIG    1       24.931 -29.408  11.084  0.00  0.00    +0.309 C 
ATOM     31  O   LIG    1       23.878 -30.035  11.134  0.00  0.00    -0.265 OA
ATOM     32  N   LIG    1       25.600 -28.995   9.920  0.00  0.00    -0.217 N 
ATOM     33  C   LIG    1       24.926 -29.010   8.706  0.00  0.00    +0.310 C 
ATOM     34  N   LIG    1       25.628 -28.498   7.636  0.00  0.00    -0.284 N 
ATOM     35  H   LIG    1       26.178 -27.669   7.808  0.00  0.00    +0.151 HD
ATOM     36  O   LIG    1       23.802 -29.472   8.526  0.00  0.00    -0.252 OA
ATOM     37  C   LIG    1       26.946 -28.442  10.060  0.00  0.00    +0.137 C 
ATOM     38  C   LIG    1       27.734 -29.146  11.156  0.00  0.00    +0.127 C 
BRANCH  27  40
ATOM     39  C   LIG    1       29.121 -29.688  13.558  0.00  0.00    +0.024 C 
ATOM     40  C   LIG    1       27.779 -28.983  13.661  0.00  0.00    +0.105 C 
ENDBRANCH  27  40
ENDBRANCH  26  34
BRANCH  26  41
ATOM     41  C   LIG    1       24.881 -29.948   5.836  0.00  0.00    -0.018 A 
ATOM     42  C   LIG    1       23.720 -30.706   6.074  0.00  0.00    +0.009 A 
ATOM     43  C   LIG    1       23.584 -32.004   5.578  0.00  0.00    +0.045 A 
ATOM     44  C   LIG    1       24.601 -32.562   4.822  0.00  0.00    +0.117 A 
ATOM     45  C   LIG    1       25.764 -31.845   4.566  0.00  0.00    +0.045 A 
ATOM     46  C   LIG    1       25.901 -30.542   5.067  0.00  0.00    +0.009 A 
BRANCH  44  47
ATOM     47  O   LIG    1       24.410 -33.823   4.343  0.00  0.00    -0.507 OA
ATOM     48  H   LIG    1       23.812 -33.776   3.578  0.00  0.00    +0.292 HD
ENDBRANCH  44  47
ENDBRANCH  26  41
ENDBRANCH   1  26
TORSDOF 11
ENDMDL
