MODEL 1
REMARK VINA RESULT:      24.4      0.000      0.000
REMARK  Name = *****
REMARK                            x       y       z     vdW  Elec       q    Type
REMARK                         _______ _______ _______ _____ _____    ______ ____
ROOT
ATOM      1  C   LIG    1       26.283 -14.991   2.477  0.00  0.00    +0.204 A 
ATOM      2  C   LIG    1       26.171 -16.366   2.806  0.00  0.00    +0.173 A 
ATOM      3  C   LIG    1       25.015 -16.817   3.490  0.00  0.00    +0.031 A 
ATOM      4  C   LIG    1       25.059 -17.970   4.431  0.00  0.00    -0.009 A 
ATOM      5  C   LIG    1       24.121 -19.100   4.478  0.00  0.00    -0.016 A 
ATOM      6  C   LIG    1       22.900 -19.028   3.543  0.00  0.00    +0.104 C 
ATOM      7  C   LIG    1       22.042 -17.738   3.492  0.00  0.00    +0.032 C 
ATOM      8  C   LIG    1       22.588 -16.484   4.162  0.00  0.00    +0.038 C 
ATOM      9  C   LIG    1       24.429 -20.207   5.197  0.00  0.00    +0.058 A 
ATOM     10  C   LIG    1       25.650 -20.582   5.994  0.00  0.00    +0.193 A 
ATOM     11  O   LIG    1       25.565 -21.572   6.725  0.00  0.00    -0.287 OA
ATOM     12  C   LIG    1       26.936 -19.809   5.880  0.00  0.00    +0.054 A 
ATOM     13  C   LIG    1       26.981 -18.480   5.694  0.00  0.00    +0.019 A 
ATOM     14  C   LIG    1       25.781 -17.658   5.535  0.00  0.00    +0.010 A 
ATOM     15  C   LIG    1       23.872 -16.005   3.541  0.00  0.00    -0.032 A 
ATOM     16  C   LIG    1       23.965 -14.679   3.116  0.00  0.00    +0.054 A 
ATOM     17  C   LIG    1       25.189 -14.131   2.723  0.00  0.00    +0.169 A 
ENDROOT
BRANCH   6  18
ATOM     18  N   LIG    1       21.980 -20.150   3.790  0.00  0.00    -0.309 N 
ATOM     19  H   LIG    1       22.366 -21.086   3.787  0.00  0.00    +0.149 HD
ATOM     20  C   LIG    1       20.619 -20.005   3.895  0.00  0.00    +0.210 C 
ATOM     21  O   LIG    1       20.042 -18.923   3.769  0.00  0.00    -0.276 OA
ATOM     22  C   LIG    1       19.875 -21.270   4.219  0.00  0.00    +0.109 C 
ENDBRANCH   6  18
BRANCH   1  24
ATOM     23  C   LIG    1       28.384 -13.979   3.009  0.00  0.00    +0.277 C 
ATOM     24  O   LIG    1       27.424 -14.363   2.031  0.00  0.00    -0.488 OA
ENDBRANCH   1  24
BRANCH   2  25
ATOM     25  O   LIG    1       27.243 -17.202   2.578  0.00  0.00    -0.491 OA
ATOM     26  C   LIG    1       28.286 -17.150   3.562  0.00  0.00    +0.277 C 
ENDBRANCH   2  25
BRANCH  12  27
ATOM     27  S   LIG    1       28.413 -20.718   6.015  0.00  0.00    -0.125 S 
ATOM     28  C   LIG    1       29.475 -19.443   6.730  0.00  0.00    +0.090 C 
ENDBRANCH  12  27
BRANCH  17  29
ATOM     29  O   LIG    1       25.341 -12.756   2.570  0.00  0.00    -0.457 OA
BRANCH  29  30
ATOM     30  C   LIG    1       24.913 -11.983   3.716  0.00  0.00    +0.339 C 
ATOM     31  C   LIG    1       23.898 -12.730   4.618  0.00  0.00    +0.214 C 
ATOM     32  C   LIG    1       24.526 -13.403   5.842  0.00  0.00    +0.180 C 
ATOM     33  C   LIG    1       26.026 -13.634   5.688  0.00  0.00    +0.177 C 
ATOM     34  C   LIG    1       26.743 -12.336   5.299  0.00  0.00    +0.179 C 
ATOM     35  O   LIG    1       26.027 -11.448   4.437  0.00  0.00    -0.331 OA
BRANCH  31  36
ATOM     36  O   LIG    1       22.946 -11.759   5.133  0.00  0.00    -0.383 OA
ATOM     37  H   LIG    1       23.173 -10.886   4.771  0.00  0.00    +0.210 HD
ENDBRANCH  31  36
BRANCH  32  38
ATOM     38  O   LIG    1       23.874 -14.660   6.088  0.00  0.00    -0.386 OA
ATOM     39  H   LIG    1       23.595 -14.697   7.017  0.00  0.00    +0.210 HD
ENDBRANCH  32  38
BRANCH  33  40
ATOM     40  O   LIG    1       26.586 -14.103   6.932  0.00  0.00    -0.387 OA
ATOM     41  H   LIG    1       26.286 -15.016   7.081  0.00  0.00    +0.210 HD
ENDBRANCH  33  40
BRANCH  34  42
ATOM     42  C   LIG    1       28.147 -12.627   4.744  0.00  0.00    +0.190 C 
BRANCH  42  43
ATOM     43  O   LIG    1       29.095 -11.642   5.136  0.00  0.00    -0.392 OA
ATOM     44  H   LIG    1       28.598 -10.830   5.343  0.00  0.00    +0.209 HD
ENDBRANCH  42  43
ENDBRANCH  34  42
ENDBRANCH  29  30
ENDBRANCH  17  29
TORSDOF 11
ENDMDL
