MODEL 1
REMARK VINA RESULT:      -5.9      0.000      0.000
REMARK  Name = *****
REMARK                            x       y       z     vdW  Elec       q    Type
REMARK                         _______ _______ _______ _____ _____    ______ ____
ROOT
ATOM      1  C   LIG    1       23.395 -21.654   6.377  0.00  0.00    +0.052 C 
ATOM      2  C   LIG    1       23.662 -20.623   7.472  0.00  0.00    +0.021 C 
ATOM      3  C   LIG    1       24.689 -22.098   5.718  0.00  0.00    +0.226 C 
ATOM      4  O   LIG    1       25.625 -21.382   5.401  0.00  0.00    -0.275 OA
ATOM      5  N   LIG    1       24.635 -23.437   5.516  0.00  0.00    -0.256 N 
ATOM      6  H   LIG    1       25.383 -23.957   5.083  0.00  0.00    +0.158 HD
ATOM      7  C   LIG    1       23.676 -24.037   6.260  0.00  0.00    +0.220 C 
ATOM      8  O   LIG    1       23.534 -25.242   6.391  0.00  0.00    -0.275 OA
ATOM      9  C   LIG    1       22.881 -22.981   6.973  0.00  0.00    +0.112 C 
ENDROOT
BRANCH   1  11
ATOM     10  C   LIG    1       22.463 -19.653   5.015  0.00  0.00    +0.005 C 
ATOM     11  C   LIG    1       22.402 -21.148   5.303  0.00  0.00    +0.013 C 
ENDBRANCH   1  11
TORSDOF 1
ENDMDL
MODEL 2
REMARK VINA RESULT:      -5.8      2.433      3.805
REMARK  Name = *****
REMARK                            x       y       z     vdW  Elec       q    Type
REMARK                         _______ _______ _______ _____ _____    ______ ____
ROOT
ATOM      1  C   LIG    1       24.852 -21.309   7.154  0.00  0.00    +0.052 C 
ATOM      2  C   LIG    1       23.440 -20.726   7.140  0.00  0.00    +0.021 C 
ATOM      3  C   LIG    1       25.672 -20.781   5.989  0.00  0.00    +0.226 C 
ATOM      4  O   LIG    1       25.290 -20.634   4.840  0.00  0.00    -0.275 OA
ATOM      5  N   LIG    1       26.925 -20.509   6.429  0.00  0.00    -0.256 N 
ATOM      6  H   LIG    1       27.652 -20.152   5.828  0.00  0.00    +0.158 HD
ATOM      7  C   LIG    1       26.993 -20.415   7.778  0.00  0.00    +0.220 C 
ATOM      8  O   LIG    1       27.957 -20.015   8.411  0.00  0.00    -0.275 OA
ATOM      9  C   LIG    1       25.660 -20.788   8.361  0.00  0.00    +0.112 C 
ENDROOT
BRANCH   1  11
ATOM     10  C   LIG    1       23.550 -23.515   6.749  0.00  0.00    +0.005 C 
ATOM     11  C   LIG    1       24.865 -22.856   7.149  0.00  0.00    +0.013 C 
ENDBRANCH   1  11
TORSDOF 1
ENDMDL
MODEL 3
REMARK VINA RESULT:      -5.8      2.424      3.617
REMARK  Name = *****
REMARK                            x       y       z     vdW  Elec       q    Type
REMARK                         _______ _______ _______ _____ _____    ______ ____
ROOT
ATOM      1  C   LIG    1       24.614 -21.525   7.023  0.00  0.00    +0.052 C 
ATOM      2  C   LIG    1       24.212 -22.996   7.107  0.00  0.00    +0.021 C 
ATOM      3  C   LIG    1       25.598 -21.165   8.123  0.00  0.00    +0.226 C 
ATOM      4  O   LIG    1       25.546 -21.520   9.289  0.00  0.00    -0.275 OA
ATOM      5  N   LIG    1       26.554 -20.357   7.601  0.00  0.00    -0.256 N 
ATOM      6  H   LIG    1       27.314 -19.983   8.149  0.00  0.00    +0.158 HD
ATOM      7  C   LIG    1       26.593 -20.404   6.249  0.00  0.00    +0.220 C 
ATOM      8  O   LIG    1       27.461 -19.909   5.550  0.00  0.00    -0.275 OA
ATOM      9  C   LIG    1       25.450 -21.246   5.757  0.00  0.00    +0.112 C 
ENDROOT
BRANCH   1  11
ATOM     10  C   LIG    1       22.871 -20.126   5.707  0.00  0.00    +0.005 C 
ATOM     11  C   LIG    1       23.401 -20.566   7.067  0.00  0.00    +0.013 C 
ENDBRANCH   1  11
TORSDOF 1
ENDMDL
MODEL 4
REMARK VINA RESULT:      -5.8      7.295      8.598
REMARK  Name = *****
REMARK                            x       y       z     vdW  Elec       q    Type
REMARK                         _______ _______ _______ _____ _____    ______ ____
ROOT
ATOM      1  C   LIG    1       30.270 -19.081   8.104  0.00  0.00    +0.052 C 
ATOM      2  C   LIG    1       30.940 -19.117   6.732  0.00  0.00    +0.021 C 
ATOM      3  C   LIG    1       31.243 -19.490   9.197  0.00  0.00    +0.226 C 
ATOM      4  O   LIG    1       32.048 -20.405   9.147  0.00  0.00    -0.275 OA
ATOM      5  N   LIG    1       31.062 -18.676  10.265  0.00  0.00    -0.256 N 
ATOM      6  H   LIG    1       31.594 -18.763  11.118  0.00  0.00    +0.158 HD
ATOM      7  C   LIG    1       30.384 -17.547   9.949  0.00  0.00    +0.220 C 
ATOM      8  O   LIG    1       30.240 -16.582  10.682  0.00  0.00    -0.275 OA
ATOM      9  C   LIG    1       29.928 -17.635   8.521  0.00  0.00    +0.112 C 
ENDROOT
BRANCH   1  11
ATOM     10  C   LIG    1       28.954 -21.121   7.192  0.00  0.00    +0.005 C 
ATOM     11  C   LIG    1       28.997 -19.958   8.176  0.00  0.00    +0.013 C 
ENDBRANCH   1  11
TORSDOF 1
ENDMDL
MODEL 5
REMARK VINA RESULT:      -5.8      2.012      2.763
REMARK  Name = *****
REMARK                            x       y       z     vdW  Elec       q    Type
REMARK                         _______ _______ _______ _____ _____    ______ ____
ROOT
ATOM      1  C   LIG    1       24.762 -20.940   6.076  0.00  0.00    +0.052 C 
ATOM      2  C   LIG    1       25.323 -20.318   4.798  0.00  0.00    +0.021 C 
ATOM      3  C   LIG    1       24.967 -22.445   6.086  0.00  0.00    +0.226 C 
ATOM      4  O   LIG    1       24.809 -23.206   5.145  0.00  0.00    -0.275 OA
ATOM      5  N   LIG    1       25.342 -22.823   7.332  0.00  0.00    -0.256 N 
ATOM      6  H   LIG    1       25.529 -23.782   7.582  0.00  0.00    +0.158 HD
ATOM      7  C   LIG    1       25.784 -21.784   8.079  0.00  0.00    +0.220 C 
ATOM      8  O   LIG    1       26.334 -21.877   9.165  0.00  0.00    -0.275 OA
ATOM      9  C   LIG    1       25.579 -20.509   7.312  0.00  0.00    +0.112 C 
ENDROOT
BRANCH   1  11
ATOM     10  C   LIG    1       22.638 -19.700   5.251  0.00  0.00    +0.005 C 
ATOM     11  C   LIG    1       23.267 -20.610   6.300  0.00  0.00    +0.013 C 
ENDBRANCH   1  11
TORSDOF 1
ENDMDL
MODEL 6
REMARK VINA RESULT:      -5.7      6.688      7.600
REMARK  Name = *****
REMARK                            x       y       z     vdW  Elec       q    Type
REMARK                         _______ _______ _______ _____ _____    ______ ____
ROOT
ATOM      1  C   LIG    1       29.659 -19.824   7.743  0.00  0.00    +0.052 C 
ATOM      2  C   LIG    1       28.133 -19.802   7.810  0.00  0.00    +0.021 C 
ATOM      3  C   LIG    1       30.266 -18.981   8.851  0.00  0.00    +0.226 C 
ATOM      4  O   LIG    1       29.879 -17.886   9.225  0.00  0.00    -0.275 OA
ATOM      5  N   LIG    1       31.337 -19.638   9.358  0.00  0.00    -0.256 N 
ATOM      6  H   LIG    1       31.906 -19.266  10.103  0.00  0.00    +0.158 HD
ATOM      7  C   LIG    1       31.343 -20.952   9.033  0.00  0.00    +0.220 C 
ATOM      8  O   LIG    1       32.096 -21.792   9.499  0.00  0.00    -0.275 OA
ATOM      9  C   LIG    1       30.212 -21.224   8.083  0.00  0.00    +0.112 C 
ENDROOT
BRANCH   1  11
ATOM     10  C   LIG    1       29.298 -18.430   5.586  0.00  0.00    +0.005 C 
ATOM     11  C   LIG    1       30.208 -19.367   6.371  0.00  0.00    +0.013 C 
ENDBRANCH   1  11
TORSDOF 1
ENDMDL
MODEL 7
REMARK VINA RESULT:      -5.7      2.063      3.204
REMARK  Name = *****
REMARK                            x       y       z     vdW  Elec       q    Type
REMARK                         _______ _______ _______ _____ _____    ______ ____
ROOT
ATOM      1  C   LIG    1       24.300 -21.195   6.181  0.00  0.00    +0.052 C 
ATOM      2  C   LIG    1       24.569 -21.746   4.781  0.00  0.00    +0.021 C 
ATOM      3  C   LIG    1       24.095 -22.320   7.180  0.00  0.00    +0.226 C 
ATOM      4  O   LIG    1       23.453 -23.342   7.001  0.00  0.00    -0.275 OA
ATOM      5  N   LIG    1       24.735 -21.999   8.331  0.00  0.00    -0.256 N 
ATOM      6  H   LIG    1       24.732 -22.596   9.144  0.00  0.00    +0.158 HD
ATOM      7  C   LIG    1       25.648 -21.014   8.161  0.00  0.00    +0.220 C 
ATOM      8  O   LIG    1       26.470 -20.662   8.992  0.00  0.00    -0.275 OA
ATOM      9  C   LIG    1       25.551 -20.496   6.755  0.00  0.00    +0.112 C 
ENDROOT
BRANCH   1  11
ATOM     10  C   LIG    1       22.477 -19.895   4.872  0.00  0.00    +0.005 C 
ATOM     11  C   LIG    1       23.097 -20.224   6.225  0.00  0.00    +0.013 C 
ENDBRANCH   1  11
TORSDOF 1
ENDMDL
MODEL 8
REMARK VINA RESULT:      -5.6      2.627      3.969
REMARK  Name = *****
REMARK                            x       y       z     vdW  Elec       q    Type
REMARK                         _______ _______ _______ _____ _____    ______ ____
ROOT
ATOM      1  C   LIG    1       26.080 -21.635   7.166  0.00  0.00    +0.052 C 
ATOM      2  C   LIG    1       27.495 -21.116   6.917  0.00  0.00    +0.021 C 
ATOM      3  C   LIG    1       25.418 -20.887   8.310  0.00  0.00    +0.226 C 
ATOM      4  O   LIG    1       25.939 -20.567   9.366  0.00  0.00    -0.275 OA
ATOM      5  N   LIG    1       24.127 -20.641   7.978  0.00  0.00    -0.256 N 
ATOM      6  H   LIG    1       23.486 -20.159   8.590  0.00  0.00    +0.158 HD
ATOM      7  C   LIG    1       23.899 -20.770   6.650  0.00  0.00    +0.220 C 
ATOM      8  O   LIG    1       22.874 -20.441   6.074  0.00  0.00    -0.275 OA
ATOM      9  C   LIG    1       25.144 -21.288   5.989  0.00  0.00    +0.112 C 
ENDROOT
BRANCH   1  11
ATOM     10  C   LIG    1       25.519 -24.007   6.280  0.00  0.00    +0.005 C 
ATOM     11  C   LIG    1       26.035 -23.158   7.435  0.00  0.00    +0.013 C 
ENDBRANCH   1  11
TORSDOF 1
ENDMDL
MODEL 9
REMARK VINA RESULT:      -5.6      1.690      2.613
REMARK  Name = *****
REMARK                            x       y       z     vdW  Elec       q    Type
REMARK                         _______ _______ _______ _____ _____    ______ ____
ROOT
ATOM      1  C   LIG    1       24.505 -21.476   6.438  0.00  0.00    +0.052 C 
ATOM      2  C   LIG    1       25.373 -20.751   5.411  0.00  0.00    +0.021 C 
ATOM      3  C   LIG    1       23.065 -21.573   5.964  0.00  0.00    +0.226 C 
ATOM      4  O   LIG    1       22.420 -20.693   5.416  0.00  0.00    -0.275 OA
ATOM      5  N   LIG    1       22.591 -22.806   6.266  0.00  0.00    -0.256 N 
ATOM      6  H   LIG    1       21.650 -23.099   6.052  0.00  0.00    +0.158 HD
ATOM      7  C   LIG    1       23.579 -23.691   6.535  0.00  0.00    +0.220 C 
ATOM      8  O   LIG    1       23.433 -24.895   6.667  0.00  0.00    -0.275 OA
ATOM      9  C   LIG    1       24.895 -22.966   6.546  0.00  0.00    +0.112 C 
ENDROOT
BRANCH   1  11
ATOM     10  C   LIG    1       25.945 -20.721   8.458  0.00  0.00    +0.005 C 
ATOM     11  C   LIG    1       24.556 -20.823   7.839  0.00  0.00    +0.013 C 
ENDBRANCH   1  11
TORSDOF 1
ENDMDL
