MODEL 1
REMARK VINA RESULT:      -7.0      0.000      0.000
REMARK  Name = *****
REMARK                            x       y       z     vdW  Elec       q    Type
REMARK                         _______ _______ _______ _____ _____    ______ ____
ROOT
ATOM      1  C   LIG    1       25.900 -26.475   6.441  0.00  0.00    +0.169 C 
ATOM      2  C   LIG    1       26.074 -27.762   7.379  0.00  0.00    +0.175 C 
ATOM      3  C   LIG    1       25.170 -29.060   7.218  0.00  0.00    +0.169 C 
ATOM      4  C   LIG    1       24.670 -29.185   5.746  0.00  0.00    +0.084 C 
ATOM      5  C   LIG    1       24.559 -27.956   4.872  0.00  0.00    +0.042 C 
ATOM      6  C   LIG    1       25.735 -27.045   4.994  0.00  0.00    +0.084 C 
ENDROOT
BRANCH   4   7
ATOM      7  N   LIG    1       23.306 -29.626   5.597  0.00  0.00    -0.325 NA
ATOM      8  H   LIG    1       22.858 -29.681   6.520  0.00  0.00    +0.118 HD
ATOM      9  H   LIG    1       22.823 -28.897   5.077  0.00  0.00    +0.118 HD
ENDBRANCH   4   7
BRANCH   6  10
ATOM     10  N   LIG    1       25.827 -26.098   3.880  0.00  0.00    -0.325 NA
ATOM     11  H   LIG    1       26.498 -25.394   3.964  0.00  0.00    +0.118 HD
ATOM     12  H   LIG    1       24.888 -25.675   3.671  0.00  0.00    +0.118 HD
ENDBRANCH   6  10
BRANCH   2  13
ATOM     13  O   LIG    1       26.434 -27.466   8.724  0.00  0.00    -0.387 OA
ATOM     14  H   LIG    1       27.339 -27.802   8.859  0.00  0.00    +0.210 HD
ENDBRANCH   2  13
BRANCH   1  15
ATOM     15  O   LIG    1       24.910 -25.487   6.870  0.00  0.00    -0.342 OA
BRANCH  15  18
ATOM     16  C   LIG    1       26.224 -22.114   7.107  0.00  0.00    +0.138 C 
ATOM     17  O   LIG    1       26.310 -23.464   6.602  0.00  0.00    -0.345 OA
ATOM     18  C   LIG    1       25.073 -24.141   6.289  0.00  0.00    +0.268 C 
ATOM     19  C   LIG    1       23.792 -23.279   6.557  0.00  0.00    +0.107 C 
ATOM     20  C   LIG    1       23.825 -22.540   7.879  0.00  0.00    +0.026 C 
ATOM     21  C   LIG    1       25.219 -22.090   8.257  0.00  0.00    +0.035 C 
BRANCH  19  22
ATOM     22  N   LIG    1       22.492 -23.936   6.543  0.00  0.00    -0.323 NA
ATOM     23  H   LIG    1       21.880 -23.507   7.240  0.00  0.00    +0.119 HD
ATOM     24  H   LIG    1       22.118 -23.748   5.621  0.00  0.00    +0.119 HD
ENDBRANCH  19  22
BRANCH  16  25
ATOM     25  C   LIG    1       26.174 -20.878   6.076  0.00  0.00    +0.079 C 
ATOM     26  C   LIG    1       27.544 -20.183   5.979  0.00  0.00    +0.026 C 
BRANCH  25  28
ATOM     27  C   LIG    1       24.477 -20.344   4.353  0.00  0.00    +0.101 C 
ATOM     28  N   LIG    1       25.660 -21.132   4.716  0.00  0.00    -0.314 NA
ATOM     29  H   LIG    1       26.385 -20.929   4.034  0.00  0.00    +0.122 HD
ENDBRANCH  25  28
ENDBRANCH  16  25
ENDBRANCH  15  18
ENDBRANCH   1  15
BRANCH   3  30
ATOM     30  O   LIG    1       24.126 -29.351   8.211  0.00  0.00    -0.341 OA
BRANCH  30  31
ATOM     31  C   LIG    1       24.027 -30.760   8.640  0.00  0.00    +0.281 C 
ATOM     32  C   LIG    1       23.210 -31.048   9.945  0.00  0.00    +0.190 C 
ATOM     33  C   LIG    1       23.978 -30.754  11.313  0.00  0.00    +0.121 C 
ATOM     34  C   LIG    1       25.477 -31.138  11.174  0.00  0.00    +0.104 C 
ATOM     35  C   LIG    1       26.439 -29.952  10.954  0.00  0.00    +0.045 C 
ATOM     36  C   LIG    1       25.621 -32.073   9.965  0.00  0.00    +0.199 C 
ATOM     37  O   LIG    1       25.340 -31.378   8.735  0.00  0.00    -0.346 OA
BRANCH  33  38
ATOM     38  N   LIG    1       23.791 -29.457  11.997  0.00  0.00    -0.311 NA
ATOM     39  H   LIG    1       24.691 -29.028  12.207  0.00  0.00    +0.122 HD
ATOM     40  C   LIG    1       23.040 -29.431  13.239  0.00  0.00    +0.101 C 
ENDBRANCH  33  38
BRANCH  32  41
ATOM     41  O   LIG    1       21.854 -30.593   9.943  0.00  0.00    -0.385 OA
ATOM     42  H   LIG    1       21.271 -31.371   9.956  0.00  0.00    +0.210 HD
ENDBRANCH  32  41
BRANCH  34  43
ATOM     43  O   LIG    1       25.887 -31.843  12.357  0.00  0.00    -0.385 OA
ATOM     44  H   LIG    1       25.089 -32.051  12.877  0.00  0.00    +0.210 HD
ENDBRANCH  34  43
ENDBRANCH  30  31
ENDBRANCH   3  30
TORSDOF 13
ENDMDL
MODEL 2
REMARK VINA RESULT:      -7.0      0.998      1.179
REMARK  Name = *****
REMARK                            x       y       z     vdW  Elec       q    Type
REMARK                         _______ _______ _______ _____ _____    ______ ____
ROOT
ATOM      1  C   LIG    1       26.160 -26.804   6.504  0.00  0.00    +0.169 C 
ATOM      2  C   LIG    1       26.156 -28.047   7.514  0.00  0.00    +0.175 C 
ATOM      3  C   LIG    1       25.138 -29.259   7.368  0.00  0.00    +0.169 C 
ATOM      4  C   LIG    1       24.706 -29.418   5.878  0.00  0.00    +0.084 C 
ATOM      5  C   LIG    1       24.763 -28.234   4.938  0.00  0.00    +0.042 C 
ATOM      6  C   LIG    1       26.014 -27.435   5.080  0.00  0.00    +0.084 C 
ENDROOT
BRANCH   4   7
ATOM      7  N   LIG    1       23.315 -29.733   5.673  0.00  0.00    -0.325 NA
ATOM      8  H   LIG    1       22.737 -29.190   6.327  0.00  0.00    +0.118 HD
ATOM      9  H   LIG    1       23.081 -29.412   4.736  0.00  0.00    +0.118 HD
ENDBRANCH   4   7
BRANCH   6  10
ATOM     10  N   LIG    1       26.258 -26.565   3.927  0.00  0.00    -0.325 NA
ATOM     11  H   LIG    1       25.692 -25.772   3.855  0.00  0.00    +0.118 HD
ATOM     12  H   LIG    1       26.222 -27.114   3.032  0.00  0.00    +0.118 HD
ENDBRANCH   6  10
BRANCH   2  13
ATOM     13  O   LIG    1       26.473 -27.713   8.861  0.00  0.00    -0.387 OA
ATOM     14  H   LIG    1       26.577 -26.744   8.900  0.00  0.00    +0.210 HD
ENDBRANCH   2  13
BRANCH   1  15
ATOM     15  O   LIG    1       25.252 -25.703   6.825  0.00  0.00    -0.342 OA
BRANCH  15  18
ATOM     16  C   LIG    1       25.480 -22.320   8.114  0.00  0.00    +0.138 C 
ATOM     17  O   LIG    1       25.986 -23.670   8.029  0.00  0.00    -0.345 OA
ATOM     18  C   LIG    1       25.850 -24.357   6.766  0.00  0.00    +0.268 C 
ATOM     19  C   LIG    1       25.153 -23.504   5.651  0.00  0.00    +0.107 C 
ATOM     20  C   LIG    1       23.923 -22.763   6.137  0.00  0.00    +0.026 C 
ATOM     21  C   LIG    1       24.053 -22.302   7.572  0.00  0.00    +0.035 C 
BRANCH  19  22
ATOM     22  N   LIG    1       24.715 -24.171   4.432  0.00  0.00    -0.323 NA
ATOM     23  H   LIG    1       23.832 -24.655   4.602  0.00  0.00    +0.119 HD
ATOM     24  H   LIG    1       24.553 -23.421   3.772  0.00  0.00    +0.119 HD
ENDBRANCH  19  22
BRANCH  16  25
ATOM     25  C   LIG    1       26.427 -21.086   7.700  0.00  0.00    +0.079 C 
ATOM     26  C   LIG    1       27.912 -21.488   7.745  0.00  0.00    +0.026 C 
BRANCH  25  28
ATOM     27  C   LIG    1       27.341 -20.044   5.647  0.00  0.00    +0.101 C 
ATOM     28  N   LIG    1       26.149 -20.396   6.424  0.00  0.00    -0.314 NA
ATOM     29  H   LIG    1       25.563 -20.986   5.839  0.00  0.00    +0.122 HD
ENDBRANCH  25  28
ENDBRANCH  16  25
ENDBRANCH  15  18
ENDBRANCH   1  15
BRANCH   3  30
ATOM     30  O   LIG    1       24.021 -29.393   8.313  0.00  0.00    -0.341 OA
BRANCH  30  31
ATOM     31  C   LIG    1       23.758 -30.760   8.802  0.00  0.00    +0.281 C 
ATOM     32  C   LIG    1       23.018 -30.891  10.177  0.00  0.00    +0.190 C 
ATOM     33  C   LIG    1       23.928 -30.673  11.469  0.00  0.00    +0.121 C 
ATOM     34  C   LIG    1       25.341 -31.274  11.230  0.00  0.00    +0.104 C 
ATOM     35  C   LIG    1       26.440 -30.245  10.892  0.00  0.00    +0.045 C 
ATOM     36  C   LIG    1       25.253 -32.252  10.052  0.00  0.00    +0.199 C 
ATOM     37  O   LIG    1       24.974 -31.558   8.821  0.00  0.00    -0.346 OA
BRANCH  33  38
ATOM     38  N   LIG    1       23.984 -29.344  12.115  0.00  0.00    -0.311 NA
ATOM     39  H   LIG    1       24.946 -29.084  12.320  0.00  0.00    +0.122 HD
ATOM     40  C   LIG    1       23.245 -29.142  13.347  0.00  0.00    +0.101 C 
ENDBRANCH  33  38
BRANCH  32  41
ATOM     41  O   LIG    1       21.744 -30.246  10.260  0.00  0.00    -0.385 OA
ATOM     42  H   LIG    1       21.133 -30.835  10.734  0.00  0.00    +0.210 HD
ENDBRANCH  32  41
BRANCH  34  43
ATOM     43  O   LIG    1       25.742 -31.997  12.406  0.00  0.00    -0.385 OA
ATOM     44  H   LIG    1       24.940 -32.357  12.828  0.00  0.00    +0.210 HD
ENDBRANCH  34  43
ENDBRANCH  30  31
ENDBRANCH   3  30
TORSDOF 13
ENDMDL
MODEL 3
REMARK VINA RESULT:      -6.7      1.242      1.602
REMARK  Name = *****
REMARK                            x       y       z     vdW  Elec       q    Type
REMARK                         _______ _______ _______ _____ _____    ______ ____
ROOT
ATOM      1  C   LIG    1       25.965 -26.574   6.455  0.00  0.00    +0.169 C 
ATOM      2  C   LIG    1       26.224 -27.844   7.396  0.00  0.00    +0.175 C 
ATOM      3  C   LIG    1       25.335 -29.159   7.314  0.00  0.00    +0.169 C 
ATOM      4  C   LIG    1       24.739 -29.314   5.881  0.00  0.00    +0.084 C 
ATOM      5  C   LIG    1       24.547 -28.100   5.001  0.00  0.00    +0.042 C 
ATOM      6  C   LIG    1       25.711 -27.167   5.030  0.00  0.00    +0.084 C 
ENDROOT
BRANCH   4   7
ATOM      7  N   LIG    1       23.376 -29.780   5.831  0.00  0.00    -0.325 NA
ATOM      8  H   LIG    1       22.882 -29.496   6.686  0.00  0.00    +0.118 HD
ATOM      9  H   LIG    1       22.932 -29.290   5.057  0.00  0.00    +0.118 HD
ENDBRANCH   4   7
BRANCH   6  10
ATOM     10  N   LIG    1       25.711 -26.235   3.900  0.00  0.00    -0.325 NA
ATOM     11  H   LIG    1       25.879 -26.621   3.019  0.00  0.00    +0.118 HD
ATOM     12  H   LIG    1       26.373 -25.438   4.074  0.00  0.00    +0.118 HD
ENDBRANCH   6  10
BRANCH   2  13
ATOM     13  O   LIG    1       26.669 -27.524   8.709  0.00  0.00    -0.387 OA
ATOM     14  H   LIG    1       27.535 -27.954   8.832  0.00  0.00    +0.210 HD
ENDBRANCH   2  13
BRANCH   1  15
ATOM     15  O   LIG    1       24.988 -25.597   6.937  0.00  0.00    -0.342 OA
BRANCH  15  18
ATOM     16  C   LIG    1       26.184 -22.177   7.136  0.00  0.00    +0.138 C 
ATOM     17  O   LIG    1       26.314 -23.529   6.642  0.00  0.00    -0.345 OA
ATOM     18  C   LIG    1       25.100 -24.252   6.344  0.00  0.00    +0.268 C 
ATOM     19  C   LIG    1       23.791 -23.433   6.612  0.00  0.00    +0.107 C 
ATOM     20  C   LIG    1       23.807 -22.681   7.927  0.00  0.00    +0.026 C 
ATOM     21  C   LIG    1       25.186 -22.178   8.291  0.00  0.00    +0.035 C 
BRANCH  19  22
ATOM     22  N   LIG    1       22.515 -24.135   6.612  0.00  0.00    -0.323 NA
ATOM     23  H   LIG    1       22.660 -25.115   6.863  0.00  0.00    +0.119 HD
ATOM     24  H   LIG    1       21.975 -23.689   7.343  0.00  0.00    +0.119 HD
ENDBRANCH  19  22
BRANCH  16  25
ATOM     25  C   LIG    1       26.084 -20.954   6.094  0.00  0.00    +0.079 C 
ATOM     26  C   LIG    1       27.442 -20.246   5.940  0.00  0.00    +0.026 C 
BRANCH  25  28
ATOM     27  C   LIG    1       25.231 -20.031   3.959  0.00  0.00    +0.101 C 
ATOM     28  N   LIG    1       25.523 -21.227   4.756  0.00  0.00    -0.314 NA
ATOM     29  H   LIG    1       26.174 -21.799   4.224  0.00  0.00    +0.122 HD
ENDBRANCH  25  28
ENDBRANCH  16  25
ENDBRANCH  15  18
ENDBRANCH   1  15
BRANCH   3  30
ATOM     30  O   LIG    1       24.366 -29.454   8.380  0.00  0.00    -0.341 OA
BRANCH  30  31
ATOM     31  C   LIG    1       24.618 -30.688   9.148  0.00  0.00    +0.281 C 
ATOM     32  C   LIG    1       23.408 -31.667   9.335  0.00  0.00    +0.190 C 
ATOM     33  C   LIG    1       22.361 -31.253  10.465  0.00  0.00    +0.121 C 
ATOM     34  C   LIG    1       23.106 -30.619  11.673  0.00  0.00    +0.104 C 
ATOM     35  C   LIG    1       23.042 -29.080  11.747  0.00  0.00    +0.045 C 
ATOM     36  C   LIG    1       24.587 -31.011  11.581  0.00  0.00    +0.199 C 
ATOM     37  O   LIG    1       25.216 -30.395  10.441  0.00  0.00    -0.346 OA
BRANCH  33  38
ATOM     38  N   LIG    1       21.141 -30.502  10.100  0.00  0.00    -0.311 NA
ATOM     39  H   LIG    1       21.170 -29.559  10.486  0.00  0.00    +0.122 HD
ATOM     40  C   LIG    1       19.852 -31.048  10.481  0.00  0.00    +0.101 C 
ENDBRANCH  33  38
BRANCH  32  41
ATOM     41  O   LIG    1       22.793 -32.131   8.130  0.00  0.00    -0.385 OA
ATOM     42  H   LIG    1       21.886 -31.782   8.096  0.00  0.00    +0.210 HD
ENDBRANCH  32  41
BRANCH  34  43
ATOM     43  O   LIG    1       22.559 -31.156  12.889  0.00  0.00    -0.385 OA
ATOM     44  H   LIG    1       23.293 -31.299  13.515  0.00  0.00    +0.210 HD
ENDBRANCH  34  43
ENDBRANCH  30  31
ENDBRANCH   3  30
TORSDOF 13
ENDMDL
MODEL 4
REMARK VINA RESULT:      -6.1      1.454      2.113
REMARK  Name = *****
REMARK                            x       y       z     vdW  Elec       q    Type
REMARK                         _______ _______ _______ _____ _____    ______ ____
ROOT
ATOM      1  C   LIG    1       25.996 -26.798   6.647  0.00  0.00    +0.169 C 
ATOM      2  C   LIG    1       26.004 -28.049   7.646  0.00  0.00    +0.175 C 
ATOM      3  C   LIG    1       25.037 -29.296   7.455  0.00  0.00    +0.169 C 
ATOM      4  C   LIG    1       24.662 -29.458   5.950  0.00  0.00    +0.084 C 
ATOM      5  C   LIG    1       24.707 -28.265   5.022  0.00  0.00    +0.042 C 
ATOM      6  C   LIG    1       25.922 -27.421   5.214  0.00  0.00    +0.084 C 
ENDROOT
BRANCH   4   7
ATOM      7  N   LIG    1       23.291 -29.822   5.695  0.00  0.00    -0.325 NA
ATOM      8  H   LIG    1       23.136 -29.898   4.682  0.00  0.00    +0.118 HD
ATOM      9  H   LIG    1       23.163 -30.754   6.084  0.00  0.00    +0.118 HD
ENDBRANCH   4   7
BRANCH   6  10
ATOM     10  N   LIG    1       26.172 -26.532   4.077  0.00  0.00    -0.325 NA
ATOM     11  H   LIG    1       26.611 -26.933   3.301  0.00  0.00    +0.118 HD
ATOM     12  H   LIG    1       26.697 -25.675   4.381  0.00  0.00    +0.118 HD
ENDBRANCH   6  10
BRANCH   2  13
ATOM     13  O   LIG    1       26.262 -27.715   9.006  0.00  0.00    -0.387 OA
ATOM     14  H   LIG    1       26.174 -26.748   9.086  0.00  0.00    +0.210 HD
ENDBRANCH   2  13
BRANCH   1  15
ATOM     15  O   LIG    1       25.037 -25.734   6.945  0.00  0.00    -0.342 OA
BRANCH  15  18
ATOM     16  C   LIG    1       26.459 -22.400   7.102  0.00  0.00    +0.138 C 
ATOM     17  O   LIG    1       26.540 -23.785   6.696  0.00  0.00    -0.345 OA
ATOM     18  C   LIG    1       25.315 -24.438   6.299  0.00  0.00    +0.268 C 
ATOM     19  C   LIG    1       24.050 -23.515   6.373  0.00  0.00    +0.107 C 
ATOM     20  C   LIG    1       23.978 -22.688   7.641  0.00  0.00    +0.026 C 
ATOM     21  C   LIG    1       25.343 -22.262   8.134  0.00  0.00    +0.035 C 
BRANCH  19  22
ATOM     22  N   LIG    1       22.732 -24.125   6.263  0.00  0.00    -0.323 NA
ATOM     23  H   LIG    1       22.040 -23.536   6.729  0.00  0.00    +0.119 HD
ATOM     24  H   LIG    1       22.535 -24.137   5.271  0.00  0.00    +0.119 HD
ENDBRANCH  19  22
BRANCH  16  25
ATOM     25  C   LIG    1       26.568 -21.237   5.994  0.00  0.00    +0.079 C 
ATOM     26  C   LIG    1       25.337 -20.314   6.038  0.00  0.00    +0.026 C 
BRANCH  25  28
ATOM     27  C   LIG    1       28.871 -20.897   6.841  0.00  0.00    +0.101 C 
ATOM     28  N   LIG    1       27.793 -20.414   5.972  0.00  0.00    -0.314 NA
ATOM     29  H   LIG    1       28.159 -20.370   5.025  0.00  0.00    +0.122 HD
ENDBRANCH  25  28
ENDBRANCH  16  25
ENDBRANCH  15  18
ENDBRANCH   1  15
BRANCH   3  30
ATOM     30  O   LIG    1       23.893 -29.479   8.360  0.00  0.00    -0.341 OA
BRANCH  30  31
ATOM     31  C   LIG    1       23.838 -30.775   9.066  0.00  0.00    +0.281 C 
ATOM     32  C   LIG    1       24.759 -30.936  10.324  0.00  0.00    +0.190 C 
ATOM     33  C   LIG    1       26.294 -31.243  10.014  0.00  0.00    +0.121 C 
ATOM     34  C   LIG    1       26.409 -32.179   8.779  0.00  0.00    +0.104 C 
ATOM     35  C   LIG    1       26.796 -31.477   7.460  0.00  0.00    +0.045 C 
ATOM     36  C   LIG    1       25.046 -32.848   8.557  0.00  0.00    +0.199 C 
ATOM     37  O   LIG    1       24.055 -31.885   8.153  0.00  0.00    -0.346 OA
BRANCH  33  38
ATOM     38  N   LIG    1       27.273 -30.136   9.974  0.00  0.00    -0.311 NA
ATOM     39  H   LIG    1       28.021 -30.341   9.314  0.00  0.00    +0.122 HD
ATOM     40  C   LIG    1       27.927 -29.745  11.209  0.00  0.00    +0.101 C 
ENDBRANCH  33  38
BRANCH  32  41
ATOM     41  O   LIG    1       24.569 -29.970  11.361  0.00  0.00    -0.385 OA
ATOM     42  H   LIG    1       25.441 -29.726  11.715  0.00  0.00    +0.210 HD
ENDBRANCH  32  41
BRANCH  34  43
ATOM     43  O   LIG    1       27.387 -33.196   9.057  0.00  0.00    -0.385 OA
ATOM     44  H   LIG    1       27.310 -33.441   9.997  0.00  0.00    +0.210 HD
ENDBRANCH  34  43
ENDBRANCH  30  31
ENDBRANCH   3  30
TORSDOF 13
ENDMDL
MODEL 5
REMARK VINA RESULT:      -5.9      1.718      2.759
REMARK  Name = *****
REMARK                            x       y       z     vdW  Elec       q    Type
REMARK                         _______ _______ _______ _____ _____    ______ ____
ROOT
ATOM      1  C   LIG    1       26.213 -27.064   6.726  0.00  0.00    +0.169 C 
ATOM      2  C   LIG    1       26.185 -28.291   7.755  0.00  0.00    +0.175 C 
ATOM      3  C   LIG    1       25.150 -29.490   7.621  0.00  0.00    +0.169 C 
ATOM      4  C   LIG    1       24.723 -29.666   6.131  0.00  0.00    +0.084 C 
ATOM      5  C   LIG    1       24.803 -28.498   5.174  0.00  0.00    +0.042 C 
ATOM      6  C   LIG    1       26.066 -27.715   5.311  0.00  0.00    +0.084 C 
ENDROOT
BRANCH   4   7
ATOM      7  N   LIG    1       23.328 -29.963   5.924  0.00  0.00    -0.325 NA
ATOM      8  H   LIG    1       23.210 -30.464   5.034  0.00  0.00    +0.118 HD
ATOM      9  H   LIG    1       23.057 -30.607   6.663  0.00  0.00    +0.118 HD
ENDBRANCH   4   7
BRANCH   6  10
ATOM     10  N   LIG    1       26.328 -26.867   4.147  0.00  0.00    -0.325 NA
ATOM     11  H   LIG    1       27.213 -26.947   3.742  0.00  0.00    +0.118 HD
ATOM     12  H   LIG    1       26.125 -25.859   4.365  0.00  0.00    +0.118 HD
ENDBRANCH   6  10
BRANCH   2  13
ATOM     13  O   LIG    1       26.500 -27.941   9.098  0.00  0.00    -0.387 OA
ATOM     14  H   LIG    1       25.946 -27.175   9.333  0.00  0.00    +0.210 HD
ENDBRANCH   2  13
BRANCH   1  15
ATOM     15  O   LIG    1       25.320 -25.945   7.025  0.00  0.00    -0.342 OA
BRANCH  15  18
ATOM     16  C   LIG    1       25.587 -22.434   7.900  0.00  0.00    +0.138 C 
ATOM     17  O   LIG    1       26.115 -23.779   7.918  0.00  0.00    -0.345 OA
ATOM     18  C   LIG    1       25.878 -24.607   6.759  0.00  0.00    +0.268 C 
ATOM     19  C   LIG    1       25.060 -23.895   5.627  0.00  0.00    +0.107 C 
ATOM     20  C   LIG    1       23.864 -23.120   6.142  0.00  0.00    +0.026 C 
ATOM     21  C   LIG    1       24.116 -22.497   7.498  0.00  0.00    +0.035 C 
BRANCH  19  22
ATOM     22  N   LIG    1       24.526 -24.702   4.538  0.00  0.00    -0.323 NA
ATOM     23  H   LIG    1       24.206 -24.093   3.782  0.00  0.00    +0.119 HD
ATOM     24  H   LIG    1       25.314 -25.244   4.209  0.00  0.00    +0.119 HD
ENDBRANCH  19  22
BRANCH  16  25
ATOM     25  C   LIG    1       26.462 -21.243   7.261  0.00  0.00    +0.079 C 
ATOM     26  C   LIG    1       25.610 -20.376   6.316  0.00  0.00    +0.026 C 
BRANCH  25  28
ATOM     27  C   LIG    1       28.577 -20.048   7.744  0.00  0.00    +0.101 C 
ATOM     28  N   LIG    1       27.214 -20.366   8.180  0.00  0.00    -0.314 NA
ATOM     29  H   LIG    1       26.716 -19.487   8.297  0.00  0.00    +0.122 HD
ENDBRANCH  25  28
ENDBRANCH  16  25
ENDBRANCH  15  18
ENDBRANCH   1  15
BRANCH   3  30
ATOM     30  O   LIG    1       24.025 -29.593   8.562  0.00  0.00    -0.341 OA
BRANCH  30  31
ATOM     31  C   LIG    1       24.372 -30.042   9.925  0.00  0.00    +0.281 C 
ATOM     32  C   LIG    1       24.523 -31.586  10.145  0.00  0.00    +0.190 C 
ATOM     33  C   LIG    1       23.156 -32.394  10.296  0.00  0.00    +0.121 C 
ATOM     34  C   LIG    1       22.121 -31.544  11.085  0.00  0.00    +0.104 C 
ATOM     35  C   LIG    1       21.044 -30.857  10.220  0.00  0.00    +0.045 C 
ATOM     36  C   LIG    1       22.880 -30.439  11.832  0.00  0.00    +0.199 C 
ATOM     37  O   LIG    1       23.457 -29.492  10.912  0.00  0.00    -0.346 OA
BRANCH  33  38
ATOM     38  N   LIG    1       22.558 -33.056   9.118  0.00  0.00    -0.311 NA
ATOM     39  H   LIG    1       22.493 -34.062   9.264  0.00  0.00    +0.122 HD
ATOM     40  C   LIG    1       23.199 -32.883   7.827  0.00  0.00    +0.101 C 
ENDBRANCH  33  38
BRANCH  32  41
ATOM     41  O   LIG    1       25.484 -32.241   9.312  0.00  0.00    -0.385 OA
ATOM     42  H   LIG    1       25.624 -33.139   9.655  0.00  0.00    +0.210 HD
ENDBRANCH  32  41
BRANCH  34  43
ATOM     43  O   LIG    1       21.463 -32.387  12.045  0.00  0.00    -0.385 OA
ATOM     44  H   LIG    1       21.656 -33.315  11.815  0.00  0.00    +0.210 HD
ENDBRANCH  34  43
ENDBRANCH  30  31
ENDBRANCH   3  30
TORSDOF 13
ENDMDL
MODEL 6
REMARK VINA RESULT:      -5.5      3.769      9.769
REMARK  Name = *****
REMARK                            x       y       z     vdW  Elec       q    Type
REMARK                         _______ _______ _______ _____ _____    ______ ____
ROOT
ATOM      1  C   LIG    1       25.545 -22.065   6.703  0.00  0.00    +0.169 C 
ATOM      2  C   LIG    1       26.262 -21.105   7.766  0.00  0.00    +0.175 C 
ATOM      3  C   LIG    1       27.289 -19.972   7.331  0.00  0.00    +0.169 C 
ATOM      4  C   LIG    1       26.974 -19.492   5.881  0.00  0.00    +0.084 C 
ATOM      5  C   LIG    1       26.257 -20.408   4.915  0.00  0.00    +0.042 C 
ATOM      6  C   LIG    1       25.104 -21.123   5.535  0.00  0.00    +0.084 C 
ENDROOT
BRANCH   4   7
ATOM      7  N   LIG    1       28.128 -19.241   5.054  0.00  0.00    -0.325 NA
ATOM      8  H   LIG    1       28.002 -19.691   4.139  0.00  0.00    +0.118 HD
ATOM      9  H   LIG    1       28.152 -18.237   4.889  0.00  0.00    +0.118 HD
ENDBRANCH   4   7
BRANCH   6  10
ATOM     10  N   LIG    1       24.182 -21.670   4.537  0.00  0.00    -0.325 NA
ATOM     11  H   LIG    1       23.749 -21.024   3.946  0.00  0.00    +0.118 HD
ATOM     12  H   LIG    1       23.457 -22.280   4.993  0.00  0.00    +0.118 HD
ENDBRANCH   6  10
BRANCH   2  13
ATOM     13  O   LIG    1       26.574 -21.729   9.007  0.00  0.00    -0.387 OA
ATOM     14  H   LIG    1       25.884 -22.396   9.174  0.00  0.00    +0.210 HD
ENDBRANCH   2  13
BRANCH   1  15
ATOM     15  O   LIG    1       26.275 -23.275   6.324  0.00  0.00    -0.342 OA
BRANCH  15  18
ATOM     16  C   LIG    1       26.093 -26.898   6.393  0.00  0.00    +0.138 C 
ATOM     17  O   LIG    1       26.691 -25.660   6.837  0.00  0.00    -0.345 OA
ATOM     18  C   LIG    1       25.824 -24.514   6.985  0.00  0.00    +0.268 C 
ATOM     19  C   LIG    1       24.325 -24.801   6.629  0.00  0.00    +0.107 C 
ATOM     20  C   LIG    1       24.149 -25.603   5.355  0.00  0.00    +0.026 C 
ATOM     21  C   LIG    1       25.256 -26.613   5.148  0.00  0.00    +0.035 C 
BRANCH  19  22
ATOM     22  N   LIG    1       23.415 -23.674   6.475  0.00  0.00    -0.323 NA
ATOM     23  H   LIG    1       23.826 -22.839   6.897  0.00  0.00    +0.119 HD
ATOM     24  H   LIG    1       23.346 -23.533   5.475  0.00  0.00    +0.119 HD
ENDBRANCH  19  22
BRANCH  16  25
ATOM     25  C   LIG    1       25.461 -27.910   7.473  0.00  0.00    +0.079 C 
ATOM     26  C   LIG    1       24.625 -29.004   6.784  0.00  0.00    +0.026 C 
BRANCH  25  28
ATOM     27  C   LIG    1       25.797 -29.671   9.183  0.00  0.00    +0.101 C 
ATOM     28  N   LIG    1       26.372 -28.538   8.450  0.00  0.00    -0.314 NA
ATOM     29  H   LIG    1       27.206 -28.872   7.974  0.00  0.00    +0.122 HD
ENDBRANCH  25  28
ENDBRANCH  16  25
ENDBRANCH  15  18
ENDBRANCH   1  15
BRANCH   3  30
ATOM     30  O   LIG    1       28.726 -20.152   7.583  0.00  0.00    -0.341 OA
BRANCH  30  31
ATOM     31  C   LIG    1       29.568 -18.961   7.358  0.00  0.00    +0.281 C 
ATOM     32  C   LIG    1       31.118 -19.186   7.325  0.00  0.00    +0.190 C 
ATOM     33  C   LIG    1       31.820 -19.332   8.750  0.00  0.00    +0.121 C 
ATOM     34  C   LIG    1       31.143 -18.378   9.775  0.00  0.00    +0.104 C 
ATOM     35  C   LIG    1       30.153 -19.056  10.744  0.00  0.00    +0.045 C 
ATOM     36  C   LIG    1       30.361 -17.314   8.994  0.00  0.00    +0.199 C 
ATOM     37  O   LIG    1       29.245 -17.898   8.296  0.00  0.00    -0.346 OA
BRANCH  33  38
ATOM     38  N   LIG    1       32.071 -20.675   9.314  0.00  0.00    -0.311 NA
ATOM     39  H   LIG    1       33.012 -20.991   9.087  0.00  0.00    +0.122 HD
ATOM     40  C   LIG    1       31.185 -21.761   8.935  0.00  0.00    +0.101 C 
ENDBRANCH  33  38
BRANCH  32  41
ATOM     41  O   LIG    1       31.589 -20.129   6.358  0.00  0.00    -0.385 OA
ATOM     42  H   LIG    1       32.441 -19.812   6.012  0.00  0.00    +0.210 HD
ENDBRANCH  32  41
BRANCH  34  43
ATOM     43  O   LIG    1       32.166 -17.729  10.549  0.00  0.00    -0.385 OA
ATOM     44  H   LIG    1       32.646 -18.413  11.051  0.00  0.00    +0.210 HD
ENDBRANCH  34  43
ENDBRANCH  30  31
ENDBRANCH   3  30
TORSDOF 13
ENDMDL
MODEL 7
REMARK VINA RESULT:      -5.5      2.192      3.149
REMARK  Name = *****
REMARK                            x       y       z     vdW  Elec       q    Type
REMARK                         _______ _______ _______ _____ _____    ______ ____
ROOT
ATOM      1  C   LIG    1       25.742 -28.202   6.954  0.00  0.00    +0.169 C 
ATOM      2  C   LIG    1       26.255 -28.863   8.319  0.00  0.00    +0.175 C 
ATOM      3  C   LIG    1       25.347 -29.838   9.186  0.00  0.00    +0.169 C 
ATOM      4  C   LIG    1       24.309 -30.558   8.271  0.00  0.00    +0.084 C 
ATOM      5  C   LIG    1       23.877 -29.927   6.966  0.00  0.00    +0.042 C 
ATOM      6  C   LIG    1       25.016 -29.357   6.188  0.00  0.00    +0.084 C 
ENDROOT
BRANCH   4   7
ATOM      7  N   LIG    1       22.991 -30.704   8.835  0.00  0.00    -0.325 NA
ATOM      8  H   LIG    1       22.723 -31.697   8.837  0.00  0.00    +0.118 HD
ATOM      9  H   LIG    1       23.060 -30.415   9.809  0.00  0.00    +0.118 HD
ENDBRANCH   4   7
BRANCH   6  10
ATOM     10  N   LIG    1       24.674 -29.127   4.783  0.00  0.00    -0.325 NA
ATOM     11  H   LIG    1       23.770 -28.804   4.603  0.00  0.00    +0.118 HD
ATOM     12  H   LIG    1       24.869 -29.983   4.206  0.00  0.00    +0.118 HD
ENDBRANCH   6  10
BRANCH   2  13
ATOM     13  O   LIG    1       27.116 -28.032   9.089  0.00  0.00    -0.387 OA
ATOM     14  H   LIG    1       27.266 -27.218   8.574  0.00  0.00    +0.210 HD
ENDBRANCH   2  13
BRANCH   1  15
ATOM     15  O   LIG    1       25.009 -26.942   7.077  0.00  0.00    -0.342 OA
BRANCH  15  18
ATOM     16  C   LIG    1       25.359 -23.338   7.308  0.00  0.00    +0.138 C 
ATOM     17  O   LIG    1       25.629 -24.663   7.817  0.00  0.00    -0.345 OA
ATOM     18  C   LIG    1       25.811 -25.724   6.854  0.00  0.00    +0.268 C 
ATOM     19  C   LIG    1       25.682 -25.258   5.363  0.00  0.00    +0.107 C 
ATOM     20  C   LIG    1       24.505 -24.337   5.117  0.00  0.00    +0.026 C 
ATOM     21  C   LIG    1       24.222 -23.430   6.295  0.00  0.00    +0.035 C 
BRANCH  19  22
ATOM     22  N   LIG    1       25.573 -26.271   4.322  0.00  0.00    -0.323 NA
ATOM     23  H   LIG    1       25.630 -27.202   4.738  0.00  0.00    +0.119 HD
ATOM     24  H   LIG    1       24.647 -26.144   3.935  0.00  0.00    +0.119 HD
ENDBRANCH  19  22
BRANCH  16  25
ATOM     25  C   LIG    1       26.584 -22.363   6.935  0.00  0.00    +0.079 C 
ATOM     26  C   LIG    1       26.087 -21.110   6.191  0.00  0.00    +0.026 C 
BRANCH  25  28
ATOM     27  C   LIG    1       28.650 -21.158   7.580  0.00  0.00    +0.101 C 
ATOM     28  N   LIG    1       27.500 -21.953   8.019  0.00  0.00    -0.314 NA
ATOM     29  H   LIG    1       26.990 -21.404   8.706  0.00  0.00    +0.122 HD
ENDBRANCH  25  28
ENDBRANCH  16  25
ENDBRANCH  15  18
ENDBRANCH   1  15
BRANCH   3  30
ATOM     30  O   LIG    1       24.773 -29.367  10.454  0.00  0.00    -0.341 OA
BRANCH  30  31
ATOM     31  C   LIG    1       25.321 -29.991  11.675  0.00  0.00    +0.281 C 
ATOM     32  C   LIG    1       24.592 -29.670  13.024  0.00  0.00    +0.190 C 
ATOM     33  C   LIG    1       24.939 -28.253  13.670  0.00  0.00    +0.121 C 
ATOM     34  C   LIG    1       26.440 -27.919  13.441  0.00  0.00    +0.104 C 
ATOM     35  C   LIG    1       26.720 -26.914  12.304  0.00  0.00    +0.045 C 
ATOM     36  C   LIG    1       27.172 -29.222  13.089  0.00  0.00    +0.199 C 
ATOM     37  O   LIG    1       26.744 -29.728  11.810  0.00  0.00    -0.346 OA
BRANCH  33  38
ATOM     38  N   LIG    1       24.060 -27.092  13.417  0.00  0.00    -0.311 NA
ATOM     39  H   LIG    1       24.577 -26.342  12.961  0.00  0.00    +0.122 HD
ATOM     40  C   LIG    1       23.380 -26.480  14.543  0.00  0.00    +0.101 C 
ENDBRANCH  33  38
BRANCH  32  41
ATOM     41  O   LIG    1       23.198 -29.991  13.069  0.00  0.00    -0.385 OA
ATOM     42  H   LIG    1       22.711 -29.196  13.344  0.00  0.00    +0.210 HD
ENDBRANCH  32  41
BRANCH  34  43
ATOM     43  O   LIG    1       26.989 -27.392  14.660  0.00  0.00    -0.385 OA
ATOM     44  H   LIG    1       27.458 -28.114  15.118  0.00  0.00    +0.210 HD
ENDBRANCH  34  43
ENDBRANCH  30  31
ENDBRANCH   3  30
TORSDOF 13
ENDMDL
MODEL 8
REMARK VINA RESULT:      -5.5      5.314      7.928
REMARK  Name = *****
REMARK                            x       y       z     vdW  Elec       q    Type
REMARK                         _______ _______ _______ _____ _____    ______ ____
ROOT
ATOM      1  C   LIG    1       25.597 -29.469  12.613  0.00  0.00    +0.169 C 
ATOM      2  C   LIG    1       25.280 -30.645  11.574  0.00  0.00    +0.175 C 
ATOM      3  C   LIG    1       25.732 -30.580  10.051  0.00  0.00    +0.169 C 
ATOM      4  C   LIG    1       27.001 -29.686   9.906  0.00  0.00    +0.084 C 
ATOM      5  C   LIG    1       27.296 -28.612  10.929  0.00  0.00    +0.042 C 
ATOM      6  C   LIG    1       27.084 -29.068  12.334  0.00  0.00    +0.084 C 
ENDROOT
BRANCH   4   7
ATOM      7  N   LIG    1       27.019 -28.829   8.748  0.00  0.00    -0.325 NA
ATOM      8  H   LIG    1       26.623 -27.912   8.989  0.00  0.00    +0.118 HD
ATOM      9  H   LIG    1       27.999 -28.676   8.517  0.00  0.00    +0.118 HD
ENDBRANCH   4   7
BRANCH   6  10
ATOM     10  N   LIG    1       27.745 -28.200  13.311  0.00  0.00    -0.325 NA
ATOM     11  H   LIG    1       27.365 -28.191  14.210  0.00  0.00    +0.118 HD
ATOM     12  H   LIG    1       27.822 -27.218  12.945  0.00  0.00    +0.118 HD
ENDBRANCH   6  10
BRANCH   2  13
ATOM     13  O   LIG    1       24.031 -31.295  11.783  0.00  0.00    -0.387 OA
ATOM     14  H   LIG    1       23.375 -30.601  11.977  0.00  0.00    +0.210 HD
ENDBRANCH   2  13
BRANCH   1  15
ATOM     15  O   LIG    1       24.628 -28.375  12.671  0.00  0.00    -0.342 OA
BRANCH  15  18
ATOM     16  C   LIG    1       21.021 -28.020  12.825  0.00  0.00    +0.138 C 
ATOM     17  O   LIG    1       22.196 -28.767  12.439  0.00  0.00    -0.345 OA
ATOM     18  C   LIG    1       23.343 -28.708  13.314  0.00  0.00    +0.268 C 
ATOM     19  C   LIG    1       23.127 -27.815  14.584  0.00  0.00    +0.107 C 
ATOM     20  C   LIG    1       22.454 -26.491  14.286  0.00  0.00    +0.026 C 
ATOM     21  C   LIG    1       21.443 -26.594  13.166  0.00  0.00    +0.035 C 
BRANCH  19  22
ATOM     22  N   LIG    1       24.286 -27.458  15.392  0.00  0.00    -0.323 NA
ATOM     23  H   LIG    1       24.181 -27.842  16.334  0.00  0.00    +0.119 HD
ATOM     24  H   LIG    1       25.067 -27.916  14.940  0.00  0.00    +0.119 HD
ENDBRANCH  19  22
BRANCH  16  25
ATOM     25  C   LIG    1       19.926 -28.701  13.789  0.00  0.00    +0.079 C 
ATOM     26  C   LIG    1       19.009 -27.638  14.422  0.00  0.00    +0.026 C 
BRANCH  25  28
ATOM     27  C   LIG    1       17.880 -30.081  14.000  0.00  0.00    +0.101 C 
ATOM     28  N   LIG    1       19.096 -29.790  13.235  0.00  0.00    -0.314 NA
ATOM     29  H   LIG    1       18.815 -29.556  12.287  0.00  0.00    +0.122 HD
ENDBRANCH  25  28
ENDBRANCH  16  25
ENDBRANCH  15  18
ENDBRANCH   1  15
BRANCH   3  30
ATOM     30  O   LIG    1       24.731 -30.340   9.001  0.00  0.00    -0.341 OA
BRANCH  30  31
ATOM     31  C   LIG    1       24.072 -31.545   8.459  0.00  0.00    +0.281 C 
ATOM     32  C   LIG    1       24.977 -32.803   8.226  0.00  0.00    +0.190 C 
ATOM     33  C   LIG    1       25.866 -32.772   6.902  0.00  0.00    +0.121 C 
ATOM     34  C   LIG    1       25.075 -32.097   5.747  0.00  0.00    +0.104 C 
ATOM     35  C   LIG    1       25.469 -30.635   5.452  0.00  0.00    +0.045 C 
ATOM     36  C   LIG    1       23.586 -32.102   6.120  0.00  0.00    +0.199 C 
ATOM     37  O   LIG    1       23.330 -31.242   7.246  0.00  0.00    -0.346 OA
BRANCH  33  38
ATOM     38  N   LIG    1       27.269 -32.310   6.967  0.00  0.00    -0.311 NA
ATOM     39  H   LIG    1       27.384 -31.436   6.458  0.00  0.00    +0.122 HD
ATOM     40  C   LIG    1       28.312 -33.194   6.481  0.00  0.00    +0.101 C 
ENDBRANCH  33  38
BRANCH  32  41
ATOM     41  O   LIG    1       25.681 -33.283   9.375  0.00  0.00    -0.385 OA
ATOM     42  H   LIG    1       25.177 -33.033  10.168  0.00  0.00    +0.210 HD
ENDBRANCH  32  41
BRANCH  34  43
ATOM     43  O   LIG    1       25.256 -32.868   4.548  0.00  0.00    -0.385 OA
ATOM     44  H   LIG    1       24.450 -33.397   4.403  0.00  0.00    +0.210 HD
ENDBRANCH  34  43
ENDBRANCH  30  31
ENDBRANCH   3  30
TORSDOF 13
ENDMDL
MODEL 9
REMARK VINA RESULT:      -5.4      2.059      8.513
REMARK  Name = *****
REMARK                            x       y       z     vdW  Elec       q    Type
REMARK                         _______ _______ _______ _____ _____    ______ ____
ROOT
ATOM      1  C   LIG    1       24.081 -27.923   6.191  0.00  0.00    +0.169 C 
ATOM      2  C   LIG    1       24.183 -26.422   5.644  0.00  0.00    +0.175 C 
ATOM      3  C   LIG    1       25.558 -25.782   5.167  0.00  0.00    +0.169 C 
ATOM      4  C   LIG    1       26.524 -26.899   4.666  0.00  0.00    +0.084 C 
ATOM      5  C   LIG    1       26.374 -28.317   5.170  0.00  0.00    +0.042 C 
ATOM      6  C   LIG    1       24.954 -28.775   5.211  0.00  0.00    +0.084 C 
ENDROOT
BRANCH   4   7
ATOM      7  N   LIG    1       27.905 -26.729   5.042  0.00  0.00    -0.325 NA
ATOM      8  H   LIG    1       28.501 -26.795   4.207  0.00  0.00    +0.118 HD
ATOM      9  H   LIG    1       27.994 -25.779   5.393  0.00  0.00    +0.118 HD
ENDBRANCH   4   7
BRANCH   6  10
ATOM     10  N   LIG    1       24.838 -30.232   5.295  0.00  0.00    -0.325 NA
ATOM     11  H   LIG    1       25.112 -30.642   6.138  0.00  0.00    +0.118 HD
ATOM     12  H   LIG    1       25.338 -30.693   4.494  0.00  0.00    +0.118 HD
ENDBRANCH   6  10
BRANCH   2  13
ATOM     13  O   LIG    1       23.303 -25.502   6.279  0.00  0.00    -0.387 OA
ATOM     14  H   LIG    1       22.530 -25.394   5.695  0.00  0.00    +0.210 HD
ENDBRANCH   2  13
BRANCH   1  15
ATOM     15  O   LIG    1       24.333 -28.113   7.620  0.00  0.00    -0.342 OA
BRANCH  15  18
ATOM     16  C   LIG    1       23.471 -30.967   9.686  0.00  0.00    +0.138 C 
ATOM     17  O   LIG    1       23.421 -30.268   8.423  0.00  0.00    -0.345 OA
ATOM     18  C   LIG    1       24.584 -29.505   8.034  0.00  0.00    +0.268 C 
ATOM     19  C   LIG    1       25.754 -29.556   9.076  0.00  0.00    +0.107 C 
ATOM     20  C   LIG    1       25.295 -29.379  10.510  0.00  0.00    +0.026 C 
ATOM     21  C   LIG    1       23.934 -29.990  10.763  0.00  0.00    +0.035 C 
BRANCH  19  22
ATOM     22  N   LIG    1       26.860 -28.618   8.932  0.00  0.00    -0.323 NA
ATOM     23  H   LIG    1       26.498 -27.665   8.874  0.00  0.00    +0.119 HD
ATOM     24  H   LIG    1       27.391 -28.713   9.788  0.00  0.00    +0.119 HD
ENDBRANCH  19  22
BRANCH  16  25
ATOM     25  C   LIG    1       24.079 -32.456   9.749  0.00  0.00    +0.079 C 
ATOM     26  C   LIG    1       23.335 -33.315  10.789  0.00  0.00    +0.026 C 
BRANCH  25  28
ATOM     27  C   LIG    1       25.513 -33.143   7.850  0.00  0.00    +0.101 C 
ATOM     28  N   LIG    1       24.194 -33.213   8.487  0.00  0.00    -0.314 NA
ATOM     29  H   LIG    1       23.986 -34.193   8.656  0.00  0.00    +0.122 HD
ENDBRANCH  25  28
ENDBRANCH  16  25
ENDBRANCH  15  18
ENDBRANCH   1  15
BRANCH   3  30
ATOM     30  O   LIG    1       26.223 -24.772   6.004  0.00  0.00    -0.341 OA
BRANCH  30  31
ATOM     31  C   LIG    1       25.353 -24.063   6.962  0.00  0.00    +0.281 C 
ATOM     32  C   LIG    1       24.619 -22.782   6.439  0.00  0.00    +0.190 C 
ATOM     33  C   LIG    1       25.510 -21.461   6.370  0.00  0.00    +0.121 C 
ATOM     34  C   LIG    1       26.490 -21.418   7.576  0.00  0.00    +0.104 C 
ATOM     35  C   LIG    1       27.944 -21.821   7.253  0.00  0.00    +0.045 C 
ATOM     36  C   LIG    1       25.974 -22.390   8.646  0.00  0.00    +0.199 C 
ATOM     37  O   LIG    1       26.063 -23.755   8.194  0.00  0.00    -0.346 OA
BRANCH  33  38
ATOM     38  N   LIG    1       26.165 -21.080   5.101  0.00  0.00    -0.311 NA
ATOM     39  H   LIG    1       27.126 -20.785   5.266  0.00  0.00    +0.122 HD
ATOM     40  C   LIG    1       25.561 -20.033   4.298  0.00  0.00    +0.101 C 
ENDBRANCH  33  38
BRANCH  32  41
ATOM     41  O   LIG    1       23.786 -22.969   5.291  0.00  0.00    -0.385 OA
ATOM     42  H   LIG    1       23.305 -22.140   5.125  0.00  0.00    +0.210 HD
ENDBRANCH  32  41
BRANCH  34  43
ATOM     43  O   LIG    1       26.497 -20.088   8.121  0.00  0.00    -0.385 OA
ATOM     44  H   LIG    1       26.447 -19.457   7.380  0.00  0.00    +0.210 HD
ENDBRANCH  34  43
ENDBRANCH  30  31
ENDBRANCH   3  30
TORSDOF 13
ENDMDL
