MODEL 1
REMARK VINA RESULT:      -1.4      0.000      0.000
REMARK  Name = *****
REMARK                            x       y       z     vdW  Elec       q    Type
REMARK                         _______ _______ _______ _____ _____    ______ ____
ROOT
ATOM      1  C   LIG    1       25.494 -31.522  11.300  0.00  0.00    +0.140 C 
ATOM      2  C   LIG    1       24.100 -32.258  11.489  0.00  0.00    +0.045 C 
ATOM      3  C   LIG    1       24.338 -33.770  11.741  0.00  0.00    +0.013 C 
ATOM      4  C   LIG    1       22.837 -31.991  10.556  0.00  0.00    +0.130 C 
ATOM      5  C   LIG    1       23.142 -32.597   9.147  0.00  0.00    +0.018 C 
ATOM      6  C   LIG    1       22.229 -33.824   9.012  0.00  0.00    +0.010 C 
ATOM      7  C   LIG    1       22.983 -31.552   8.069  0.00  0.00    +0.051 C 
ATOM      8  C   LIG    1       23.701 -31.524   6.753  0.00  0.00    +0.151 C 
ATOM      9  O   LIG    1       24.635 -32.552   6.438  0.00  0.00    -0.360 OA
ATOM     10  C   LIG    1       23.355 -32.665   5.809  0.00  0.00    +0.204 C 
ATOM     11  C   LIG    1       23.749 -30.150   6.130  0.00  0.00    +0.173 C 
ATOM     12  O   LIG    1       22.730 -29.467   6.278  0.00  0.00    -0.294 OA
ATOM     13  C   LIG    1       24.875 -29.585   5.298  0.00  0.00    +0.096 C 
ATOM     14  C   LIG    1       25.925 -30.564   4.777  0.00  0.00    +0.019 C 
ATOM     15  C   LIG    1       25.488 -28.246   5.817  0.00  0.00    +0.193 C 
ATOM     16  C   LIG    1       26.704 -28.318   6.783  0.00  0.00    +0.068 C 
ATOM     17  C   LIG    1       27.579 -27.059   6.514  0.00  0.00    +0.015 C 
ATOM     18  C   LIG    1       26.517 -28.502   8.335  0.00  0.00    +0.180 C 
ATOM     19  C   LIG    1       25.923 -27.319   9.105  0.00  0.00    +0.052 C 
ATOM     20  O   LIG    1       25.822 -29.684   8.829  0.00  0.00    -0.461 OA
ATOM     21  C   LIG    1       26.561 -30.815   8.831  0.00  0.00    +0.313 C 
ATOM     22  O   LIG    1       27.387 -31.043   7.947  0.00  0.00    -0.250 OA
ATOM     23  C   LIG    1       26.482 -31.711  10.078  0.00  0.00    +0.124 C 
ATOM     24  C   LIG    1       26.736 -33.166   9.632  0.00  0.00    +0.022 C 
ENDROOT
BRANCH   1  25
ATOM     25  O   LIG    1       25.484 -30.151  11.747  0.00  0.00    -0.347 OA
BRANCH  25  31
ATOM     26  C   LIG    1       27.303 -28.772  13.655  0.00  0.00    +0.166 C 
ATOM     27  C   LIG    1       26.560 -27.401  13.726  0.00  0.00    +0.234 C 
ATOM     28  C   LIG    1       25.196 -27.551  12.985  0.00  0.00    +0.161 C 
ATOM     29  C   LIG    1       24.169 -26.489  13.321  0.00  0.00    +0.042 C 
ATOM     30  O   LIG    1       24.449 -28.721  13.291  0.00  0.00    -0.344 OA
ATOM     31  C   LIG    1       25.150 -29.927  13.124  0.00  0.00    +0.254 C 
ATOM     32  C   LIG    1       26.304 -29.849  14.104  0.00  0.00    +0.096 C 
BRANCH  26  34
ATOM     33  C   LIG    1       29.471 -29.698  14.013  0.00  0.00    +0.194 C 
ATOM     34  O   LIG    1       28.452 -28.827  14.513  0.00  0.00    -0.376 OA
ENDBRANCH  26  34
BRANCH  27  35
ATOM     35  O   LIG    1       27.237 -26.233  13.182  0.00  0.00    -0.456 OA
BRANCH  35  36
ATOM     36  C   LIG    1       27.473 -25.168  13.997  0.00  0.00    +0.304 C 
ATOM     37  O   LIG    1       26.955 -24.120  13.925  0.00  0.00    -0.251 OA
ATOM     38  C   LIG    1       28.467 -25.551  15.085  0.00  0.00    +0.136 C 
ENDBRANCH  35  36
ENDBRANCH  27  35
ENDBRANCH  25  31
ENDBRANCH   1  25
BRANCH   4  39
ATOM     39  O   LIG    1       22.297 -30.636  10.633  0.00  0.00    -0.344 OA
BRANCH  39  40
ATOM     40  C   LIG    1       20.988 -30.321  11.263  0.00  0.00    +0.293 C 
ATOM     41  C   LIG    1       20.182 -31.519  11.921  0.00  0.00    +0.249 C 
ATOM     42  C   LIG    1       20.052 -31.505  13.493  0.00  0.00    +0.104 C 
ATOM     43  C   LIG    1       20.826 -30.354  14.132  0.00  0.00    +0.054 C 
ATOM     44  C   LIG    1       20.439 -29.117  13.339  0.00  0.00    +0.120 C 
ATOM     45  C   LIG    1       20.734 -27.835  14.125  0.00  0.00    +0.038 C 
ATOM     46  O   LIG    1       21.169 -29.151  12.112  0.00  0.00    -0.345 OA
BRANCH  42  47
ATOM     47  N   LIG    1       20.184 -32.822  14.164  0.00  0.00    -0.302 NA
ATOM     48  C   LIG    1       18.930 -33.478  14.509  0.00  0.00    +0.105 C 
ATOM     49  C   LIG    1       21.042 -33.752  13.421  0.00  0.00    +0.105 C 
ENDBRANCH  42  47
BRANCH  41  50
ATOM     50  O   LIG    1       18.808 -31.354  11.385  0.00  0.00    -0.455 OA
BRANCH  50  51
ATOM     51  C   LIG    1       18.454 -32.011  10.257  0.00  0.00    +0.304 C 
ATOM     52  O   LIG    1       18.754 -33.167   9.971  0.00  0.00    -0.251 OA
ATOM     53  C   LIG    1       17.618 -31.130   9.367  0.00  0.00    +0.136 C 
ENDBRANCH  50  51
ENDBRANCH  41  50
ENDBRANCH  39  40
ENDBRANCH   4  39
BRANCH  15  54
ATOM     54  O   LIG    1       24.557 -27.251   6.306  0.00  0.00    -0.460 OA
BRANCH  54  55
ATOM     55  C   LIG    1       24.526 -26.068   5.627  0.00  0.00    +0.304 C 
ATOM     56  O   LIG    1       25.053 -25.853   4.536  0.00  0.00    -0.251 OA
ATOM     57  C   LIG    1       23.856 -24.978   6.418  0.00  0.00    +0.136 C 
ENDBRANCH  54  55
ENDBRANCH  15  54
TORSDOF 12
ENDMDL
MODEL 2
REMARK VINA RESULT:      -1.2      2.411      8.101
REMARK  Name = *****
REMARK                            x       y       z     vdW  Elec       q    Type
REMARK                         _______ _______ _______ _____ _____    ______ ____
ROOT
ATOM      1  C   LIG    1       23.827 -32.805  11.278  0.00  0.00    +0.140 C 
ATOM      2  C   LIG    1       24.894 -32.651  10.115  0.00  0.00    +0.045 C 
ATOM      3  C   LIG    1       25.989 -33.740  10.262  0.00  0.00    +0.013 C 
ATOM      4  C   LIG    1       25.495 -31.247   9.659  0.00  0.00    +0.130 C 
ATOM      5  C   LIG    1       26.432 -30.732  10.799  0.00  0.00    +0.018 C 
ATOM      6  C   LIG    1       27.862 -30.844  10.248  0.00  0.00    +0.010 C 
ATOM      7  C   LIG    1       26.020 -29.351  11.248  0.00  0.00    +0.051 C 
ATOM      8  C   LIG    1       26.232 -28.766  12.612  0.00  0.00    +0.151 C 
ATOM      9  O   LIG    1       26.875 -29.540  13.620  0.00  0.00    -0.360 OA
ATOM     10  C   LIG    1       27.686 -28.541  12.995  0.00  0.00    +0.204 C 
ATOM     11  C   LIG    1       25.289 -27.629  12.926  0.00  0.00    +0.173 C 
ATOM     12  O   LIG    1       25.034 -26.879  11.978  0.00  0.00    -0.294 OA
ATOM     13  C   LIG    1       24.711 -27.294  14.279  0.00  0.00    +0.096 C 
ATOM     14  C   LIG    1       25.348 -27.956  15.500  0.00  0.00    +0.019 C 
ATOM     15  C   LIG    1       23.152 -27.247  14.352  0.00  0.00    +0.193 C 
ATOM     16  C   LIG    1       22.392 -28.548  14.735  0.00  0.00    +0.068 C 
ATOM     17  C   LIG    1       21.105 -28.119  15.498  0.00  0.00    +0.015 C 
ATOM     18  C   LIG    1       22.024 -29.637  13.660  0.00  0.00    +0.180 C 
ATOM     19  C   LIG    1       20.949 -29.263  12.636  0.00  0.00    +0.052 C 
ATOM     20  O   LIG    1       23.093 -30.269  12.899  0.00  0.00    -0.461 OA
ATOM     21  C   LIG    1       23.775 -31.226  13.567  0.00  0.00    +0.313 C 
ATOM     22  O   LIG    1       23.999 -31.129  14.773  0.00  0.00    -0.250 OA
ATOM     23  C   LIG    1       24.086 -32.531  12.815  0.00  0.00    +0.124 C 
ATOM     24  C   LIG    1       25.393 -33.111  13.394  0.00  0.00    +0.022 C 
ENDROOT
BRANCH   1  25
ATOM     25  O   LIG    1       22.499 -32.389  10.898  0.00  0.00    -0.347 OA
BRANCH  25  31
ATOM     26  C   LIG    1       20.304 -32.593  12.896  0.00  0.00    +0.166 C 
ATOM     27  C   LIG    1       19.140 -32.047  12.010  0.00  0.00    +0.234 C 
ATOM     28  C   LIG    1       19.665 -31.916  10.547  0.00  0.00    +0.161 C 
ATOM     29  C   LIG    1       18.585 -31.828   9.488  0.00  0.00    +0.042 C 
ATOM     30  O   LIG    1       20.406 -33.024  10.053  0.00  0.00    -0.344 OA
ATOM     31  C   LIG    1       21.493 -33.410  10.854  0.00  0.00    +0.254 C 
ATOM     32  C   LIG    1       20.879 -33.822  12.177  0.00  0.00    +0.096 C 
BRANCH  26  34
ATOM     33  C   LIG    1       20.341 -32.111  15.230  0.00  0.00    +0.194 C 
ATOM     34  O   LIG    1       19.869 -32.989  14.204  0.00  0.00    -0.376 OA
ENDBRANCH  26  34
BRANCH  27  35
ATOM     35  O   LIG    1       18.541 -30.775  12.385  0.00  0.00    -0.456 OA
BRANCH  35  36
ATOM     36  C   LIG    1       17.299 -30.770  12.944  0.00  0.00    +0.304 C 
ATOM     37  O   LIG    1       16.858 -29.929  13.629  0.00  0.00    -0.251 OA
ATOM     38  C   LIG    1       16.517 -31.995  12.492  0.00  0.00    +0.136 C 
ENDBRANCH  35  36
ENDBRANCH  27  35
ENDBRANCH  25  31
ENDBRANCH   1  25
BRANCH   4  39
ATOM     39  O   LIG    1       24.519 -30.324   9.084  0.00  0.00    -0.344 OA
BRANCH  39  40
ATOM     40  C   LIG    1       24.029 -30.434   7.685  0.00  0.00    +0.293 C 
ATOM     41  C   LIG    1       25.108 -30.381   6.522  0.00  0.00    +0.249 C 
ATOM     42  C   LIG    1       25.341 -31.714   5.713  0.00  0.00    +0.104 C 
ATOM     43  C   LIG    1       24.528 -32.882   6.266  0.00  0.00    +0.054 C 
ATOM     44  C   LIG    1       23.115 -32.348   6.435  0.00  0.00    +0.120 C 
ATOM     45  C   LIG    1       22.093 -33.486   6.515  0.00  0.00    +0.038 C 
ATOM     46  O   LIG    1       23.099 -31.553   7.622  0.00  0.00    -0.345 OA
BRANCH  42  47
ATOM     47  N   LIG    1       26.750 -32.019   5.360  0.00  0.00    -0.302 NA
ATOM     48  C   LIG    1       27.541 -32.633   6.418  0.00  0.00    +0.105 C 
ATOM     49  C   LIG    1       26.866 -32.812   4.132  0.00  0.00    +0.105 C 
ENDBRANCH  42  47
BRANCH  41  50
ATOM     50  O   LIG    1       24.542 -29.401   5.563  0.00  0.00    -0.455 OA
BRANCH  50  51
ATOM     51  C   LIG    1       25.164 -28.213   5.384  0.00  0.00    +0.304 C 
ATOM     52  O   LIG    1       26.062 -27.983   4.578  0.00  0.00    -0.251 OA
ATOM     53  C   LIG    1       24.604 -27.172   6.317  0.00  0.00    +0.136 C 
ENDBRANCH  50  51
ENDBRANCH  41  50
ENDBRANCH  39  40
ENDBRANCH   4  39
BRANCH  15  54
ATOM     54  O   LIG    1       22.469 -26.612  13.244  0.00  0.00    -0.460 OA
BRANCH  54  55
ATOM     55  C   LIG    1       21.214 -26.142  13.499  0.00  0.00    +0.304 C 
ATOM     56  O   LIG    1       20.831 -25.660  14.564  0.00  0.00    -0.251 OA
ATOM     57  C   LIG    1       20.277 -26.376  12.346  0.00  0.00    +0.136 C 
ENDBRANCH  54  55
ENDBRANCH  15  54
TORSDOF 12
ENDMDL
MODEL 3
REMARK VINA RESULT:      -1.1      2.361      8.290
REMARK  Name = *****
REMARK                            x       y       z     vdW  Elec       q    Type
REMARK                         _______ _______ _______ _____ _____    ______ ____
ROOT
ATOM      1  C   LIG    1       24.644 -31.237   9.321  0.00  0.00    +0.140 C 
ATOM      2  C   LIG    1       25.947 -30.632   9.995  0.00  0.00    +0.045 C 
ATOM      3  C   LIG    1       27.155 -31.567   9.728  0.00  0.00    +0.013 C 
ATOM      4  C   LIG    1       25.967 -30.020  11.466  0.00  0.00    +0.130 C 
ATOM      5  C   LIG    1       25.802 -31.199  12.479  0.00  0.00    +0.018 C 
ATOM      6  C   LIG    1       27.165 -31.351  13.171  0.00  0.00    +0.010 C 
ATOM      7  C   LIG    1       24.634 -30.952  13.403  0.00  0.00    +0.051 C 
ATOM      8  C   LIG    1       23.800 -32.002  14.073  0.00  0.00    +0.151 C 
ATOM      9  O   LIG    1       24.089 -33.379  13.853  0.00  0.00    -0.360 OA
ATOM     10  C   LIG    1       24.536 -32.844  15.103  0.00  0.00    +0.204 C 
ATOM     11  C   LIG    1       22.436 -31.504  14.489  0.00  0.00    +0.173 C 
ATOM     12  O   LIG    1       22.404 -30.344  14.912  0.00  0.00    -0.294 OA
ATOM     13  C   LIG    1       21.158 -32.307  14.504  0.00  0.00    +0.096 C 
ATOM     14  C   LIG    1       21.280 -33.825  14.384  0.00  0.00    +0.019 C 
ATOM     15  C   LIG    1       19.984 -31.718  13.662  0.00  0.00    +0.193 C 
ATOM     16  C   LIG    1       19.839 -32.168  12.181  0.00  0.00    +0.068 C 
ATOM     17  C   LIG    1       18.320 -32.149  11.841  0.00  0.00    +0.015 C 
ATOM     18  C   LIG    1       20.642 -31.469  11.023  0.00  0.00    +0.180 C 
ATOM     19  C   LIG    1       20.238 -30.035  10.668  0.00  0.00    +0.052 C 
ATOM     20  O   LIG    1       22.099 -31.468  11.071  0.00  0.00    -0.461 OA
ATOM     21  C   LIG    1       22.678 -32.633  10.706  0.00  0.00    +0.313 C 
ATOM     22  O   LIG    1       22.160 -33.718  10.974  0.00  0.00    -0.250 OA
ATOM     23  C   LIG    1       23.896 -32.557   9.772  0.00  0.00    +0.124 C 
ATOM     24  C   LIG    1       24.796 -33.776  10.067  0.00  0.00    +0.022 C 
ENDROOT
BRANCH   1  25
ATOM     25  O   LIG    1       23.702 -30.234   8.890  0.00  0.00    -0.347 OA
BRANCH  25  31
ATOM     26  C   LIG    1       25.344 -29.794   6.449  0.00  0.00    +0.166 C 
ATOM     27  C   LIG    1       25.538 -31.286   6.033  0.00  0.00    +0.234 C 
ATOM     28  C   LIG    1       24.615 -32.163   6.935  0.00  0.00    +0.161 C 
ATOM     29  C   LIG    1       24.337 -33.553   6.401  0.00  0.00    +0.042 C 
ATOM     30  O   LIG    1       23.284 -31.693   7.103  0.00  0.00    -0.344 OA
ATOM     31  C   LIG    1       23.180 -30.369   7.561  0.00  0.00    +0.254 C 
ATOM     32  C   LIG    1       23.832 -29.528   6.481  0.00  0.00    +0.096 C 
BRANCH  26  34
ATOM     33  C   LIG    1       25.800 -27.512   5.928  0.00  0.00    +0.194 C 
ATOM     34  O   LIG    1       25.951 -28.877   5.526  0.00  0.00    -0.376 OA
ENDBRANCH  26  34
BRANCH  27  35
ATOM     35  O   LIG    1       26.882 -31.840   6.099  0.00  0.00    -0.456 OA
BRANCH  35  36
ATOM     36  C   LIG    1       27.238 -32.812   5.213  0.00  0.00    +0.304 C 
ATOM     37  O   LIG    1       26.870 -32.900   4.105  0.00  0.00    -0.251 OA
ATOM     38  C   LIG    1       28.259 -33.747   5.846  0.00  0.00    +0.136 C 
ENDBRANCH  35  36
ENDBRANCH  27  35
ENDBRANCH  25  31
ENDBRANCH   1  25
BRANCH   4  39
ATOM     39  O   LIG    1       25.145 -28.825  11.641  0.00  0.00    -0.344 OA
BRANCH  39  40
ATOM     40  C   LIG    1       24.684 -28.349  12.971  0.00  0.00    +0.293 C 
ATOM     41  C   LIG    1       25.544 -27.222  13.686  0.00  0.00    +0.249 C 
ATOM     42  C   LIG    1       24.875 -25.801  13.820  0.00  0.00    +0.104 C 
ATOM     43  C   LIG    1       23.511 -25.730  13.136  0.00  0.00    +0.054 C 
ATOM     44  C   LIG    1       22.755 -26.960  13.614  0.00  0.00    +0.120 C 
ATOM     45  C   LIG    1       21.244 -26.797  13.417  0.00  0.00    +0.038 C 
ATOM     46  O   LIG    1       23.256 -28.079  12.880  0.00  0.00    -0.345 OA
BRANCH  42  47
ATOM     47  N   LIG    1       25.771 -24.640  13.592  0.00  0.00    -0.302 NA
ATOM     48  C   LIG    1       25.756 -23.622  14.633  0.00  0.00    +0.105 C 
ATOM     49  C   LIG    1       27.154 -25.041  13.311  0.00  0.00    +0.105 C 
ENDBRANCH  42  47
BRANCH  41  50
ATOM     50  O   LIG    1       25.716 -27.738  15.067  0.00  0.00    -0.455 OA
BRANCH  50  51
ATOM     51  C   LIG    1       26.796 -28.496  15.362  0.00  0.00    +0.304 C 
ATOM     52  O   LIG    1       26.805 -29.717  15.500  0.00  0.00    -0.251 OA
ATOM     53  C   LIG    1       28.027 -27.640  15.500  0.00  0.00    +0.136 C 
ENDBRANCH  50  51
ENDBRANCH  41  50
ENDBRANCH  39  40
ENDBRANCH   4  39
BRANCH  15  54
ATOM     54  O   LIG    1       19.783 -30.286  13.740  0.00  0.00    -0.460 OA
BRANCH  54  55
ATOM     55  C   LIG    1       18.763 -29.862  14.541  0.00  0.00    +0.304 C 
ATOM     56  O   LIG    1       18.388 -28.698  14.669  0.00  0.00    -0.251 OA
ATOM     57  C   LIG    1       18.190 -30.980  15.368  0.00  0.00    +0.136 C 
ENDBRANCH  54  55
ENDBRANCH  15  54
TORSDOF 12
ENDMDL
MODEL 4
REMARK VINA RESULT:       0.0      1.219      2.062
REMARK  Name = *****
REMARK                            x       y       z     vdW  Elec       q    Type
REMARK                         _______ _______ _______ _____ _____    ______ ____
ROOT
ATOM      1  C   LIG    1       25.693 -31.463  11.280  0.00  0.00    +0.140 C 
ATOM      2  C   LIG    1       24.330 -32.244  11.504  0.00  0.00    +0.045 C 
ATOM      3  C   LIG    1       24.621 -33.752  11.720  0.00  0.00    +0.013 C 
ATOM      4  C   LIG    1       23.026 -32.000  10.621  0.00  0.00    +0.130 C 
ATOM      5  C   LIG    1       23.299 -32.572   9.191  0.00  0.00    +0.018 C 
ATOM      6  C   LIG    1       22.419 -33.824   9.066  0.00  0.00    +0.010 C 
ATOM      7  C   LIG    1       23.070 -31.514   8.139  0.00  0.00    +0.051 C 
ATOM      8  C   LIG    1       23.740 -31.441   6.800  0.00  0.00    +0.151 C 
ATOM      9  O   LIG    1       24.693 -32.433   6.433  0.00  0.00    -0.360 OA
ATOM     10  C   LIG    1       23.395 -32.574   5.847  0.00  0.00    +0.204 C 
ATOM     11  C   LIG    1       23.725 -30.055   6.201  0.00  0.00    +0.173 C 
ATOM     12  O   LIG    1       22.691 -29.407   6.397  0.00  0.00    -0.294 OA
ATOM     13  C   LIG    1       24.802 -29.441   5.340  0.00  0.00    +0.096 C 
ATOM     14  C   LIG    1       25.862 -30.377   4.765  0.00  0.00    +0.019 C 
ATOM     15  C   LIG    1       25.393 -28.093   5.862  0.00  0.00    +0.193 C 
ATOM     16  C   LIG    1       26.644 -28.144   6.784  0.00  0.00    +0.068 C 
ATOM     17  C   LIG    1       27.470 -26.855   6.507  0.00  0.00    +0.015 C 
ATOM     18  C   LIG    1       26.517 -28.361   8.337  0.00  0.00    +0.180 C 
ATOM     19  C   LIG    1       25.916 -27.210   9.149  0.00  0.00    +0.052 C 
ATOM     20  O   LIG    1       25.877 -29.572   8.833  0.00  0.00    -0.461 OA
ATOM     21  C   LIG    1       26.649 -30.680   8.789  0.00  0.00    +0.313 C 
ATOM     22  O   LIG    1       27.450 -30.867   7.872  0.00  0.00    -0.250 OA
ATOM     23  C   LIG    1       26.642 -31.599  10.021  0.00  0.00    +0.124 C 
ATOM     24  C   LIG    1       26.924 -33.038   9.540  0.00  0.00    +0.022 C 
ENDROOT
BRANCH   1  25
ATOM     25  O   LIG    1       25.657 -30.101  11.752  0.00  0.00    -0.347 OA
BRANCH  25  31
ATOM     26  C   LIG    1       27.465 -28.558  13.542  0.00  0.00    +0.166 C 
ATOM     27  C   LIG    1       26.602 -27.264  13.677  0.00  0.00    +0.234 C 
ATOM     28  C   LIG    1       25.210 -27.542  13.030  0.00  0.00    +0.161 C 
ATOM     29  C   LIG    1       24.112 -26.584  13.446  0.00  0.00    +0.042 C 
ATOM     30  O   LIG    1       24.601 -28.779  13.376  0.00  0.00    -0.344 OA
ATOM     31  C   LIG    1       25.400 -29.912  13.151  0.00  0.00    +0.254 C 
ATOM     32  C   LIG    1       26.607 -29.727  14.049  0.00  0.00    +0.096 C 
BRANCH  26  34
ATOM     33  C   LIG    1       28.792 -29.606  15.223  0.00  0.00    +0.194 C 
ATOM     34  O   LIG    1       28.671 -28.505  14.318  0.00  0.00    -0.376 OA
ENDBRANCH  26  34
BRANCH  27  35
ATOM     35  O   LIG    1       27.125 -26.036  13.097  0.00  0.00    -0.456 OA
BRANCH  35  36
ATOM     36  C   LIG    1       27.579 -25.057  13.928  0.00  0.00    +0.304 C 
ATOM     37  O   LIG    1       28.273 -24.164  13.622  0.00  0.00    -0.251 OA
ATOM     38  C   LIG    1       26.991 -25.238  15.320  0.00  0.00    +0.136 C 
ENDBRANCH  35  36
ENDBRANCH  27  35
ENDBRANCH  25  31
ENDBRANCH   1  25
BRANCH   4  39
ATOM     39  O   LIG    1       22.449 -30.664  10.742  0.00  0.00    -0.344 OA
BRANCH  39  40
ATOM     40  C   LIG    1       22.019 -30.083  12.041  0.00  0.00    +0.293 C 
ATOM     41  C   LIG    1       20.532 -29.540  12.148  0.00  0.00    +0.249 C 
ATOM     42  C   LIG    1       19.549 -30.347  13.080  0.00  0.00    +0.104 C 
ATOM     43  C   LIG    1       20.197 -31.601  13.664  0.00  0.00    +0.054 C 
ATOM     44  C   LIG    1       21.540 -31.146  14.210  0.00  0.00    +0.120 C 
ATOM     45  C   LIG    1       22.094 -32.143  15.233  0.00  0.00    +0.038 C 
ATOM     46  O   LIG    1       22.425 -31.000  13.097  0.00  0.00    -0.345 OA
BRANCH  42  47
ATOM     47  N   LIG    1       18.165 -30.514  12.571  0.00  0.00    -0.302 NA
ATOM     48  C   LIG    1       17.902 -31.764  11.872  0.00  0.00    +0.105 C 
ATOM     49  C   LIG    1       17.152 -30.304  13.610  0.00  0.00    +0.105 C 
ENDBRANCH  42  47
BRANCH  41  50
ATOM     50  O   LIG    1       20.692 -28.200  12.766  0.00  0.00    -0.455 OA
BRANCH  50  51
ATOM     51  C   LIG    1       20.264 -27.999  14.033  0.00  0.00    +0.304 C 
ATOM     52  O   LIG    1       20.775 -28.463  15.049  0.00  0.00    -0.251 OA
ATOM     53  C   LIG    1       19.050 -27.109  14.051  0.00  0.00    +0.136 C 
ENDBRANCH  50  51
ENDBRANCH  41  50
ENDBRANCH  39  40
ENDBRANCH   4  39
BRANCH  15  54
ATOM     54  O   LIG    1       24.450 -27.136   6.402  0.00  0.00    -0.460 OA
BRANCH  54  55
ATOM     55  C   LIG    1       24.341 -25.952   5.732  0.00  0.00    +0.304 C 
ATOM     56  O   LIG    1       24.799 -25.716   4.614  0.00  0.00    -0.251 OA
ATOM     57  C   LIG    1       23.679 -24.889   6.564  0.00  0.00    +0.136 C 
ENDBRANCH  54  55
ENDBRANCH  15  54
TORSDOF 12
ENDMDL
MODEL 5
REMARK VINA RESULT:       0.7      2.114      8.243
REMARK  Name = *****
REMARK                            x       y       z     vdW  Elec       q    Type
REMARK                         _______ _______ _______ _____ _____    ______ ____
ROOT
ATOM      1  C   LIG    1       24.915 -31.141   9.336  0.00  0.00    +0.140 C 
ATOM      2  C   LIG    1       26.191 -30.610  10.116  0.00  0.00    +0.045 C 
ATOM      3  C   LIG    1       27.384 -31.574   9.884  0.00  0.00    +0.013 C 
ATOM      4  C   LIG    1       26.137 -30.062  11.611  0.00  0.00    +0.130 C 
ATOM      5  C   LIG    1       25.871 -31.276  12.559  0.00  0.00    +0.018 C 
ATOM      6  C   LIG    1       27.181 -31.504  13.326  0.00  0.00    +0.010 C 
ATOM      7  C   LIG    1       24.654 -31.028  13.419  0.00  0.00    +0.051 C 
ATOM      8  C   LIG    1       23.747 -32.076  13.988  0.00  0.00    +0.151 C 
ATOM      9  O   LIG    1       24.006 -33.452  13.726  0.00  0.00    -0.360 OA
ATOM     10  C   LIG    1       24.389 -32.987  15.023  0.00  0.00    +0.204 C 
ATOM     11  C   LIG    1       22.376 -31.550  14.340  0.00  0.00    +0.173 C 
ATOM     12  O   LIG    1       22.354 -30.409  14.811  0.00  0.00    -0.294 OA
ATOM     13  C   LIG    1       21.075 -32.309  14.240  0.00  0.00    +0.096 C 
ATOM     14  C   LIG    1       21.155 -33.823  14.061  0.00  0.00    +0.019 C 
ATOM     15  C   LIG    1       19.975 -31.644  13.354  0.00  0.00    +0.193 C 
ATOM     16  C   LIG    1       19.911 -32.026  11.848  0.00  0.00    +0.068 C 
ATOM     17  C   LIG    1       18.418 -31.940  11.416  0.00  0.00    +0.015 C 
ATOM     18  C   LIG    1       20.808 -31.306  10.774  0.00  0.00    +0.180 C 
ATOM     19  C   LIG    1       20.473 -29.846  10.459  0.00  0.00    +0.052 C 
ATOM     20  O   LIG    1       22.257 -31.358  10.913  0.00  0.00    -0.461 OA
ATOM     21  C   LIG    1       22.821 -32.526  10.533  0.00  0.00    +0.313 C 
ATOM     22  O   LIG    1       22.254 -33.602  10.720  0.00  0.00    -0.250 OA
ATOM     23  C   LIG    1       24.099 -32.452   9.681  0.00  0.00    +0.124 C 
ATOM     24  C   LIG    1       24.939 -33.713   9.977  0.00  0.00    +0.022 C 
ENDROOT
BRANCH   1  25
ATOM     25  O   LIG    1       24.034 -30.088   8.893  0.00  0.00    -0.347 OA
BRANCH  25  31
ATOM     26  C   LIG    1       25.053 -29.539   6.152  0.00  0.00    +0.166 C 
ATOM     27  C   LIG    1       25.358 -31.009   5.724  0.00  0.00    +0.234 C 
ATOM     28  C   LIG    1       24.773 -31.961   6.812  0.00  0.00    +0.161 C 
ATOM     29  C   LIG    1       24.583 -33.396   6.368  0.00  0.00    +0.042 C 
ATOM     30  O   LIG    1       23.455 -31.663   7.254  0.00  0.00    -0.344 OA
ATOM     31  C   LIG    1       23.269 -30.346   7.707  0.00  0.00    +0.254 C 
ATOM     32  C   LIG    1       23.559 -29.472   6.503  0.00  0.00    +0.096 C 
BRANCH  26  34
ATOM     33  C   LIG    1       26.393 -27.700   5.439  0.00  0.00    +0.194 C 
ATOM     34  O   LIG    1       25.322 -28.589   5.110  0.00  0.00    -0.376 OA
ENDBRANCH  26  34
BRANCH  27  35
ATOM     35  O   LIG    1       26.749 -31.378   5.509  0.00  0.00    -0.456 OA
BRANCH  35  36
ATOM     36  C   LIG    1       27.029 -32.569   4.910  0.00  0.00    +0.304 C 
ATOM     37  O   LIG    1       27.645 -33.447   5.383  0.00  0.00    -0.251 OA
ATOM     38  C   LIG    1       26.360 -32.640   3.545  0.00  0.00    +0.136 C 
ENDBRANCH  35  36
ENDBRANCH  27  35
ENDBRANCH  25  31
ENDBRANCH   1  25
BRANCH   4  39
ATOM     39  O   LIG    1       25.344 -28.848  11.788  0.00  0.00    -0.344 OA
BRANCH  39  40
ATOM     40  C   LIG    1       25.819 -27.678  12.571  0.00  0.00    +0.293 C 
ATOM     41  C   LIG    1       24.724 -26.782  13.291  0.00  0.00    +0.249 C 
ATOM     42  C   LIG    1       24.695 -26.831  14.867  0.00  0.00    +0.104 C 
ATOM     43  C   LIG    1       25.696 -27.832  15.439  0.00  0.00    +0.054 C 
ATOM     44  C   LIG    1       27.007 -27.546  14.724  0.00  0.00    +0.120 C 
ATOM     45  C   LIG    1       28.201 -28.113  15.500  0.00  0.00    +0.038 C 
ATOM     46  O   LIG    1       26.916 -28.123  13.420  0.00  0.00    -0.345 OA
BRANCH  42  47
ATOM     47  N   LIG    1       23.347 -26.841  15.489  0.00  0.00    -0.302 NA
ATOM     48  C   LIG    1       22.654 -25.560  15.500  0.00  0.00    +0.105 C 
ATOM     49  C   LIG    1       22.472 -27.873  14.924  0.00  0.00    +0.105 C 
ENDBRANCH  42  47
BRANCH  41  50
ATOM     50  O   LIG    1       25.107 -25.397  12.921  0.00  0.00    -0.455 OA
BRANCH  50  51
ATOM     51  C   LIG    1       26.112 -24.786  13.589  0.00  0.00    +0.304 C 
ATOM     52  O   LIG    1       27.312 -24.907  13.356  0.00  0.00    -0.251 OA
ATOM     53  C   LIG    1       25.567 -23.910  14.685  0.00  0.00    +0.136 C 
ENDBRANCH  50  51
ENDBRANCH  41  50
ENDBRANCH  39  40
ENDBRANCH   4  39
BRANCH  15  54
ATOM     54  O   LIG    1       19.816 -30.211  13.482  0.00  0.00    -0.460 OA
BRANCH  54  55
ATOM     55  C   LIG    1       18.991 -29.783  14.482  0.00  0.00    +0.304 C 
ATOM     56  O   LIG    1       19.214 -28.842  15.243  0.00  0.00    -0.251 OA
ATOM     57  C   LIG    1       17.787 -30.670  14.641  0.00  0.00    +0.136 C 
ENDBRANCH  54  55
ENDBRANCH  15  54
TORSDOF 12
ENDMDL
MODEL 6
REMARK VINA RESULT:       0.8      2.616      8.724
REMARK  Name = *****
REMARK                            x       y       z     vdW  Elec       q    Type
REMARK                         _______ _______ _______ _____ _____    ______ ____
ROOT
ATOM      1  C   LIG    1       26.343 -31.390   9.944  0.00  0.00    +0.140 C 
ATOM      2  C   LIG    1       26.846 -29.898   9.750  0.00  0.00    +0.045 C 
ATOM      3  C   LIG    1       28.222 -29.716  10.444  0.00  0.00    +0.013 C 
ATOM      4  C   LIG    1       25.904 -28.626   9.931  0.00  0.00    +0.130 C 
ATOM      5  C   LIG    1       25.577 -28.482  11.453  0.00  0.00    +0.018 C 
ATOM      6  C   LIG    1       26.339 -27.237  11.929  0.00  0.00    +0.010 C 
ATOM      7  C   LIG    1       24.085 -28.452  11.680  0.00  0.00    +0.051 C 
ATOM      8  C   LIG    1       23.371 -28.901  12.919  0.00  0.00    +0.151 C 
ATOM      9  O   LIG    1       24.118 -29.415  14.017  0.00  0.00    -0.360 OA
ATOM     10  C   LIG    1       23.655 -28.069  14.160  0.00  0.00    +0.204 C 
ATOM     11  C   LIG    1       21.920 -29.244  12.680  0.00  0.00    +0.173 C 
ATOM     12  O   LIG    1       21.333 -28.517  11.872  0.00  0.00    -0.294 OA
ATOM     13  C   LIG    1       21.128 -30.319  13.382  0.00  0.00    +0.096 C 
ATOM     14  C   LIG    1       21.729 -30.921  14.650  0.00  0.00    +0.019 C 
ATOM     15  C   LIG    1       20.468 -31.385  12.451  0.00  0.00    +0.193 C 
ATOM     16  C   LIG    1       21.270 -32.676  12.124  0.00  0.00    +0.068 C 
ATOM     17  C   LIG    1       20.236 -33.823  11.934  0.00  0.00    +0.015 C 
ATOM     18  C   LIG    1       22.321 -32.721  10.953  0.00  0.00    +0.180 C 
ATOM     19  C   LIG    1       21.771 -32.653   9.526  0.00  0.00    +0.052 C 
ATOM     20  O   LIG    1       23.455 -31.806  10.984  0.00  0.00    -0.461 OA
ATOM     21  C   LIG    1       24.448 -32.163  11.828  0.00  0.00    +0.313 C 
ATOM     22  O   LIG    1       24.209 -32.713  12.903  0.00  0.00    -0.250 OA
ATOM     23  C   LIG    1       25.892 -32.044  11.313  0.00  0.00    +0.124 C 
ATOM     24  C   LIG    1       26.806 -31.771  12.526  0.00  0.00    +0.022 C 
ENDROOT
BRANCH   1  25
ATOM     25  O   LIG    1       25.529 -31.868   8.853  0.00  0.00    -0.347 OA
BRANCH  25  31
ATOM     26  C   LIG    1       24.715 -32.982   6.217  0.00  0.00    +0.166 C 
ATOM     27  C   LIG    1       26.137 -33.177   5.603  0.00  0.00    +0.234 C 
ATOM     28  C   LIG    1       27.188 -32.923   6.728  0.00  0.00    +0.161 C 
ATOM     29  C   LIG    1       28.568 -33.482   6.448  0.00  0.00    +0.042 C 
ATOM     30  O   LIG    1       26.920 -33.542   7.979  0.00  0.00    -0.344 OA
ATOM     31  C   LIG    1       25.655 -33.257   8.518  0.00  0.00    +0.254 C 
ATOM     32  C   LIG    1       24.665 -33.809   7.511  0.00  0.00    +0.096 C 
BRANCH  26  34
ATOM     33  C   LIG    1       22.490 -33.824   6.057  0.00  0.00    +0.194 C 
ATOM     34  O   LIG    1       23.667 -33.432   5.346  0.00  0.00    -0.376 OA
ENDBRANCH  26  34
BRANCH  27  35
ATOM     35  O   LIG    1       26.501 -32.355   4.459  0.00  0.00    -0.456 OA
BRANCH  35  36
ATOM     36  C   LIG    1       26.253 -32.825   3.205  0.00  0.00    +0.304 C 
ATOM     37  O   LIG    1       25.203 -32.890   2.691  0.00  0.00    -0.251 OA
ATOM     38  C   LIG    1       27.560 -33.193   2.517  0.00  0.00    +0.136 C 
ENDBRANCH  35  36
ENDBRANCH  27  35
ENDBRANCH  25  31
ENDBRANCH   1  25
BRANCH   4  39
ATOM     39  O   LIG    1       24.809 -28.536   8.968  0.00  0.00    -0.344 OA
BRANCH  39  40
ATOM     40  C   LIG    1       25.017 -28.199   7.535  0.00  0.00    +0.293 C 
ATOM     41  C   LIG    1       24.125 -27.041   6.916  0.00  0.00    +0.249 C 
ATOM     42  C   LIG    1       24.869 -25.707   6.526  0.00  0.00    +0.104 C 
ATOM     43  C   LIG    1       26.347 -25.730   6.908  0.00  0.00    +0.054 C 
ATOM     44  C   LIG    1       26.877 -27.059   6.395  0.00  0.00    +0.120 C 
ATOM     45  C   LIG    1       28.404 -27.037   6.264  0.00  0.00    +0.038 C 
ATOM     46  O   LIG    1       26.450 -28.070   7.310  0.00  0.00    -0.345 OA
BRANCH  42  47
ATOM     47  N   LIG    1       24.143 -24.449   6.832  0.00  0.00    -0.302 NA
ATOM     48  C   LIG    1       24.791 -23.227   6.376  0.00  0.00    +0.105 C 
ATOM     49  C   LIG    1       22.751 -24.474   6.371  0.00  0.00    +0.105 C 
ENDBRANCH  42  47
BRANCH  41  50
ATOM     50  O   LIG    1       23.622 -27.628   5.649  0.00  0.00    -0.455 OA
BRANCH  50  51
ATOM     51  C   LIG    1       23.879 -28.926   5.372  0.00  0.00    +0.304 C 
ATOM     52  O   LIG    1       23.306 -29.896   5.861  0.00  0.00    -0.251 OA
ATOM     53  C   LIG    1       24.984 -29.045   4.356  0.00  0.00    +0.136 C 
ENDBRANCH  50  51
ENDBRANCH  41  50
ENDBRANCH  39  40
ENDBRANCH   4  39
BRANCH  15  54
ATOM     54  O   LIG    1       19.851 -30.894  11.237  0.00  0.00    -0.460 OA
BRANCH  54  55
ATOM     55  C   LIG    1       18.515 -31.135  11.099  0.00  0.00    +0.304 C 
ATOM     56  O   LIG    1       17.675 -31.053  11.994  0.00  0.00    -0.251 OA
ATOM     57  C   LIG    1       18.169 -31.635   9.724  0.00  0.00    +0.136 C 
ENDBRANCH  54  55
ENDBRANCH  15  54
TORSDOF 12
ENDMDL
MODEL 7
REMARK VINA RESULT:       0.9      2.401      8.084
REMARK  Name = *****
REMARK                            x       y       z     vdW  Elec       q    Type
REMARK                         _______ _______ _______ _____ _____    ______ ____
ROOT
ATOM      1  C   LIG    1       22.702 -31.143  10.862  0.00  0.00    +0.140 C 
ATOM      2  C   LIG    1       23.660 -31.515   9.653  0.00  0.00    +0.045 C 
ATOM      3  C   LIG    1       23.961 -33.037   9.675  0.00  0.00    +0.013 C 
ATOM      4  C   LIG    1       24.936 -30.651   9.250  0.00  0.00    +0.130 C 
ATOM      5  C   LIG    1       26.015 -30.837  10.366  0.00  0.00    +0.018 C 
ATOM      6  C   LIG    1       27.132 -31.680   9.732  0.00  0.00    +0.010 C 
ATOM      7  C   LIG    1       26.450 -29.501  10.920  0.00  0.00    +0.051 C 
ATOM      8  C   LIG    1       26.968 -29.245  12.303  0.00  0.00    +0.151 C 
ATOM      9  O   LIG    1       27.081 -30.324  13.225  0.00  0.00    -0.360 OA
ATOM     10  C   LIG    1       28.305 -29.898  12.618  0.00  0.00    +0.204 C 
ATOM     11  C   LIG    1       26.825 -27.805  12.735  0.00  0.00    +0.173 C 
ATOM     12  O   LIG    1       27.020 -26.966  11.850  0.00  0.00    -0.294 OA
ATOM     13  C   LIG    1       26.548 -27.316  14.136  0.00  0.00    +0.096 C 
ATOM     14  C   LIG    1       26.722 -28.316  15.277  0.00  0.00    +0.019 C 
ATOM     15  C   LIG    1       25.282 -26.416  14.296  0.00  0.00    +0.193 C 
ATOM     16  C   LIG    1       23.930 -27.101  14.642  0.00  0.00    +0.068 C 
ATOM     17  C   LIG    1       23.111 -26.092  15.499  0.00  0.00    +0.015 C 
ATOM     18  C   LIG    1       23.004 -27.711  13.525  0.00  0.00    +0.180 C 
ATOM     19  C   LIG    1       22.309 -26.722  12.586  0.00  0.00    +0.052 C 
ATOM     20  O   LIG    1       23.529 -28.767  12.670  0.00  0.00    -0.461 OA
ATOM     21  C   LIG    1       23.568 -29.991  13.241  0.00  0.00    +0.313 C 
ATOM     22  O   LIG    1       23.822 -30.133  14.437  0.00  0.00    -0.250 OA
ATOM     23  C   LIG    1       23.088 -31.184  12.396  0.00  0.00    +0.124 C 
ATOM     24  C   LIG    1       23.856 -32.437  12.867  0.00  0.00    +0.022 C 
ENDROOT
BRANCH   1  25
ATOM     25  O   LIG    1       21.829 -30.030  10.581  0.00  0.00    -0.347 OA
BRANCH  25  31
ATOM     26  C   LIG    1       20.563 -32.166  12.221  0.00  0.00    +0.166 C 
ATOM     27  C   LIG    1       19.900 -31.257  13.304  0.00  0.00    +0.234 C 
ATOM     28  C   LIG    1       20.041 -29.774  12.843  0.00  0.00    +0.161 C 
ATOM     29  C   LIG    1       19.096 -28.803  13.521  0.00  0.00    +0.042 C 
ATOM     30  O   LIG    1       19.726 -29.514  11.481  0.00  0.00    -0.344 OA
ATOM     31  C   LIG    1       20.421 -30.308  10.555  0.00  0.00    +0.254 C 
ATOM     32  C   LIG    1       19.999 -31.731  10.861  0.00  0.00    +0.096 C 
BRANCH  26  34
ATOM     33  C   LIG    1       18.873 -33.825  12.496  0.00  0.00    +0.194 C 
ATOM     34  O   LIG    1       20.276 -33.559  12.413  0.00  0.00    -0.376 OA
ENDBRANCH  26  34
BRANCH  27  35
ATOM     35  O   LIG    1       20.400 -31.350  14.667  0.00  0.00    -0.456 OA
BRANCH  35  36
ATOM     36  C   LIG    1       20.599 -32.582  15.214  0.00  0.00    +0.304 C 
ATOM     37  O   LIG    1       21.636 -33.053  15.485  0.00  0.00    -0.251 OA
ATOM     38  C   LIG    1       19.262 -33.250  15.500  0.00  0.00    +0.136 C 
ENDBRANCH  35  36
ENDBRANCH  27  35
ENDBRANCH  25  31
ENDBRANCH   1  25
BRANCH   4  39
ATOM     39  O   LIG    1       24.635 -29.299   8.786  0.00  0.00    -0.344 OA
BRANCH  39  40
ATOM     40  C   LIG    1       24.180 -29.001   7.402  0.00  0.00    +0.293 C 
ATOM     41  C   LIG    1       24.981 -27.899   6.587  0.00  0.00    +0.249 C 
ATOM     42  C   LIG    1       25.829 -28.405   5.358  0.00  0.00    +0.104 C 
ATOM     43  C   LIG    1       25.804 -29.926   5.219  0.00  0.00    +0.054 C 
ATOM     44  C   LIG    1       24.339 -30.318   5.328  0.00  0.00    +0.120 C 
ATOM     45  C   LIG    1       24.088 -31.711   4.740  0.00  0.00    +0.038 C 
ATOM     46  O   LIG    1       23.987 -30.269   6.712  0.00  0.00    -0.345 OA
BRANCH  42  47
ATOM     47  N   LIG    1       27.155 -27.763   5.180  0.00  0.00    -0.302 NA
ATOM     48  C   LIG    1       27.449 -27.300   3.831  0.00  0.00    +0.105 C 
ATOM     49  C   LIG    1       27.392 -26.679   6.139  0.00  0.00    +0.105 C 
ENDBRANCH  42  47
BRANCH  41  50
ATOM     50  O   LIG    1       23.913 -27.031   6.032  0.00  0.00    -0.455 OA
BRANCH  50  51
ATOM     51  C   LIG    1       24.059 -25.687   6.081  0.00  0.00    +0.304 C 
ATOM     52  O   LIG    1       23.786 -24.966   7.037  0.00  0.00    -0.251 OA
ATOM     53  C   LIG    1       24.616 -25.164   4.784  0.00  0.00    +0.136 C 
ENDBRANCH  50  51
ENDBRANCH  41  50
ENDBRANCH  39  40
ENDBRANCH   4  39
BRANCH  15  54
ATOM     54  O   LIG    1       25.057 -25.423  13.268  0.00  0.00    -0.460 OA
BRANCH  54  55
ATOM     55  C   LIG    1       25.378 -24.136  13.591  0.00  0.00    +0.304 C 
ATOM     56  O   LIG    1       24.808 -23.129  13.175  0.00  0.00    -0.251 OA
ATOM     57  C   LIG    1       26.610 -24.058  14.450  0.00  0.00    +0.136 C 
ENDBRANCH  54  55
ENDBRANCH  15  54
TORSDOF 12
ENDMDL
MODEL 8
REMARK VINA RESULT:       1.0      2.437      8.463
REMARK  Name = *****
REMARK                            x       y       z     vdW  Elec       q    Type
REMARK                         _______ _______ _______ _____ _____    ______ ____
ROOT
ATOM      1  C   LIG    1       23.260 -31.345  10.584  0.00  0.00    +0.140 C 
ATOM      2  C   LIG    1       24.112 -31.564   9.263  0.00  0.00    +0.045 C 
ATOM      3  C   LIG    1       24.526 -33.055   9.150  0.00  0.00    +0.013 C 
ATOM      4  C   LIG    1       25.271 -30.577   8.796  0.00  0.00    +0.130 C 
ATOM      5  C   LIG    1       26.472 -30.742   9.784  0.00  0.00    +0.018 C 
ATOM      6  C   LIG    1       27.576 -31.452   8.986  0.00  0.00    +0.010 C 
ATOM      7  C   LIG    1       26.861 -29.412  10.382  0.00  0.00    +0.051 C 
ATOM      8  C   LIG    1       27.501 -29.199  11.721  0.00  0.00    +0.151 C 
ATOM      9  O   LIG    1       27.789 -30.320  12.551  0.00  0.00    -0.360 OA
ATOM     10  C   LIG    1       28.908 -29.760  11.856  0.00  0.00    +0.204 C 
ATOM     11  C   LIG    1       27.297 -27.805  12.263  0.00  0.00    +0.173 C 
ATOM     12  O   LIG    1       27.336 -26.901  11.422  0.00  0.00    -0.294 OA
ATOM     13  C   LIG    1       27.132 -27.426  13.715  0.00  0.00    +0.096 C 
ATOM     14  C   LIG    1       27.498 -28.475  14.762  0.00  0.00    +0.019 C 
ATOM     15  C   LIG    1       25.827 -26.642  14.061  0.00  0.00    +0.193 C 
ATOM     16  C   LIG    1       24.573 -27.454  14.492  0.00  0.00    +0.068 C 
ATOM     17  C   LIG    1       23.775 -26.569  15.493  0.00  0.00    +0.015 C 
ATOM     18  C   LIG    1       23.583 -28.068  13.434  0.00  0.00    +0.180 C 
ATOM     19  C   LIG    1       22.722 -27.083  12.638  0.00  0.00    +0.052 C 
ATOM     20  O   LIG    1       24.093 -29.024  12.460  0.00  0.00    -0.461 OA
ATOM     21  C   LIG    1       24.282 -30.274  12.938  0.00  0.00    +0.313 C 
ATOM     22  O   LIG    1       24.669 -30.467  14.091  0.00  0.00    -0.250 OA
ATOM     23  C   LIG    1       23.806 -31.447  12.066  0.00  0.00    +0.124 C 
ATOM     24  C   LIG    1       24.710 -32.660  12.371  0.00  0.00    +0.022 C 
ENDROOT
BRANCH   1  25
ATOM     25  O   LIG    1       22.282 -30.291  10.468  0.00  0.00    -0.347 OA
BRANCH  25  31
ATOM     26  C   LIG    1       19.481 -31.237  10.134  0.00  0.00    +0.166 C 
ATOM     27  C   LIG    1       19.585 -32.554  10.966  0.00  0.00    +0.234 C 
ATOM     28  C   LIG    1       20.965 -32.559  11.694  0.00  0.00    +0.161 C 
ATOM     29  C   LIG    1       21.063 -33.514  12.866  0.00  0.00    +0.042 C 
ATOM     30  O   LIG    1       21.331 -31.344  12.335  0.00  0.00    -0.344 OA
ATOM     31  C   LIG    1       21.299 -30.209  11.509  0.00  0.00    +0.254 C 
ATOM     32  C   LIG    1       19.852 -30.080  11.074  0.00  0.00    +0.096 C 
BRANCH  26  34
ATOM     33  C   LIG    1       17.149 -31.156  10.623  0.00  0.00    +0.194 C 
ATOM     34  O   LIG    1       18.160 -31.006   9.623  0.00  0.00    -0.376 OA
ENDBRANCH  26  34
BRANCH  27  35
ATOM     35  O   LIG    1       19.452 -33.817  10.255  0.00  0.00    -0.456 OA
BRANCH  35  36
ATOM     36  C   LIG    1       19.240 -33.798   8.910  0.00  0.00    +0.304 C 
ATOM     37  O   LIG    1       18.197 -33.743   8.380  0.00  0.00    -0.251 OA
ATOM     38  C   LIG    1       20.570 -33.782   8.171  0.00  0.00    +0.136 C 
ENDBRANCH  35  36
ENDBRANCH  27  35
ENDBRANCH  25  31
ENDBRANCH   1  25
BRANCH   4  39
ATOM     39  O   LIG    1       24.824 -29.228   8.458  0.00  0.00    -0.344 OA
BRANCH  39  40
ATOM     40  C   LIG    1       24.300 -28.862   7.116  0.00  0.00    +0.293 C 
ATOM     41  C   LIG    1       24.931 -27.593   6.401  0.00  0.00    +0.249 C 
ATOM     42  C   LIG    1       25.805 -27.867   5.118  0.00  0.00    +0.104 C 
ATOM     43  C   LIG    1       25.971 -29.358   4.831  0.00  0.00    +0.054 C 
ATOM     44  C   LIG    1       24.572 -29.945   4.922  0.00  0.00    +0.120 C 
ATOM     45  C   LIG    1       24.486 -31.296   4.205  0.00  0.00    +0.038 C 
ATOM     46  O   LIG    1       24.252 -30.073   6.309  0.00  0.00    -0.345 OA
BRANCH  42  47
ATOM     47  N   LIG    1       27.034 -27.044   4.985  0.00  0.00    -0.302 NA
ATOM     48  C   LIG    1       27.732 -26.756   6.229  0.00  0.00    +0.105 C 
ATOM     49  C   LIG    1       27.976 -27.592   4.003  0.00  0.00    +0.105 C 
ENDBRANCH  42  47
BRANCH  41  50
ATOM     50  O   LIG    1       23.747 -26.822   5.947  0.00  0.00    -0.455 OA
BRANCH  50  51
ATOM     51  C   LIG    1       23.760 -25.473   6.039  0.00  0.00    +0.304 C 
ATOM     52  O   LIG    1       22.833 -24.767   6.429  0.00  0.00    -0.251 OA
ATOM     53  C   LIG    1       25.089 -24.921   5.596  0.00  0.00    +0.136 C 
ENDBRANCH  50  51
ENDBRANCH  41  50
ENDBRANCH  39  40
ENDBRANCH   4  39
BRANCH  15  54
ATOM     54  O   LIG    1       25.423 -25.610  13.131  0.00  0.00    -0.460 OA
BRANCH  54  55
ATOM     55  C   LIG    1       25.340 -24.343  13.634  0.00  0.00    +0.304 C 
ATOM     56  O   LIG    1       24.597 -23.455  13.220  0.00  0.00    -0.251 OA
ATOM     57  C   LIG    1       26.358 -24.094  14.712  0.00  0.00    +0.136 C 
ENDBRANCH  54  55
ENDBRANCH  15  54
TORSDOF 12
ENDMDL
MODEL 9
REMARK VINA RESULT:       1.5      2.256      7.995
REMARK  Name = *****
REMARK                            x       y       z     vdW  Elec       q    Type
REMARK                         _______ _______ _______ _____ _____    ______ ____
ROOT
ATOM      1  C   LIG    1       24.791 -31.211   9.182  0.00  0.00    +0.140 C 
ATOM      2  C   LIG    1       26.067 -30.697   9.972  0.00  0.00    +0.045 C 
ATOM      3  C   LIG    1       27.244 -31.686   9.763  0.00  0.00    +0.013 C 
ATOM      4  C   LIG    1       26.007 -30.135  11.462  0.00  0.00    +0.130 C 
ATOM      5  C   LIG    1       25.706 -31.335  12.418  0.00  0.00    +0.018 C 
ATOM      6  C   LIG    1       27.003 -31.581  13.202  0.00  0.00    +0.010 C 
ATOM      7  C   LIG    1       24.484 -31.056  13.260  0.00  0.00    +0.051 C 
ATOM      8  C   LIG    1       23.550 -32.081  13.828  0.00  0.00    +0.151 C 
ATOM      9  O   LIG    1       23.786 -33.464  13.581  0.00  0.00    -0.360 OA
ATOM     10  C   LIG    1       24.162 -32.995  14.879  0.00  0.00    +0.204 C 
ATOM     11  C   LIG    1       22.186 -31.526  14.159  0.00  0.00    +0.173 C 
ATOM     12  O   LIG    1       22.180 -30.380  14.620  0.00  0.00    -0.294 OA
ATOM     13  C   LIG    1       20.872 -32.260  14.050  0.00  0.00    +0.096 C 
ATOM     14  C   LIG    1       20.925 -33.778  13.885  0.00  0.00    +0.019 C 
ATOM     15  C   LIG    1       19.795 -31.583  13.145  0.00  0.00    +0.193 C 
ATOM     16  C   LIG    1       19.742 -31.977  11.642  0.00  0.00    +0.068 C 
ATOM     17  C   LIG    1       18.256 -31.867  11.191  0.00  0.00    +0.015 C 
ATOM     18  C   LIG    1       20.664 -31.284  10.572  0.00  0.00    +0.180 C 
ATOM     19  C   LIG    1       20.361 -29.821  10.241  0.00  0.00    +0.052 C 
ATOM     20  O   LIG    1       22.111 -31.363  10.729  0.00  0.00    -0.461 OA
ATOM     21  C   LIG    1       22.657 -32.545  10.366  0.00  0.00    +0.313 C 
ATOM     22  O   LIG    1       22.067 -33.608  10.556  0.00  0.00    -0.250 OA
ATOM     23  C   LIG    1       23.946 -32.503   9.528  0.00  0.00    +0.124 C 
ATOM     24  C   LIG    1       24.758 -33.777   9.846  0.00  0.00    +0.022 C 
ENDROOT
BRANCH   1  25
ATOM     25  O   LIG    1       23.936 -30.145   8.719  0.00  0.00    -0.347 OA
BRANCH  25  31
ATOM     26  C   LIG    1       24.202 -28.263   6.430  0.00  0.00    +0.166 C 
ATOM     27  C   LIG    1       25.167 -29.115   5.547  0.00  0.00    +0.234 C 
ATOM     28  C   LIG    1       25.285 -30.532   6.188  0.00  0.00    +0.161 C 
ATOM     29  C   LIG    1       25.810 -31.609   5.260  0.00  0.00    +0.042 C 
ATOM     30  O   LIG    1       24.063 -31.133   6.596  0.00  0.00    -0.344 OA
ATOM     31  C   LIG    1       23.281 -30.348   7.459  0.00  0.00    +0.254 C 
ATOM     32  C   LIG    1       22.939 -29.107   6.659  0.00  0.00    +0.096 C 
BRANCH  26  34
ATOM     33  C   LIG    1       23.990 -25.901   6.670  0.00  0.00    +0.194 C 
ATOM     34  O   LIG    1       23.821 -27.028   5.806  0.00  0.00    -0.376 OA
ENDBRANCH  26  34
BRANCH  27  35
ATOM     35  O   LIG    1       26.514 -28.609   5.331  0.00  0.00    -0.456 OA
BRANCH  35  36
ATOM     36  C   LIG    1       26.674 -27.363   4.805  0.00  0.00    +0.304 C 
ATOM     37  O   LIG    1       26.198 -26.973   3.808  0.00  0.00    -0.251 OA
ATOM     38  C   LIG    1       27.511 -26.503   5.741  0.00  0.00    +0.136 C 
ENDBRANCH  35  36
ENDBRANCH  27  35
ENDBRANCH  25  31
ENDBRANCH   1  25
BRANCH   4  39
ATOM     39  O   LIG    1       25.235 -28.904  11.618  0.00  0.00    -0.344 OA
BRANCH  39  40
ATOM     40  C   LIG    1       24.767 -28.405  12.938  0.00  0.00    +0.293 C 
ATOM     41  C   LIG    1       25.652 -27.306  13.664  0.00  0.00    +0.249 C 
ATOM     42  C   LIG    1       25.032 -25.862  13.780  0.00  0.00    +0.104 C 
ATOM     43  C   LIG    1       23.684 -25.747  13.071  0.00  0.00    +0.054 C 
ATOM     44  C   LIG    1       22.877 -26.947  13.540  0.00  0.00    +0.120 C 
ATOM     45  C   LIG    1       21.376 -26.733  13.315  0.00  0.00    +0.038 C 
ATOM     46  O   LIG    1       23.351 -28.087  12.820  0.00  0.00    -0.345 OA
BRANCH  42  47
ATOM     47  N   LIG    1       25.972 -24.734  13.562  0.00  0.00    -0.302 NA
ATOM     48  C   LIG    1       26.458 -24.082  14.770  0.00  0.00    +0.105 C 
ATOM     49  C   LIG    1       27.106 -25.101  12.707  0.00  0.00    +0.105 C 
ENDBRANCH  42  47
BRANCH  41  50
ATOM     50  O   LIG    1       25.781 -27.820  15.050  0.00  0.00    -0.455 OA
BRANCH  50  51
ATOM     51  C   LIG    1       26.742 -28.730  15.332  0.00  0.00    +0.304 C 
ATOM     52  O   LIG    1       26.568 -29.935  15.499  0.00  0.00    -0.251 OA
ATOM     53  C   LIG    1       28.092 -28.070  15.418  0.00  0.00    +0.136 C 
ENDBRANCH  50  51
ENDBRANCH  41  50
ENDBRANCH  39  40
ENDBRANCH   4  39
BRANCH  15  54
ATOM     54  O   LIG    1       19.662 -30.146  13.259  0.00  0.00    -0.460 OA
BRANCH  54  55
ATOM     55  C   LIG    1       18.637 -29.695  14.040  0.00  0.00    +0.304 C 
ATOM     56  O   LIG    1       17.564 -29.256  13.631  0.00  0.00    -0.251 OA
ATOM     57  C   LIG    1       19.001 -29.683  15.499  0.00  0.00    +0.136 C 
ENDBRANCH  54  55
ENDBRANCH  15  54
TORSDOF 12
ENDMDL
