MODEL 1
REMARK VINA RESULT:      -8.8      0.000      0.000
REMARK  Name = *****
REMARK                            x       y       z     vdW  Elec       q    Type
REMARK                         _______ _______ _______ _____ _____    ______ ____
ROOT
ATOM      1  C   LIG    1       27.104 -20.264   7.221  0.00  0.00    +0.022 C 
ATOM      2  C   LIG    1       25.800 -20.728   6.629  0.00  0.00    -0.034 A 
ATOM      3  C   LIG    1       25.007 -21.432   7.566  0.00  0.00    -0.043 A 
ATOM      4  C   LIG    1       23.769 -22.028   7.391  0.00  0.00    +0.007 A 
ATOM      5  C   LIG    1       23.214 -21.895   6.145  0.00  0.00    +0.046 A 
ATOM      6  C   LIG    1       23.937 -21.149   5.236  0.00  0.00    +0.124 A 
ATOM      7  O   LIG    1       23.401 -20.912   3.975  0.00  0.00    -0.491 OA
ATOM      8  C   LIG    1       24.446 -20.242   3.225  0.00  0.00    +0.234 C 
ATOM      9  C   LIG    1       25.526 -19.747   4.192  0.00  0.00    +0.080 C 
ATOM     10  C   LIG    1       25.691 -21.462   8.905  0.00  0.00    +0.036 C 
ATOM     11  C   LIG    1       25.175 -20.516   5.393  0.00  0.00    +0.001 A 
ATOM     12  C   LIG    1       26.803 -20.397   8.747  0.00  0.00    +0.013 C 
ENDROOT
BRANCH   1  13
ATOM     13  C   LIG    1       28.297 -21.155   6.839  0.00  0.00    +0.027 C 
BRANCH  13  14
ATOM     14  C   LIG    1       29.438 -21.108   7.853  0.00  0.00    +0.104 C 
BRANCH  14  16
ATOM     15  C   LIG    1       31.145 -19.507   8.675  0.00  0.00    +0.213 C 
ATOM     16  N   LIG    1       29.955 -19.767   8.032  0.00  0.00    -0.315 N 
ATOM     17  H   LIG    1       29.428 -18.996   7.642  0.00  0.00    +0.149 HD
ATOM     18  O   LIG    1       31.868 -20.381   9.142  0.00  0.00    -0.276 OA
BRANCH  15  20
ATOM     19  C   LIG    1       30.383 -17.233   9.475  0.00  0.00    +0.013 C 
ATOM     20  C   LIG    1       31.454 -18.022   8.743  0.00  0.00    +0.092 C 
ENDBRANCH  15  20
ENDBRANCH  14  16
ENDBRANCH  13  14
ENDBRANCH   1  13
TORSDOF 4
ENDMDL
MODEL 2
REMARK VINA RESULT:      -8.7      3.283      6.430
REMARK  Name = *****
REMARK                            x       y       z     vdW  Elec       q    Type
REMARK                         _______ _______ _______ _____ _____    ______ ____
ROOT
ATOM      1  C   LIG    1       23.031 -20.641   6.198  0.00  0.00    +0.022 C 
ATOM      2  C   LIG    1       24.519 -20.482   6.029  0.00  0.00    -0.034 A 
ATOM      3  C   LIG    1       24.855 -19.869   4.799  0.00  0.00    -0.043 A 
ATOM      4  C   LIG    1       26.106 -19.581   4.279  0.00  0.00    +0.007 A 
ATOM      5  C   LIG    1       27.173 -19.905   5.077  0.00  0.00    +0.046 A 
ATOM      6  C   LIG    1       26.865 -20.438   6.313  0.00  0.00    +0.124 A 
ATOM      7  O   LIG    1       27.895 -20.724   7.203  0.00  0.00    -0.491 OA
ATOM      8  C   LIG    1       27.267 -21.395   8.325  0.00  0.00    +0.234 C 
ATOM      9  C   LIG    1       25.750 -21.187   8.256  0.00  0.00    +0.080 C 
ATOM     10  C   LIG    1       23.608 -19.508   4.042  0.00  0.00    +0.036 C 
ATOM     11  C   LIG    1       25.613 -20.715   6.872  0.00  0.00    +0.001 A 
ATOM     12  C   LIG    1       22.500 -19.651   5.114  0.00  0.00    +0.013 C 
ENDROOT
BRANCH   1  13
ATOM     13  C   LIG    1       22.533 -22.064   5.902  0.00  0.00    +0.027 C 
BRANCH  13  14
ATOM     14  C   LIG    1       22.912 -23.077   6.980  0.00  0.00    +0.104 C 
BRANCH  14  16
ATOM     15  C   LIG    1       24.439 -24.830   6.117  0.00  0.00    +0.213 C 
ATOM     16  N   LIG    1       23.171 -24.390   6.429  0.00  0.00    -0.315 N 
ATOM     17  H   LIG    1       22.387 -25.016   6.296  0.00  0.00    +0.149 HD
ATOM     18  O   LIG    1       25.450 -24.156   6.283  0.00  0.00    -0.276 OA
BRANCH  15  20
ATOM     19  C   LIG    1       25.788 -26.637   4.973  0.00  0.00    +0.013 C 
ATOM     20  C   LIG    1       24.439 -26.235   5.542  0.00  0.00    +0.092 C 
ENDBRANCH  15  20
ENDBRANCH  14  16
ENDBRANCH  13  14
ENDBRANCH   1  13
TORSDOF 4
ENDMDL
MODEL 3
REMARK VINA RESULT:      -8.6      2.635      3.391
REMARK  Name = *****
REMARK                            x       y       z     vdW  Elec       q    Type
REMARK                         _______ _______ _______ _____ _____    ______ ____
ROOT
ATOM      1  C   LIG    1       26.474 -21.821   6.768  0.00  0.00    +0.022 C 
ATOM      2  C   LIG    1       25.305 -22.769   6.722  0.00  0.00    -0.034 A 
ATOM      3  C   LIG    1       24.065 -22.092   6.807  0.00  0.00    -0.043 A 
ATOM      4  C   LIG    1       22.783 -22.616   6.823  0.00  0.00    +0.007 A 
ATOM      5  C   LIG    1       22.695 -23.980   6.710  0.00  0.00    +0.046 A 
ATOM      6  C   LIG    1       23.889 -24.653   6.553  0.00  0.00    +0.124 A 
ATOM      7  O   LIG    1       23.870 -26.031   6.361  0.00  0.00    -0.491 OA
ATOM      8  C   LIG    1       25.258 -26.447   6.380  0.00  0.00    +0.234 C 
ATOM      9  C   LIG    1       26.159 -25.217   6.226  0.00  0.00    +0.080 C 
ATOM     10  C   LIG    1       24.288 -20.606   6.866  0.00  0.00    +0.036 C 
ATOM     11  C   LIG    1       25.192 -24.148   6.508  0.00  0.00    +0.001 A 
ATOM     12  C   LIG    1       25.772 -20.464   6.449  0.00  0.00    +0.013 C 
ENDROOT
BRANCH   1  13
ATOM     13  C   LIG    1       27.150 -21.754   8.147  0.00  0.00    +0.027 C 
BRANCH  13  14
ATOM     14  C   LIG    1       28.674 -21.696   8.074  0.00  0.00    +0.104 C 
BRANCH  14  16
ATOM     15  C   LIG    1       29.506 -19.391   7.693  0.00  0.00    +0.213 C 
ATOM     16  N   LIG    1       29.140 -20.629   7.212  0.00  0.00    -0.315 N 
ATOM     17  H   LIG    1       29.222 -20.817   6.221  0.00  0.00    +0.149 HD
ATOM     18  O   LIG    1       29.478 -19.089   8.881  0.00  0.00    -0.276 OA
BRANCH  15  20
ATOM     19  C   LIG    1       29.075 -18.556   5.346  0.00  0.00    +0.013 C 
ATOM     20  C   LIG    1       29.944 -18.448   6.586  0.00  0.00    +0.092 C 
ENDBRANCH  15  20
ENDBRANCH  14  16
ENDBRANCH  13  14
ENDBRANCH   1  13
TORSDOF 4
ENDMDL
MODEL 4
REMARK VINA RESULT:      -8.5      3.449      5.575
REMARK  Name = *****
REMARK                            x       y       z     vdW  Elec       q    Type
REMARK                         _______ _______ _______ _____ _____    ______ ____
ROOT
ATOM      1  C   LIG    1       25.222 -20.138   4.050  0.00  0.00    +0.022 C 
ATOM      2  C   LIG    1       25.641 -20.325   5.484  0.00  0.00    -0.034 A 
ATOM      3  C   LIG    1       24.608 -20.881   6.275  0.00  0.00    -0.043 A 
ATOM      4  C   LIG    1       24.604 -21.173   7.629  0.00  0.00    +0.007 A 
ATOM      5  C   LIG    1       25.774 -20.918   8.297  0.00  0.00    +0.046 A 
ATOM      6  C   LIG    1       26.819 -20.444   7.529  0.00  0.00    +0.124 A 
ATOM      7  O   LIG    1       28.057 -20.232   8.127  0.00  0.00    -0.491 OA
ATOM      8  C   LIG    1       28.879 -19.605   7.111  0.00  0.00    +0.234 C 
ATOM      9  C   LIG    1       28.210 -19.771   5.743  0.00  0.00    +0.080 C 
ATOM     10  C   LIG    1       23.402 -21.170   5.424  0.00  0.00    +0.036 C 
ATOM     11  C   LIG    1       26.858 -20.165   6.160  0.00  0.00    +0.001 A 
ATOM     12  C   LIG    1       23.961 -21.056   3.985  0.00  0.00    +0.013 C 
ENDROOT
BRANCH   1  13
ATOM     13  C   LIG    1       24.838 -18.689   3.712  0.00  0.00    +0.027 C 
BRANCH  13  14
ATOM     14  C   LIG    1       26.039 -17.799   3.403  0.00  0.00    +0.104 C 
BRANCH  14  16
ATOM     15  C   LIG    1       26.501 -15.363   3.474  0.00  0.00    +0.213 C 
ATOM     16  N   LIG    1       25.658 -16.417   3.199  0.00  0.00    -0.315 N 
ATOM     17  H   LIG    1       24.742 -16.227   2.813  0.00  0.00    +0.149 HD
ATOM     18  O   LIG    1       27.641 -15.502   3.904  0.00  0.00    -0.276 OA
BRANCH  15  20
ATOM     19  C   LIG    1       24.720 -13.697   4.140  0.00  0.00    +0.013 C 
ATOM     20  C   LIG    1       25.858 -14.018   3.187  0.00  0.00    +0.092 C 
ENDBRANCH  15  20
ENDBRANCH  14  16
ENDBRANCH  13  14
ENDBRANCH   1  13
TORSDOF 4
ENDMDL
MODEL 5
REMARK VINA RESULT:      -8.1      3.723      6.361
REMARK  Name = *****
REMARK                            x       y       z     vdW  Elec       q    Type
REMARK                         _______ _______ _______ _____ _____    ______ ____
ROOT
ATOM      1  C   LIG    1       24.405 -22.193   7.336  0.00  0.00    +0.022 C 
ATOM      2  C   LIG    1       25.135 -21.284   6.384  0.00  0.00    -0.034 A 
ATOM      3  C   LIG    1       24.281 -20.756   5.386  0.00  0.00    -0.043 A 
ATOM      4  C   LIG    1       24.586 -19.913   4.331  0.00  0.00    +0.007 A 
ATOM      5  C   LIG    1       25.893 -19.503   4.254  0.00  0.00    +0.046 A 
ATOM      6  C   LIG    1       26.728 -19.947   5.260  0.00  0.00    +0.124 A 
ATOM      7  O   LIG    1       28.048 -19.513   5.285  0.00  0.00    -0.491 OA
ATOM      8  C   LIG    1       28.685 -20.260   6.352  0.00  0.00    +0.234 C 
ATOM      9  C   LIG    1       27.609 -20.911   7.227  0.00  0.00    +0.080 C 
ATOM     10  C   LIG    1       22.871 -21.227   5.609  0.00  0.00    +0.036 C 
ATOM     11  C   LIG    1       26.440 -20.777   6.348  0.00  0.00    +0.001 A 
ATOM     12  C   LIG    1       22.922 -21.799   7.047  0.00  0.00    +0.013 C 
ENDROOT
BRANCH   1  13
ATOM     13  C   LIG    1       24.621 -23.685   7.039  0.00  0.00    +0.027 C 
BRANCH  13  14
ATOM     14  C   LIG    1       24.963 -23.971   5.579  0.00  0.00    +0.104 C 
BRANCH  14  16
ATOM     15  C   LIG    1       25.636 -26.347   5.351  0.00  0.00    +0.213 C 
ATOM     16  N   LIG    1       24.698 -25.347   5.215  0.00  0.00    -0.315 N 
ATOM     17  H   LIG    1       23.775 -25.581   4.872  0.00  0.00    +0.149 HD
ATOM     18  O   LIG    1       26.764 -26.162   5.795  0.00  0.00    -0.276 OA
BRANCH  15  20
ATOM     19  C   LIG    1       24.341 -28.429   5.967  0.00  0.00    +0.013 C 
ATOM     20  C   LIG    1       25.115 -27.695   4.887  0.00  0.00    +0.092 C 
ENDBRANCH  15  20
ENDBRANCH  14  16
ENDBRANCH  13  14
ENDBRANCH   1  13
TORSDOF 4
ENDMDL
MODEL 6
REMARK VINA RESULT:      -8.1      1.417      1.564
REMARK  Name = *****
REMARK                            x       y       z     vdW  Elec       q    Type
REMARK                         _______ _______ _______ _____ _____    ______ ____
ROOT
ATOM      1  C   LIG    1       26.154 -20.378   7.060  0.00  0.00    +0.022 C 
ATOM      2  C   LIG    1       24.901 -21.115   6.669  0.00  0.00    -0.034 A 
ATOM      3  C   LIG    1       24.852 -22.418   7.220  0.00  0.00    -0.043 A 
ATOM      4  C   LIG    1       23.883 -23.396   7.068  0.00  0.00    +0.007 A 
ATOM      5  C   LIG    1       22.801 -23.048   6.301  0.00  0.00    +0.046 A 
ATOM      6  C   LIG    1       22.793 -21.756   5.813  0.00  0.00    +0.124 A 
ATOM      7  O   LIG    1       21.693 -21.313   5.088  0.00  0.00    -0.491 OA
ATOM      8  C   LIG    1       22.051 -19.995   4.601  0.00  0.00    +0.234 C 
ATOM      9  C   LIG    1       23.281 -19.490   5.363  0.00  0.00    +0.080 C 
ATOM     10  C   LIG    1       26.058 -22.660   8.084  0.00  0.00    +0.036 C 
ATOM     11  C   LIG    1       23.744 -20.743   5.972  0.00  0.00    +0.001 A 
ATOM     12  C   LIG    1       26.642 -21.238   8.268  0.00  0.00    +0.013 C 
ENDROOT
BRANCH   1  13
ATOM     13  C   LIG    1       27.223 -20.366   5.956  0.00  0.00    +0.027 C 
BRANCH  13  14
ATOM     14  C   LIG    1       28.644 -20.551   6.484  0.00  0.00    +0.104 C 
BRANCH  14  16
ATOM     15  C   LIG    1       29.898 -19.271   8.199  0.00  0.00    +0.213 C 
ATOM     16  N   LIG    1       29.193 -19.321   7.017  0.00  0.00    -0.315 N 
ATOM     17  H   LIG    1       29.072 -18.472   6.480  0.00  0.00    +0.149 HD
ATOM     18  O   LIG    1       30.128 -20.256   8.894  0.00  0.00    -0.276 OA
BRANCH  15  20
ATOM     19  C   LIG    1       30.314 -17.582  10.034  0.00  0.00    +0.013 C 
ATOM     20  C   LIG    1       30.353 -17.864   8.542  0.00  0.00    +0.092 C 
ENDBRANCH  15  20
ENDBRANCH  14  16
ENDBRANCH  13  14
ENDBRANCH   1  13
TORSDOF 4
ENDMDL
MODEL 7
REMARK VINA RESULT:      -8.0      2.418      3.484
REMARK  Name = *****
REMARK                            x       y       z     vdW  Elec       q    Type
REMARK                         _______ _______ _______ _____ _____    ______ ____
ROOT
ATOM      1  C   LIG    1       25.939 -21.416   5.555  0.00  0.00    +0.022 C 
ATOM      2  C   LIG    1       24.906 -22.428   5.972  0.00  0.00    -0.034 A 
ATOM      3  C   LIG    1       23.642 -21.836   6.208  0.00  0.00    -0.043 A 
ATOM      4  C   LIG    1       22.463 -22.430   6.626  0.00  0.00    +0.007 A 
ATOM      5  C   LIG    1       22.512 -23.788   6.811  0.00  0.00    +0.046 A 
ATOM      6  C   LIG    1       23.716 -24.396   6.517  0.00  0.00    +0.124 A 
ATOM      7  O   LIG    1       23.816 -25.780   6.612  0.00  0.00    -0.491 OA
ATOM      8  C   LIG    1       25.216 -26.086   6.389  0.00  0.00    +0.234 C 
ATOM      9  C   LIG    1       25.914 -24.861   5.788  0.00  0.00    +0.080 C 
ATOM     10  C   LIG    1       23.698 -20.362   5.917  0.00  0.00    +0.036 C 
ATOM     11  C   LIG    1       24.912 -23.825   6.070  0.00  0.00    +0.001 A 
ATOM     12  C   LIG    1       25.032 -20.213   5.146  0.00  0.00    +0.013 C 
ENDROOT
BRANCH   1  13
ATOM     13  C   LIG    1       26.881 -21.001   6.696  0.00  0.00    +0.027 C 
BRANCH  13  14
ATOM     14  C   LIG    1       28.079 -20.179   6.227  0.00  0.00    +0.104 C 
BRANCH  14  16
ATOM     15  C   LIG    1       29.816 -20.142   7.997  0.00  0.00    +0.213 C 
ATOM     16  N   LIG    1       29.321 -20.640   6.812  0.00  0.00    -0.315 N 
ATOM     17  H   LIG    1       29.827 -21.378   6.339  0.00  0.00    +0.149 HD
ATOM     18  O   LIG    1       29.250 -19.278   8.658  0.00  0.00    -0.276 OA
BRANCH  15  20
ATOM     19  C   LIG    1       30.962 -21.984   9.295  0.00  0.00    +0.013 C 
ATOM     20  C   LIG    1       31.137 -20.780   8.386  0.00  0.00    +0.092 C 
ENDBRANCH  15  20
ENDBRANCH  14  16
ENDBRANCH  13  14
ENDBRANCH   1  13
TORSDOF 4
ENDMDL
MODEL 8
REMARK VINA RESULT:      -7.8      3.103      7.075
REMARK  Name = *****
REMARK                            x       y       z     vdW  Elec       q    Type
REMARK                         _______ _______ _______ _____ _____    ______ ____
ROOT
ATOM      1  C   LIG    1       26.771 -21.542   7.620  0.00  0.00    +0.022 C 
ATOM      2  C   LIG    1       28.041 -20.823   7.249  0.00  0.00    -0.034 A 
ATOM      3  C   LIG    1       27.855 -19.937   6.161  0.00  0.00    -0.043 A 
ATOM      4  C   LIG    1       28.782 -19.129   5.524  0.00  0.00    +0.007 A 
ATOM      5  C   LIG    1       30.054 -19.164   6.034  0.00  0.00    +0.046 A 
ATOM      6  C   LIG    1       30.241 -19.968   7.141  0.00  0.00    +0.124 A 
ATOM      7  O   LIG    1       31.489 -19.996   7.754  0.00  0.00    -0.491 OA
ATOM      8  C   LIG    1       31.401 -21.025   8.772  0.00  0.00    +0.234 C 
ATOM      9  C   LIG    1       29.930 -21.380   9.008  0.00  0.00    +0.080 C 
ATOM     10  C   LIG    1       26.415 -19.941   5.730  0.00  0.00    +0.036 C 
ATOM     11  C   LIG    1       29.320 -20.772   7.818  0.00  0.00    +0.001 A 
ATOM     12  C   LIG    1       25.705 -20.654   6.906  0.00  0.00    +0.013 C 
ENDROOT
BRANCH   1  13
ATOM     13  C   LIG    1       26.706 -22.980   7.082  0.00  0.00    +0.027 C 
BRANCH  13  14
ATOM     14  C   LIG    1       25.470 -23.253   6.227  0.00  0.00    +0.104 C 
BRANCH  14  16
ATOM     15  C   LIG    1       24.132 -25.341   6.182  0.00  0.00    +0.213 C 
ATOM     16  N   LIG    1       25.306 -24.662   5.938  0.00  0.00    -0.315 N 
ATOM     17  H   LIG    1       26.080 -25.156   5.513  0.00  0.00    +0.149 HD
ATOM     18  O   LIG    1       23.130 -24.814   6.655  0.00  0.00    -0.276 OA
BRANCH  15  20
ATOM     19  C   LIG    1       25.310 -27.544   6.566  0.00  0.00    +0.013 C 
ATOM     20  C   LIG    1       24.223 -26.808   5.804  0.00  0.00    +0.092 C 
ENDBRANCH  15  20
ENDBRANCH  14  16
ENDBRANCH  13  14
ENDBRANCH   1  13
TORSDOF 4
ENDMDL
MODEL 9
REMARK VINA RESULT:      -7.5      6.280      8.466
REMARK  Name = *****
REMARK                            x       y       z     vdW  Elec       q    Type
REMARK                         _______ _______ _______ _____ _____    ______ ____
ROOT
ATOM      1  C   LIG    1       26.246 -26.643   6.528  0.00  0.00    +0.022 C 
ATOM      2  C   LIG    1       25.646 -27.888   7.125  0.00  0.00    -0.034 A 
ATOM      3  C   LIG    1       24.806 -28.569   6.211  0.00  0.00    -0.043 A 
ATOM      4  C   LIG    1       24.065 -29.724   6.399  0.00  0.00    +0.007 A 
ATOM      5  C   LIG    1       24.181 -30.313   7.631  0.00  0.00    +0.046 A 
ATOM      6  C   LIG    1       25.053 -29.706   8.514  0.00  0.00    +0.124 A 
ATOM      7  O   LIG    1       25.274 -30.290   9.756  0.00  0.00    -0.491 OA
ATOM      8  C   LIG    1       26.104 -29.352  10.487  0.00  0.00    +0.234 C 
ATOM      9  C   LIG    1       26.690 -28.326   9.511  0.00  0.00    +0.080 C 
ATOM     10  C   LIG    1       24.805 -27.863   4.884  0.00  0.00    +0.036 C 
ATOM     11  C   LIG    1       25.830 -28.557   8.342  0.00  0.00    +0.001 A 
ATOM     12  C   LIG    1       26.010 -26.898   5.006  0.00  0.00    +0.013 C 
ENDROOT
BRANCH   1  13
ATOM     13  C   LIG    1       25.533 -25.354   6.963  0.00  0.00    +0.027 C 
BRANCH  13  14
ATOM     14  C   LIG    1       25.171 -24.436   5.797  0.00  0.00    +0.104 C 
BRANCH  14  16
ATOM     15  C   LIG    1       23.438 -22.901   6.687  0.00  0.00    +0.213 C 
ATOM     16  N   LIG    1       24.722 -23.135   6.245  0.00  0.00    -0.315 N 
ATOM     17  H   LIG    1       25.392 -22.376   6.257  0.00  0.00    +0.149 HD
ATOM     18  O   LIG    1       22.573 -23.769   6.746  0.00  0.00    -0.276 OA
BRANCH  15  20
ATOM     19  C   LIG    1       22.943 -20.552   5.896  0.00  0.00    +0.013 C 
ATOM     20  C   LIG    1       23.218 -21.453   7.087  0.00  0.00    +0.092 C 
ENDBRANCH  15  20
ENDBRANCH  14  16
ENDBRANCH  13  14
ENDBRANCH   1  13
TORSDOF 4
ENDMDL
