MODEL 1
REMARK VINA RESULT:      -5.4      0.000      0.000
REMARK  Name = *****
REMARK                            x       y       z     vdW  Elec       q    Type
REMARK                         _______ _______ _______ _____ _____    ______ ____
ROOT
ATOM      1  C   LIG    1       22.596 -16.695   4.684  0.00  0.00    +0.167 C 
ATOM      2  O   LIG    1       21.885 -16.171   5.552  0.00  0.00    -0.292 OA
ENDROOT
BRANCH   1   6
ATOM      3  C   LIG    1       25.921 -14.311   3.277  0.00  0.00    -0.048 A 
ATOM      4  C   LIG    1       26.004 -15.707   3.259  0.00  0.00    +0.004 A 
ATOM      5  C   LIG    1       24.926 -16.499   3.668  0.00  0.00    +0.012 A 
ATOM      6  C   LIG    1       23.745 -15.905   4.125  0.00  0.00    +0.018 A 
ATOM      7  C   LIG    1       23.633 -14.506   4.071  0.00  0.00    +0.012 A 
ATOM      8  C   LIG    1       24.713 -13.716   3.654  0.00  0.00    +0.004 A 
BRANCH   3  10
ATOM      9  C   LIG    1       28.208 -13.547   4.020  0.00  0.00    +0.009 C 
ATOM     10  C   LIG    1       27.134 -13.478   2.944  0.00  0.00    +0.032 C 
ENDBRANCH   3  10
ENDBRANCH   1   6
BRANCH   1  11
ATOM     11  C   LIG    1       22.387 -18.147   4.241  0.00  0.00    +0.071 C 
ATOM     12  C   LIG    1       21.018 -18.350   3.585  0.00  0.00    +0.017 C 
BRANCH  11  13
ATOM     13  C   LIG    1       22.599 -19.097   5.445  0.00  0.00    +0.095 C 
BRANCH  13  14
ATOM     14  N   LIG    1       22.949 -20.491   5.081  0.00  0.00    -0.302 NA
ATOM     15  C   LIG    1       24.093 -20.601   4.165  0.00  0.00    +0.084 C 
ATOM     16  C   LIG    1       25.415 -20.161   4.792  0.00  0.00    +0.015 C 
ATOM     17  C   LIG    1       25.702 -20.910   6.092  0.00  0.00    +0.002 C 
ATOM     18  C   LIG    1       24.490 -20.949   7.019  0.00  0.00    +0.015 C 
ATOM     19  C   LIG    1       23.209 -21.329   6.269  0.00  0.00    +0.084 C 
ENDBRANCH  13  14
ENDBRANCH  11  13
ENDBRANCH   1  11
TORSDOF 5
ENDMDL
MODEL 2
REMARK VINA RESULT:      -3.5      2.085      3.202
REMARK  Name = *****
REMARK                            x       y       z     vdW  Elec       q    Type
REMARK                         _______ _______ _______ _____ _____    ______ ____
ROOT
ATOM      1  C   LIG    1       26.657 -17.250   3.732  0.00  0.00    +0.167 C 
ATOM      2  O   LIG    1       27.871 -17.392   3.931  0.00  0.00    -0.292 OA
ENDROOT
BRANCH   1   6
ATOM      3  C   LIG    1       25.149 -13.291   2.850  0.00  0.00    -0.048 A 
ATOM      4  C   LIG    1       24.371 -14.189   3.589  0.00  0.00    +0.004 A 
ATOM      5  C   LIG    1       24.854 -15.458   3.923  0.00  0.00    +0.012 A 
ATOM      6  C   LIG    1       26.126 -15.864   3.505  0.00  0.00    +0.018 A 
ATOM      7  C   LIG    1       26.937 -14.936   2.830  0.00  0.00    +0.012 A 
ATOM      8  C   LIG    1       26.452 -13.663   2.503  0.00  0.00    +0.004 A 
BRANCH   3  10
ATOM      9  C   LIG    1       23.504 -11.447   3.357  0.00  0.00    +0.009 C 
ATOM     10  C   LIG    1       24.564 -11.975   2.401  0.00  0.00    +0.032 C 
ENDBRANCH   3  10
ENDBRANCH   1   6
BRANCH   1  11
ATOM     11  C   LIG    1       25.713 -18.452   3.624  0.00  0.00    +0.071 C 
ATOM     12  C   LIG    1       24.271 -18.018   3.342  0.00  0.00    +0.017 C 
BRANCH  11  13
ATOM     13  C   LIG    1       25.818 -19.316   4.903  0.00  0.00    +0.095 C 
BRANCH  13  14
ATOM     14  N   LIG    1       25.447 -20.740   4.722  0.00  0.00    -0.302 NA
ATOM     15  C   LIG    1       25.610 -21.559   5.931  0.00  0.00    +0.084 C 
ATOM     16  C   LIG    1       24.641 -21.184   7.052  0.00  0.00    +0.015 C 
ATOM     17  C   LIG    1       23.188 -21.217   6.580  0.00  0.00    +0.002 C 
ATOM     18  C   LIG    1       22.995 -20.500   5.246  0.00  0.00    +0.015 C 
ATOM     19  C   LIG    1       24.065 -20.897   4.223  0.00  0.00    +0.084 C 
ENDBRANCH  13  14
ENDBRANCH  11  13
ENDBRANCH   1  11
TORSDOF 5
ENDMDL
MODEL 3
REMARK VINA RESULT:      -3.5      2.488      6.682
REMARK  Name = *****
REMARK                            x       y       z     vdW  Elec       q    Type
REMARK                         _______ _______ _______ _____ _____    ______ ____
ROOT
ATOM      1  C   LIG    1       25.144 -16.350   3.475  0.00  0.00    +0.167 C 
ATOM      2  O   LIG    1       26.188 -16.291   2.812  0.00  0.00    -0.292 OA
ENDROOT
BRANCH   1   6
ATOM      3  C   LIG    1       23.727 -20.253   4.691  0.00  0.00    -0.048 A 
ATOM      4  C   LIG    1       22.837 -19.176   4.619  0.00  0.00    +0.004 A 
ATOM      5  C   LIG    1       23.263 -17.916   4.187  0.00  0.00    +0.012 A 
ATOM      6  C   LIG    1       24.600 -17.702   3.836  0.00  0.00    +0.018 A 
ATOM      7  C   LIG    1       25.476 -18.800   3.835  0.00  0.00    +0.012 A 
ATOM      8  C   LIG    1       25.045 -20.063   4.262  0.00  0.00    +0.004 A 
BRANCH   3  10
ATOM      9  C   LIG    1       23.135 -21.529   6.786  0.00  0.00    +0.009 C 
ATOM     10  C   LIG    1       23.274 -21.570   5.271  0.00  0.00    +0.032 C 
ENDBRANCH   3  10
ENDBRANCH   1   6
BRANCH   1  11
ATOM     11  C   LIG    1       24.455 -15.088   4.005  0.00  0.00    +0.071 C 
ATOM     12  C   LIG    1       23.036 -15.382   4.502  0.00  0.00    +0.017 C 
BRANCH  11  13
ATOM     13  C   LIG    1       24.471 -13.987   2.918  0.00  0.00    +0.095 C 
BRANCH  13  14
ATOM     14  N   LIG    1       25.064 -12.698   3.349  0.00  0.00    -0.302 NA
ATOM     15  C   LIG    1       25.361 -12.628   4.787  0.00  0.00    +0.084 C 
ATOM     16  C   LIG    1       26.476 -13.580   5.222  0.00  0.00    +0.015 C 
ATOM     17  C   LIG    1       27.749 -13.372   4.405  0.00  0.00    +0.002 C 
ATOM     18  C   LIG    1       27.472 -13.290   2.906  0.00  0.00    +0.015 C 
ATOM     19  C   LIG    1       26.289 -12.367   2.594  0.00  0.00    +0.084 C 
ENDBRANCH  13  14
ENDBRANCH  11  13
ENDBRANCH   1  11
TORSDOF 5
ENDMDL
MODEL 4
REMARK VINA RESULT:      -3.1      1.492      2.521
REMARK  Name = *****
REMARK                            x       y       z     vdW  Elec       q    Type
REMARK                         _______ _______ _______ _____ _____    ______ ____
ROOT
ATOM      1  C   LIG    1       23.424 -14.733   3.643  0.00  0.00    +0.167 C 
ATOM      2  O   LIG    1       22.716 -13.954   2.992  0.00  0.00    -0.292 OA
ENDROOT
BRANCH   1   6
ATOM      3  C   LIG    1       27.590 -13.618   4.001  0.00  0.00    -0.048 A 
ATOM      4  C   LIG    1       26.714 -13.407   5.072  0.00  0.00    +0.004 A 
ATOM      5  C   LIG    1       25.374 -13.799   4.995  0.00  0.00    +0.012 A 
ATOM      6  C   LIG    1       24.875 -14.395   3.831  0.00  0.00    +0.018 A 
ATOM      7  C   LIG    1       25.771 -14.675   2.786  0.00  0.00    +0.012 A 
ATOM      8  C   LIG    1       27.115 -14.288   2.869  0.00  0.00    +0.004 A 
BRANCH   3  10
ATOM      9  C   LIG    1       29.135 -11.890   4.997  0.00  0.00    +0.009 C 
ATOM     10  C   LIG    1       28.999 -13.082   4.062  0.00  0.00    +0.032 C 
ENDBRANCH   3  10
ENDBRANCH   1   6
BRANCH   1  11
ATOM     11  C   LIG    1       22.839 -15.972   4.329  0.00  0.00    +0.071 C 
ATOM     12  C   LIG    1       22.409 -15.674   5.769  0.00  0.00    +0.017 C 
BRANCH  11  13
ATOM     13  C   LIG    1       23.855 -17.138   4.258  0.00  0.00    +0.095 C 
BRANCH  13  14
ATOM     14  N   LIG    1       23.343 -18.366   3.604  0.00  0.00    -0.302 NA
ATOM     15  C   LIG    1       24.383 -19.362   3.305  0.00  0.00    +0.084 C 
ATOM     16  C   LIG    1       25.007 -19.979   4.557  0.00  0.00    +0.015 C 
ATOM     17  C   LIG    1       23.948 -20.577   5.481  0.00  0.00    +0.002 C 
ATOM     18  C   LIG    1       22.771 -19.632   5.705  0.00  0.00    +0.015 C 
ATOM     19  C   LIG    1       22.276 -19.015   4.392  0.00  0.00    +0.084 C 
ENDBRANCH  13  14
ENDBRANCH  11  13
ENDBRANCH   1  11
TORSDOF 5
ENDMDL
MODEL 5
REMARK VINA RESULT:      -3.0      2.536      4.165
REMARK  Name = *****
REMARK                            x       y       z     vdW  Elec       q    Type
REMARK                         _______ _______ _______ _____ _____    ______ ____
ROOT
ATOM      1  C   LIG    1       28.234 -18.591   5.167  0.00  0.00    +0.167 C 
ATOM      2  O   LIG    1       29.465 -18.722   5.137  0.00  0.00    -0.292 OA
ENDROOT
BRANCH   1   6
ATOM      3  C   LIG    1       26.276 -15.237   3.258  0.00  0.00    -0.048 A 
ATOM      4  C   LIG    1       27.474 -15.045   3.956  0.00  0.00    +0.004 A 
ATOM      5  C   LIG    1       28.147 -16.121   4.544  0.00  0.00    +0.012 A 
ATOM      6  C   LIG    1       27.622 -17.415   4.463  0.00  0.00    +0.018 A 
ATOM      7  C   LIG    1       26.460 -17.620   3.699  0.00  0.00    +0.012 A 
ATOM      8  C   LIG    1       25.792 -16.541   3.105  0.00  0.00    +0.004 A 
BRANCH   3  10
ATOM      9  C   LIG    1       24.295 -13.712   3.589  0.00  0.00    +0.009 C 
ATOM     10  C   LIG    1       25.508 -14.050   2.734  0.00  0.00    +0.032 C 
ENDBRANCH   3  10
ENDBRANCH   1   6
BRANCH   1  11
ATOM     11  C   LIG    1       27.328 -19.640   5.821  0.00  0.00    +0.071 C 
ATOM     12  C   LIG    1       28.127 -20.843   6.332  0.00  0.00    +0.017 C 
BRANCH  11  13
ATOM     13  C   LIG    1       26.217 -20.061   4.830  0.00  0.00    +0.095 C 
BRANCH  13  14
ATOM     14  N   LIG    1       25.505 -21.311   5.192  0.00  0.00    -0.302 NA
ATOM     15  C   LIG    1       25.052 -21.359   6.589  0.00  0.00    +0.084 C 
ATOM     16  C   LIG    1       23.956 -20.341   6.905  0.00  0.00    +0.015 C 
ATOM     17  C   LIG    1       22.767 -20.476   5.956  0.00  0.00    +0.002 C 
ATOM     18  C   LIG    1       23.199 -20.578   4.495  0.00  0.00    +0.015 C 
ATOM     19  C   LIG    1       24.351 -21.571   4.308  0.00  0.00    +0.084 C 
ENDBRANCH  13  14
ENDBRANCH  11  13
ENDBRANCH   1  11
TORSDOF 5
ENDMDL
MODEL 6
REMARK VINA RESULT:      -2.9      2.611      6.879
REMARK  Name = *****
REMARK                            x       y       z     vdW  Elec       q    Type
REMARK                         _______ _______ _______ _____ _____    ______ ____
ROOT
ATOM      1  C   LIG    1       25.460 -16.692   3.440  0.00  0.00    +0.167 C 
ATOM      2  O   LIG    1       26.583 -16.849   2.942  0.00  0.00    -0.292 OA
ENDROOT
BRANCH   1   6
ATOM      3  C   LIG    1       23.365 -20.223   4.808  0.00  0.00    -0.048 A 
ATOM      4  C   LIG    1       22.681 -19.010   4.673  0.00  0.00    +0.004 A 
ATOM      5  C   LIG    1       23.326 -17.867   4.192  0.00  0.00    +0.012 A 
ATOM      6  C   LIG    1       24.683 -17.909   3.853  0.00  0.00    +0.018 A 
ATOM      7  C   LIG    1       25.351 -19.143   3.915  0.00  0.00    +0.012 A 
ATOM      8  C   LIG    1       24.700 -20.289   4.391  0.00  0.00    +0.004 A 
BRANCH   3  10
ATOM      9  C   LIG    1       23.023 -21.570   6.913  0.00  0.00    +0.009 C 
ATOM     10  C   LIG    1       22.682 -21.411   5.438  0.00  0.00    +0.032 C 
ENDBRANCH   3  10
ENDBRANCH   1   6
BRANCH   1  11
ATOM     11  C   LIG    1       24.893 -15.297   3.724  0.00  0.00    +0.071 C 
ATOM     12  C   LIG    1       23.436 -15.360   4.193  0.00  0.00    +0.017 C 
BRANCH  11  13
ATOM     13  C   LIG    1       25.060 -14.400   2.474  0.00  0.00    +0.095 C 
BRANCH  13  14
ATOM     14  N   LIG    1       25.759 -13.116   2.721  0.00  0.00    -0.302 NA
ATOM     15  C   LIG    1       24.930 -11.927   2.476  0.00  0.00    +0.084 C 
ATOM     16  C   LIG    1       23.773 -11.782   3.464  0.00  0.00    +0.015 C 
ATOM     17  C   LIG    1       24.258 -11.802   4.912  0.00  0.00    +0.002 C 
ATOM     18  C   LIG    1       25.241 -12.939   5.180  0.00  0.00    +0.015 C 
ATOM     19  C   LIG    1       26.313 -13.036   4.088  0.00  0.00    +0.084 C 
ENDBRANCH  13  14
ENDBRANCH  11  13
ENDBRANCH   1  11
TORSDOF 5
ENDMDL
MODEL 7
REMARK VINA RESULT:      -2.9      2.527      6.454
REMARK  Name = *****
REMARK                            x       y       z     vdW  Elec       q    Type
REMARK                         _______ _______ _______ _____ _____    ______ ____
ROOT
ATOM      1  C   LIG    1       23.887 -13.935   3.782  0.00  0.00    +0.167 C 
ATOM      2  O   LIG    1       23.857 -13.547   2.607  0.00  0.00    -0.292 OA
ENDROOT
BRANCH   1   6
ATOM      3  C   LIG    1       22.865 -18.082   4.479  0.00  0.00    -0.048 A 
ATOM      4  C   LIG    1       24.077 -17.753   3.861  0.00  0.00    +0.004 A 
ATOM      5  C   LIG    1       24.448 -16.420   3.665  0.00  0.00    +0.012 A 
ATOM      6  C   LIG    1       23.600 -15.382   4.067  0.00  0.00    +0.018 A 
ATOM      7  C   LIG    1       22.419 -15.709   4.755  0.00  0.00    +0.012 A 
ATOM      8  C   LIG    1       22.054 -17.046   4.956  0.00  0.00    +0.004 A 
BRANCH   3  10
ATOM      9  C   LIG    1       22.977 -20.221   5.812  0.00  0.00    +0.009 C 
ATOM     10  C   LIG    1       22.431 -19.524   4.574  0.00  0.00    +0.032 C 
ENDBRANCH   3  10
ENDBRANCH   1   6
BRANCH   1  11
ATOM     11  C   LIG    1       24.296 -13.003   4.928  0.00  0.00    +0.071 C 
ATOM     12  C   LIG    1       23.363 -11.793   5.037  0.00  0.00    +0.017 C 
BRANCH  11  13
ATOM     13  C   LIG    1       25.774 -12.581   4.756  0.00  0.00    +0.095 C 
BRANCH  13  14
ATOM     14  N   LIG    1       26.764 -13.611   5.152  0.00  0.00    -0.302 NA
ATOM     15  C   LIG    1       27.217 -14.463   4.044  0.00  0.00    +0.084 C 
ATOM     16  C   LIG    1       28.038 -13.710   2.997  0.00  0.00    +0.015 C 
ATOM     17  C   LIG    1       29.224 -12.981   3.626  0.00  0.00    +0.002 C 
ATOM     18  C   LIG    1       28.828 -12.195   4.873  0.00  0.00    +0.015 C 
ATOM     19  C   LIG    1       27.946 -13.023   5.814  0.00  0.00    +0.084 C 
ENDBRANCH  13  14
ENDBRANCH  11  13
ENDBRANCH   1  11
TORSDOF 5
ENDMDL
MODEL 8
REMARK VINA RESULT:      -2.8      1.819      3.239
REMARK  Name = *****
REMARK                            x       y       z     vdW  Elec       q    Type
REMARK                         _______ _______ _______ _____ _____    ______ ____
ROOT
ATOM      1  C   LIG    1       25.705 -19.031   3.752  0.00  0.00    +0.167 C 
ATOM      2  O   LIG    1       25.227 -19.602   2.763  0.00  0.00    -0.292 OA
ENDROOT
BRANCH   1   6
ATOM      3  C   LIG    1       26.571 -14.794   3.598  0.00  0.00    -0.048 A 
ATOM      4  C   LIG    1       27.602 -15.712   3.830  0.00  0.00    +0.004 A 
ATOM      5  C   LIG    1       27.353 -17.088   3.841  0.00  0.00    +0.012 A 
ATOM      6  C   LIG    1       26.058 -17.576   3.640  0.00  0.00    +0.018 A 
ATOM      7  C   LIG    1       25.038 -16.660   3.331  0.00  0.00    +0.012 A 
ATOM      8  C   LIG    1       25.291 -15.282   3.314  0.00  0.00    +0.004 A 
BRANCH   3  10
ATOM      9  C   LIG    1       28.304 -13.000   3.973  0.00  0.00    +0.009 C 
ATOM     10  C   LIG    1       26.839 -13.314   3.708  0.00  0.00    +0.032 C 
ENDBRANCH   3  10
ENDBRANCH   1   6
BRANCH   1  11
ATOM     11  C   LIG    1       25.857 -19.747   5.099  0.00  0.00    +0.071 C 
ATOM     12  C   LIG    1       27.277 -20.286   5.299  0.00  0.00    +0.017 C 
BRANCH  11  13
ATOM     13  C   LIG    1       24.791 -20.862   5.222  0.00  0.00    +0.095 C 
BRANCH  13  14
ATOM     14  N   LIG    1       23.674 -20.552   6.146  0.00  0.00    -0.302 NA
ATOM     15  C   LIG    1       23.076 -19.226   5.938  0.00  0.00    +0.084 C 
ATOM     16  C   LIG    1       22.346 -19.093   4.601  0.00  0.00    +0.015 C 
ATOM     17  C   LIG    1       21.293 -20.185   4.420  0.00  0.00    +0.002 C 
ATOM     18  C   LIG    1       21.829 -21.572   4.767  0.00  0.00    +0.015 C 
ATOM     19  C   LIG    1       22.605 -21.570   6.089  0.00  0.00    +0.084 C 
ENDBRANCH  13  14
ENDBRANCH  11  13
ENDBRANCH   1  11
TORSDOF 5
ENDMDL
MODEL 9
REMARK VINA RESULT:      -2.5      2.863      6.653
REMARK  Name = *****
REMARK                            x       y       z     vdW  Elec       q    Type
REMARK                         _______ _______ _______ _____ _____    ______ ____
ROOT
ATOM      1  C   LIG    1       27.453 -19.442   5.060  0.00  0.00    +0.167 C 
ATOM      2  O   LIG    1       28.075 -20.238   5.775  0.00  0.00    -0.292 OA
ENDROOT
BRANCH   1   6
ATOM      3  C   LIG    1       23.191 -20.021   4.588  0.00  0.00    -0.048 A 
ATOM      4  C   LIG    1       23.919 -19.346   3.602  0.00  0.00    +0.004 A 
ATOM      5  C   LIG    1       25.304 -19.184   3.712  0.00  0.00    +0.012 A 
ATOM      6  C   LIG    1       25.989 -19.681   4.827  0.00  0.00    +0.018 A 
ATOM      7  C   LIG    1       25.270 -20.425   5.778  0.00  0.00    +0.012 A 
ATOM      8  C   LIG    1       23.884 -20.591   5.661  0.00  0.00    +0.004 A 
BRANCH   3  10
ATOM      9  C   LIG    1       21.086 -18.864   3.818  0.00  0.00    +0.009 C 
ATOM     10  C   LIG    1       21.685 -20.081   4.507  0.00  0.00    +0.032 C 
ENDBRANCH   3  10
ENDBRANCH   1   6
BRANCH   1  11
ATOM     11  C   LIG    1       28.116 -18.183   4.490  0.00  0.00    +0.071 C 
ATOM     12  C   LIG    1       29.474 -17.910   5.145  0.00  0.00    +0.017 C 
BRANCH  11  13
ATOM     13  C   LIG    1       27.155 -16.978   4.626  0.00  0.00    +0.095 C 
BRANCH  13  14
ATOM     14  N   LIG    1       27.281 -15.960   3.556  0.00  0.00    -0.302 NA
ATOM     15  C   LIG    1       26.004 -15.593   2.927  0.00  0.00    +0.084 C 
ATOM     16  C   LIG    1       25.054 -14.855   3.871  0.00  0.00    +0.015 C 
ATOM     17  C   LIG    1       25.715 -13.625   4.490  0.00  0.00    +0.002 C 
ATOM     18  C   LIG    1       27.112 -13.925   5.029  0.00  0.00    +0.015 C 
ATOM     19  C   LIG    1       27.948 -14.731   4.030  0.00  0.00    +0.084 C 
ENDBRANCH  13  14
ENDBRANCH  11  13
ENDBRANCH   1  11
TORSDOF 5
ENDMDL
