MODEL 1
REMARK VINA RESULT:      -6.8      0.000      0.000
REMARK  Name = *****
REMARK                            x       y       z     vdW  Elec       q    Type
REMARK                         _______ _______ _______ _____ _____    ______ ____
ROOT
ATOM      1  C   LIG    1       30.208 -19.941   7.869  0.00  0.00    +0.346 C 
ENDROOT
BRANCH   1   2
ATOM      2  C   LIG    1       28.795 -20.232   7.324  0.00  0.00    +0.376 C 
BRANCH   2   3
ATOM      3  O   LIG    1       28.012 -20.899   8.316  0.00  0.00    -0.212 OA
BRANCH   3   5
ATOM      4  O   LIG    1       26.230 -20.311   7.148  0.00  0.00    +0.093 OA
ATOM      5  N   LIG    1       26.640 -20.533   8.283  0.00  0.00    +0.284 N 
ATOM      6  O   LIG    1       26.050 -20.481   9.363  0.00  0.00    -0.534 OA
ENDBRANCH   3   5
ENDBRANCH   2   3
ENDBRANCH   1   2
BRANCH   1   7
ATOM      7  O   LIG    1       30.286 -20.345   9.247  0.00  0.00    -0.206 OA
BRANCH   7   8
ATOM      8  N   LIG    1       31.156 -21.449   9.475  0.00  0.00    +0.285 N 
ATOM      9  O   LIG    1       32.334 -21.182   9.214  0.00  0.00    -0.534 OA
ATOM     10  O   LIG    1       30.659 -22.494   9.877  0.00  0.00    +0.093 OA
ENDBRANCH   7   8
ENDBRANCH   1   7
BRANCH   1  11
ATOM     11  C   LIG    1       30.541 -18.433   7.792  0.00  0.00    +0.376 C 
BRANCH  11  12
ATOM     12  O   LIG    1       31.937 -18.183   7.955  0.00  0.00    -0.212 OA
BRANCH  12  13
ATOM     13  N   LIG    1       32.205 -17.385   9.105  0.00  0.00    +0.284 N 
ATOM     14  O   LIG    1       32.308 -16.189   8.845  0.00  0.00    -0.534 OA
ATOM     15  O   LIG    1       32.306 -17.974  10.181  0.00  0.00    +0.093 OA
ENDBRANCH  12  13
ENDBRANCH  11  12
ENDBRANCH   1  11
TORSDOF 8
ENDMDL
MODEL 2
REMARK VINA RESULT:      -6.6      1.757      4.451
REMARK  Name = *****
REMARK                            x       y       z     vdW  Elec       q    Type
REMARK                         _______ _______ _______ _____ _____    ______ ____
ROOT
ATOM      1  C   LIG    1       30.211 -18.870   7.899  0.00  0.00    +0.346 C 
ENDROOT
BRANCH   1   2
ATOM      2  C   LIG    1       30.758 -17.641   8.653  0.00  0.00    +0.376 C 
BRANCH   2   3
ATOM      3  O   LIG    1       29.841 -17.241   9.674  0.00  0.00    -0.212 OA
BRANCH   3   5
ATOM      4  O   LIG    1       30.481 -16.156  11.489  0.00  0.00    +0.093 OA
ATOM      5  N   LIG    1       30.409 -17.267  10.975  0.00  0.00    +0.284 N 
ATOM      6  O   LIG    1       30.750 -18.367  11.413  0.00  0.00    -0.534 OA
ENDBRANCH   3   5
ENDBRANCH   2   3
ENDBRANCH   1   2
BRANCH   1   7
ATOM      7  O   LIG    1       29.065 -19.392   8.594  0.00  0.00    -0.206 OA
BRANCH   7   8
ATOM      8  N   LIG    1       28.259 -20.261   7.805  0.00  0.00    +0.285 N 
ATOM      9  O   LIG    1       28.003 -21.322   8.384  0.00  0.00    -0.534 OA
ATOM     10  O   LIG    1       27.934 -19.879   6.687  0.00  0.00    +0.093 OA
ENDBRANCH   7   8
ENDBRANCH   1   7
BRANCH   1  11
ATOM     11  C   LIG    1       31.270 -19.993   7.809  0.00  0.00    +0.376 C 
BRANCH  11  12
ATOM     12  O   LIG    1       31.777 -20.355   9.094  0.00  0.00    -0.212 OA
BRANCH  12  13
ATOM     13  N   LIG    1       31.565 -21.734   9.381  0.00  0.00    +0.284 N 
ATOM     14  O   LIG    1       30.754 -21.917  10.285  0.00  0.00    -0.534 OA
ATOM     15  O   LIG    1       32.206 -22.548   8.716  0.00  0.00    +0.093 OA
ENDBRANCH  12  13
ENDBRANCH  11  12
ENDBRANCH   1  11
TORSDOF 8
ENDMDL
MODEL 3
REMARK VINA RESULT:      -6.5      0.707      4.865
REMARK  Name = *****
REMARK                            x       y       z     vdW  Elec       q    Type
REMARK                         _______ _______ _______ _____ _____    ______ ____
ROOT
ATOM      1  C   LIG    1       30.271 -19.983   8.394  0.00  0.00    +0.346 C 
ENDROOT
BRANCH   1   2
ATOM      2  C   LIG    1       30.513 -18.543   7.899  0.00  0.00    +0.376 C 
BRANCH   2   3
ATOM      3  O   LIG    1       31.900 -18.214   7.999  0.00  0.00    -0.212 OA
BRANCH   3   5
ATOM      4  O   LIG    1       32.291 -16.206   8.833  0.00  0.00    +0.093 OA
ATOM      5  N   LIG    1       32.200 -17.395   9.120  0.00  0.00    +0.284 N 
ATOM      6  O   LIG    1       32.330 -17.962  10.206  0.00  0.00    -0.534 OA
ENDBRANCH   3   5
ENDBRANCH   2   3
ENDBRANCH   1   2
BRANCH   1   7
ATOM      7  O   LIG    1       31.496 -20.734   8.312  0.00  0.00    -0.206 OA
BRANCH   7   8
ATOM      8  N   LIG    1       31.520 -21.888   9.147  0.00  0.00    +0.285 N 
ATOM      9  O   LIG    1       30.942 -21.703  10.223  0.00  0.00    -0.534 OA
ATOM     10  O   LIG    1       32.094 -22.885   8.725  0.00  0.00    +0.093 OA
ENDBRANCH   7   8
ENDBRANCH   1   7
BRANCH   1  11
ATOM     11  C   LIG    1       29.210 -20.705   7.531  0.00  0.00    +0.376 C 
BRANCH  11  12
ATOM     12  O   LIG    1       28.170 -21.276   8.325  0.00  0.00    -0.212 OA
BRANCH  12  13
ATOM     13  N   LIG    1       26.928 -20.602   8.142  0.00  0.00    +0.284 N 
ATOM     14  O   LIG    1       26.283 -20.494   9.182  0.00  0.00    -0.534 OA
ATOM     15  O   LIG    1       26.658 -20.230   7.000  0.00  0.00    +0.093 OA
ENDBRANCH  12  13
ENDBRANCH  11  12
ENDBRANCH   1  11
TORSDOF 8
ENDMDL
MODEL 4
REMARK VINA RESULT:      -6.5      1.279      4.943
REMARK  Name = *****
REMARK                            x       y       z     vdW  Elec       q    Type
REMARK                         _______ _______ _______ _____ _____    ______ ____
ROOT
ATOM      1  C   LIG    1       30.103 -18.983   8.157  0.00  0.00    +0.346 C 
ENDROOT
BRANCH   1   2
ATOM      2  C   LIG    1       31.352 -19.860   7.931  0.00  0.00    +0.376 C 
BRANCH   2   3
ATOM      3  O   LIG    1       31.818 -20.385   9.175  0.00  0.00    -0.212 OA
BRANCH   3   5
ATOM      4  O   LIG    1       30.641 -21.998  10.123  0.00  0.00    +0.093 OA
ATOM      5  N   LIG    1       31.551 -21.771   9.331  0.00  0.00    +0.284 N 
ATOM      6  O   LIG    1       32.244 -22.550   8.676  0.00  0.00    -0.534 OA
ENDBRANCH   3   5
ENDBRANCH   2   3
ENDBRANCH   1   2
BRANCH   1   7
ATOM      7  O   LIG    1       29.871 -18.830   9.569  0.00  0.00    -0.206 OA
BRANCH   7   8
ATOM      8  N   LIG    1       30.423 -17.637  10.117  0.00  0.00    +0.285 N 
ATOM      9  O   LIG    1       31.145 -17.858  11.095  0.00  0.00    -0.534 OA
ATOM     10  O   LIG    1       30.124 -16.574   9.586  0.00  0.00    +0.093 OA
ENDBRANCH   7   8
ENDBRANCH   1   7
BRANCH   1  11
ATOM     11  C   LIG    1       28.844 -19.625   7.532  0.00  0.00    +0.376 C 
BRANCH  11  12
ATOM     12  O   LIG    1       28.122 -20.418   8.475  0.00  0.00    -0.212 OA
BRANCH  12  13
ATOM     13  N   LIG    1       26.718 -20.388   8.231  0.00  0.00    +0.284 N 
ATOM     14  O   LIG    1       26.051 -20.532   9.253  0.00  0.00    -0.534 OA
ATOM     15  O   LIG    1       26.357 -20.236   7.064  0.00  0.00    +0.093 OA
ENDBRANCH  12  13
ENDBRANCH  11  12
ENDBRANCH   1  11
TORSDOF 8
ENDMDL
MODEL 5
REMARK VINA RESULT:      -6.5      1.756      4.573
REMARK  Name = *****
REMARK                            x       y       z     vdW  Elec       q    Type
REMARK                         _______ _______ _______ _____ _____    ______ ____
ROOT
ATOM      1  C   LIG    1       31.162 -19.494   8.948  0.00  0.00    +0.346 C 
ENDROOT
BRANCH   1   2
ATOM      2  C   LIG    1       31.686 -18.093   9.322  0.00  0.00    +0.376 C 
BRANCH   2   3
ATOM      3  O   LIG    1       31.940 -18.021  10.726  0.00  0.00    -0.212 OA
BRANCH   3   5
ATOM      4  O   LIG    1       31.828 -16.537  12.360  0.00  0.00    +0.093 OA
ATOM      5  N   LIG    1       31.247 -16.959  11.366  0.00  0.00    +0.284 N 
ATOM      6  O   LIG    1       30.179 -16.606  10.861  0.00  0.00    -0.534 OA
ENDBRANCH   3   5
ENDBRANCH   2   3
ENDBRANCH   1   2
BRANCH   1   7
ATOM      7  O   LIG    1       32.154 -20.483   9.276  0.00  0.00    -0.206 OA
BRANCH   7   8
ATOM      8  N   LIG    1       31.641 -21.810   9.354  0.00  0.00    +0.285 N 
ATOM      9  O   LIG    1       30.716 -21.909  10.168  0.00  0.00    -0.534 OA
ATOM     10  O   LIG    1       32.158 -22.664   8.645  0.00  0.00    +0.093 OA
ENDBRANCH   7   8
ENDBRANCH   1   7
BRANCH   1  11
ATOM     11  C   LIG    1       30.866 -19.599   7.434  0.00  0.00    +0.376 C 
BRANCH  11  12
ATOM     12  O   LIG    1       29.490 -19.355   7.139  0.00  0.00    -0.212 OA
BRANCH  12  13
ATOM     13  N   LIG    1       28.652 -20.413   7.596  0.00  0.00    +0.284 N 
ATOM     14  O   LIG    1       27.800 -20.038   8.398  0.00  0.00    -0.534 OA
ATOM     15  O   LIG    1       28.882 -21.538   7.153  0.00  0.00    +0.093 OA
ENDBRANCH  12  13
ENDBRANCH  11  12
ENDBRANCH   1  11
TORSDOF 8
ENDMDL
MODEL 6
REMARK VINA RESULT:      -6.4      2.121      4.430
REMARK  Name = *****
REMARK                            x       y       z     vdW  Elec       q    Type
REMARK                         _______ _______ _______ _____ _____    ______ ____
ROOT
ATOM      1  C   LIG    1       31.139 -19.541   8.889  0.00  0.00    +0.346 C 
ENDROOT
BRANCH   1   2
ATOM      2  C   LIG    1       31.709 -18.116   9.039  0.00  0.00    +0.376 C 
BRANCH   2   3
ATOM      3  O   LIG    1       32.192 -17.916  10.369  0.00  0.00    -0.212 OA
BRANCH   3   5
ATOM      4  O   LIG    1       31.389 -17.698  12.416  0.00  0.00    +0.093 OA
ATOM      5  N   LIG    1       31.209 -17.382  11.244  0.00  0.00    +0.284 N 
ATOM      6  O   LIG    1       30.325 -16.691  10.736  0.00  0.00    -0.534 OA
ENDBRANCH   3   5
ENDBRANCH   2   3
ENDBRANCH   1   2
BRANCH   1   7
ATOM      7  O   LIG    1       32.135 -20.503   9.279  0.00  0.00    -0.206 OA
BRANCH   7   8
ATOM      8  N   LIG    1       31.632 -21.829   9.414  0.00  0.00    +0.285 N 
ATOM      9  O   LIG    1       32.216 -22.631   8.676  0.00  0.00    -0.534 OA
ATOM     10  O   LIG    1       30.714 -22.014  10.204  0.00  0.00    +0.093 OA
ENDBRANCH   7   8
ENDBRANCH   1   7
BRANCH   1  11
ATOM     11  C   LIG    1       30.737 -19.835   7.425  0.00  0.00    +0.376 C 
BRANCH  11  12
ATOM     12  O   LIG    1       29.325 -19.755   7.230  0.00  0.00    -0.212 OA
BRANCH  12  13
ATOM     13  N   LIG    1       28.993 -19.117   6.000  0.00  0.00    +0.284 N 
ATOM     14  O   LIG    1       28.023 -19.623   5.442  0.00  0.00    -0.534 OA
ATOM     15  O   LIG    1       29.702 -18.172   5.653  0.00  0.00    +0.093 OA
ENDBRANCH  12  13
ENDBRANCH  11  12
ENDBRANCH   1  11
TORSDOF 8
ENDMDL
MODEL 7
REMARK VINA RESULT:      -6.3      1.310      4.666
REMARK  Name = *****
REMARK                            x       y       z     vdW  Elec       q    Type
REMARK                         _______ _______ _______ _____ _____    ______ ____
ROOT
ATOM      1  C   LIG    1       28.446 -20.721   7.285  0.00  0.00    +0.346 C 
ENDROOT
BRANCH   1   2
ATOM      2  C   LIG    1       29.269 -19.702   6.470  0.00  0.00    +0.376 C 
BRANCH   2   3
ATOM      3  O   LIG    1       29.698 -18.630   7.311  0.00  0.00    -0.212 OA
BRANCH   3   5
ATOM      4  O   LIG    1       31.476 -17.644   8.177  0.00  0.00    +0.093 OA
ATOM      5  N   LIG    1       31.111 -18.548   7.433  0.00  0.00    +0.284 N 
ATOM      6  O   LIG    1       31.775 -19.367   6.795  0.00  0.00    -0.534 OA
ENDBRANCH   3   5
ENDBRANCH   2   3
ENDBRANCH   1   2
BRANCH   1   7
ATOM      7  O   LIG    1       27.707 -20.034   8.311  0.00  0.00    -0.206 OA
BRANCH   7   8
ATOM      8  N   LIG    1       26.339 -20.421   8.393  0.00  0.00    +0.285 N 
ATOM      9  O   LIG    1       25.766 -20.359   7.299  0.00  0.00    -0.534 OA
ATOM     10  O   LIG    1       25.903 -20.748   9.490  0.00  0.00    +0.093 OA
ENDBRANCH   7   8
ENDBRANCH   1   7
BRANCH   1  11
ATOM     11  C   LIG    1       29.359 -21.764   7.969  0.00  0.00    +0.376 C 
BRANCH  11  12
ATOM     12  O   LIG    1       30.071 -21.209   9.076  0.00  0.00    -0.212 OA
BRANCH  12  13
ATOM     13  N   LIG    1       31.350 -21.814   9.243  0.00  0.00    +0.284 N 
ATOM     14  O   LIG    1       31.308 -23.042   9.215  0.00  0.00    -0.534 OA
ATOM     15  O   LIG    1       32.309 -21.058   9.399  0.00  0.00    +0.093 OA
ENDBRANCH  12  13
ENDBRANCH  11  12
ENDBRANCH   1  11
TORSDOF 8
ENDMDL
MODEL 8
REMARK VINA RESULT:      -6.1      2.488      5.144
REMARK  Name = *****
REMARK                            x       y       z     vdW  Elec       q    Type
REMARK                         _______ _______ _______ _____ _____    ______ ____
ROOT
ATOM      1  C   LIG    1       31.573 -18.232   8.487  0.00  0.00    +0.346 C 
ENDROOT
BRANCH   1   2
ATOM      2  C   LIG    1       32.023 -16.968   9.249  0.00  0.00    +0.376 C 
BRANCH   2   3
ATOM      3  O   LIG    1       32.321 -17.292  10.608  0.00  0.00    -0.212 OA
BRANCH   3   5
ATOM      4  O   LIG    1       30.397 -16.357  11.163  0.00  0.00    +0.093 OA
ATOM      5  N   LIG    1       31.549 -16.550  11.540  0.00  0.00    +0.284 N 
ATOM      6  O   LIG    1       32.112 -16.200  12.579  0.00  0.00    -0.534 OA
ENDBRANCH   3   5
ENDBRANCH   2   3
ENDBRANCH   1   2
BRANCH   1   7
ATOM      7  O   LIG    1       30.440 -17.918   7.658  0.00  0.00    -0.206 OA
BRANCH   7   8
ATOM      8  N   LIG    1       30.385 -18.670   6.450  0.00  0.00    +0.285 N 
ATOM      9  O   LIG    1       29.408 -18.372   5.754  0.00  0.00    -0.534 OA
ATOM     10  O   LIG    1       31.267 -19.496   6.251  0.00  0.00    +0.093 OA
ENDBRANCH   7   8
ENDBRANCH   1   7
BRANCH   1  11
ATOM     11  C   LIG    1       31.156 -19.358   9.461  0.00  0.00    +0.376 C 
BRANCH  11  12
ATOM     12  O   LIG    1       31.969 -20.522   9.315  0.00  0.00    -0.212 OA
BRANCH  12  13
ATOM     13  N   LIG    1       31.188 -21.690   9.079  0.00  0.00    +0.284 N 
ATOM     14  O   LIG    1       30.011 -21.439   8.833  0.00  0.00    -0.534 OA
ATOM     15  O   LIG    1       31.768 -22.774   9.157  0.00  0.00    +0.093 OA
ENDBRANCH  12  13
ENDBRANCH  11  12
ENDBRANCH   1  11
TORSDOF 8
ENDMDL
MODEL 9
REMARK VINA RESULT:      -6.1      1.859      5.505
REMARK  Name = *****
REMARK                            x       y       z     vdW  Elec       q    Type
REMARK                         _______ _______ _______ _____ _____    ______ ____
ROOT
ATOM      1  C   LIG    1       28.849 -20.957   7.118  0.00  0.00    +0.346 C 
ENDROOT
BRANCH   1   2
ATOM      2  C   LIG    1       29.922 -21.489   8.090  0.00  0.00    +0.376 C 
BRANCH   2   3
ATOM      3  O   LIG    1       30.238 -20.495   9.066  0.00  0.00    -0.212 OA
BRANCH   3   5
ATOM      4  O   LIG    1       32.179 -21.455   9.506  0.00  0.00    +0.093 OA
ATOM      5  N   LIG    1       31.632 -20.374   9.309  0.00  0.00    +0.284 N 
ATOM      6  O   LIG    1       32.105 -19.237   9.294  0.00  0.00    -0.534 OA
ENDBRANCH   3   5
ENDBRANCH   2   3
ENDBRANCH   1   2
BRANCH   1   7
ATOM      7  O   LIG    1       28.732 -19.530   7.263  0.00  0.00    -0.206 OA
BRANCH   7   8
ATOM      8  N   LIG    1       29.418 -18.791   6.257  0.00  0.00    +0.285 N 
ATOM      9  O   LIG    1       28.768 -18.708   5.209  0.00  0.00    -0.534 OA
ATOM     10  O   LIG    1       30.528 -18.350   6.529  0.00  0.00    +0.093 OA
ENDBRANCH   7   8
ENDBRANCH   1   7
BRANCH   1  11
ATOM     11  C   LIG    1       27.466 -21.582   7.409  0.00  0.00    +0.376 C 
BRANCH  11  12
ATOM     12  O   LIG    1       26.400 -20.661   7.173  0.00  0.00    -0.212 OA
BRANCH  12  13
ATOM     13  N   LIG    1       25.494 -20.603   8.272  0.00  0.00    +0.284 N 
ATOM     14  O   LIG    1       24.317 -20.684   7.928  0.00  0.00    -0.534 OA
ATOM     15  O   LIG    1       25.984 -20.474   9.394  0.00  0.00    +0.093 OA
ENDBRANCH  12  13
ENDBRANCH  11  12
ENDBRANCH   1  11
TORSDOF 8
ENDMDL
