MODEL 1
REMARK VINA RESULT:      -4.8      0.000      0.000
REMARK  Name = *****
REMARK                            x       y       z     vdW  Elec       q    Type
REMARK                         _______ _______ _______ _____ _____    ______ ____
ROOT
ATOM      1  C   UNK    1       24.028 -21.544   6.749  0.00  0.00    +0.039 C 
ENDROOT
BRANCH   1   2
ATOM      2  C   UNK    1       25.482 -21.155   7.049  0.00  0.00    +0.196 C 
BRANCH   2   3
ATOM      3  N   UNK    1       26.335 -21.300   5.877  0.00  0.00    -0.276 N 
ATOM      4  H   UNK    1       25.980 -21.991   5.212  0.00  0.00    +0.258 HD
BRANCH   3   5
ATOM      5  C   UNK    1       26.879 -20.265   5.183  0.00  0.00    +0.378 C 
ATOM      6  N   UNK    1       26.146 -19.719   4.282  0.00  0.00    -0.130 NA
ATOM      7  H   UNK    1       26.697 -19.024   3.774  0.00  0.00    +0.306 HD
BRANCH   5   9
ATOM      8  C   UNK    1       28.904 -20.274   6.640  0.00  0.00    +0.239 C 
ATOM      9  N   UNK    1       28.185 -20.043   5.420  0.00  0.00    -0.279 N 
ATOM     10  H   UNK    1       28.607 -19.313   4.871  0.00  0.00    +0.258 HD
ENDBRANCH   5   9
ENDBRANCH   3   5
ENDBRANCH   2   3
ENDBRANCH   1   2
BRANCH   1  11
ATOM     11  C   UNK    1       23.081 -20.404   6.356  0.00  0.00    +0.033 C 
BRANCH  11  12
ATOM     12  C   UNK    1       22.596 -20.380   4.899  0.00  0.00    +0.161 C 
BRANCH  12  13
ATOM     13  N   UNK    1       23.482 -21.262   4.097  0.00  0.00    -0.318 NA
ATOM     14  H   UNK    1       23.784 -20.731   3.275  0.00  0.00    +0.119 HD
ATOM     15  H   UNK    1       24.351 -21.384   4.626  0.00  0.00    +0.119 HD
ENDBRANCH  12  13
BRANCH  12  16
ATOM     16  C   UNK    1       22.635 -18.968   4.289  0.00  0.00    +0.322 C 
ATOM     17  O   UNK    1       21.813 -18.088   4.551  0.00  0.00    -0.249 OA
BRANCH  16  18
ATOM     18  O   UNK    1       23.656 -18.745   3.451  0.00  0.00    -0.479 OA
ATOM     19  H   UNK    1       23.629 -19.349   2.666  0.00  0.00    +0.295 HD
ENDBRANCH  16  18
ENDBRANCH  12  16
ENDBRANCH  11  12
ENDBRANCH   1  11
TORSDOF 9
ENDMDL
MODEL 2
REMARK VINA RESULT:      -4.2      4.662      6.030
REMARK  Name = *****
REMARK                            x       y       z     vdW  Elec       q    Type
REMARK                         _______ _______ _______ _____ _____    ______ ____
ROOT
ATOM      1  C   UNK    1       26.294 -16.510   3.385  0.00  0.00    +0.039 C 
ENDROOT
BRANCH   1   2
ATOM      2  C   UNK    1       25.378 -17.735   3.259  0.00  0.00    +0.196 C 
BRANCH   2   3
ATOM      3  N   UNK    1       26.037 -18.953   3.711  0.00  0.00    -0.276 N 
ATOM      4  H   UNK    1       26.960 -18.777   4.117  0.00  0.00    +0.258 HD
BRANCH   3   5
ATOM      5  C   UNK    1       25.432 -19.944   4.419  0.00  0.00    +0.378 C 
ATOM      6  N   UNK    1       26.186 -20.685   5.146  0.00  0.00    -0.130 NA
ATOM      7  H   UNK    1       25.630 -21.442   5.548  0.00  0.00    +0.306 HD
BRANCH   5   9
ATOM      8  C   UNK    1       23.086 -20.498   5.060  0.00  0.00    +0.239 C 
ATOM      9  N   UNK    1       24.127 -20.125   4.146  0.00  0.00    -0.279 N 
ATOM     10  H   UNK    1       23.916 -20.410   3.205  0.00  0.00    +0.258 HD
ENDBRANCH   5   9
ENDBRANCH   3   5
ENDBRANCH   2   3
ENDBRANCH   1   2
BRANCH   1  11
ATOM     11  C   UNK    1       25.608 -15.171   3.680  0.00  0.00    +0.033 C 
BRANCH  11  12
ATOM     12  C   UNK    1       26.344 -13.902   3.227  0.00  0.00    +0.161 C 
BRANCH  12  13
ATOM     13  N   UNK    1       26.924 -14.154   1.882  0.00  0.00    -0.318 NA
ATOM     14  H   UNK    1       27.934 -13.999   1.949  0.00  0.00    +0.119 HD
ATOM     15  H   UNK    1       26.856 -15.161   1.705  0.00  0.00    +0.119 HD
ENDBRANCH  12  13
BRANCH  12  16
ATOM     16  C   UNK    1       27.484 -13.509   4.182  0.00  0.00    +0.322 C 
ATOM     17  O   UNK    1       28.660 -13.402   3.833  0.00  0.00    -0.249 OA
BRANCH  16  18
ATOM     18  O   UNK    1       27.103 -13.264   5.442  0.00  0.00    -0.479 OA
ATOM     19  H   UNK    1       27.669 -12.575   5.873  0.00  0.00    +0.295 HD
ENDBRANCH  16  18
ENDBRANCH  12  16
ENDBRANCH  11  12
ENDBRANCH   1  11
TORSDOF 9
ENDMDL
MODEL 3
REMARK VINA RESULT:      -4.1      4.683      5.689
REMARK  Name = *****
REMARK                            x       y       z     vdW  Elec       q    Type
REMARK                         _______ _______ _______ _____ _____    ______ ____
ROOT
ATOM      1  C   UNK    1       26.287 -16.513   3.319  0.00  0.00    +0.039 C 
ENDROOT
BRANCH   1   2
ATOM      2  C   UNK    1       25.387 -17.755   3.328  0.00  0.00    +0.196 C 
BRANCH   2   3
ATOM      3  N   UNK    1       26.100 -18.938   3.791  0.00  0.00    -0.276 N 
ATOM      4  H   UNK    1       26.911 -18.709   4.371  0.00  0.00    +0.258 HD
BRANCH   3   5
ATOM      5  C   UNK    1       25.506 -20.054   4.292  0.00  0.00    +0.378 C 
ATOM      6  N   UNK    1       24.397 -20.414   3.759  0.00  0.00    -0.130 NA
ATOM      7  H   UNK    1       24.010 -21.202   4.281  0.00  0.00    +0.306 HD
BRANCH   5   9
ATOM      8  C   UNK    1       27.358 -20.211   5.957  0.00  0.00    +0.239 C 
ATOM      9  N   UNK    1       26.082 -20.558   5.399  0.00  0.00    -0.279 N 
ATOM     10  H   UNK    1       25.815 -21.498   5.638  0.00  0.00    +0.258 HD
ENDBRANCH   5   9
ENDBRANCH   3   5
ENDBRANCH   2   3
ENDBRANCH   1   2
BRANCH   1  11
ATOM     11  C   UNK    1       25.609 -15.175   3.639  0.00  0.00    +0.033 C 
BRANCH  11  12
ATOM     12  C   UNK    1       26.325 -13.904   3.158  0.00  0.00    +0.161 C 
BRANCH  12  13
ATOM     13  N   UNK    1       26.920 -14.179   1.825  0.00  0.00    -0.318 NA
ATOM     14  H   UNK    1       27.040 -15.193   1.745  0.00  0.00    +0.119 HD
ATOM     15  H   UNK    1       26.202 -13.975   1.123  0.00  0.00    +0.119 HD
ENDBRANCH  12  13
BRANCH  12  16
ATOM     16  C   UNK    1       27.451 -13.467   4.111  0.00  0.00    +0.322 C 
ATOM     17  O   UNK    1       27.318 -13.386   5.333  0.00  0.00    -0.249 OA
BRANCH  16  18
ATOM     18  O   UNK    1       28.619 -13.194   3.515  0.00  0.00    -0.479 OA
ATOM     19  H   UNK    1       29.245 -13.960   3.559  0.00  0.00    +0.295 HD
ENDBRANCH  16  18
ENDBRANCH  12  16
ENDBRANCH  11  12
ENDBRANCH   1  11
TORSDOF 9
ENDMDL
MODEL 4
REMARK VINA RESULT:      -4.1      4.453      5.155
REMARK  Name = *****
REMARK                            x       y       z     vdW  Elec       q    Type
REMARK                         _______ _______ _______ _____ _____    ______ ____
ROOT
ATOM      1  C   UNK    1       25.911 -18.067   3.283  0.00  0.00    +0.039 C 
ENDROOT
BRANCH   1   2
ATOM      2  C   UNK    1       25.655 -16.555   3.309  0.00  0.00    +0.196 C 
BRANCH   2   3
ATOM      3  N   UNK    1       26.884 -15.801   3.519  0.00  0.00    -0.276 N 
ATOM      4  H   UNK    1       27.721 -16.325   3.253  0.00  0.00    +0.258 HD
BRANCH   3   5
ATOM      5  C   UNK    1       27.060 -14.497   3.177  0.00  0.00    +0.378 C 
ATOM      6  N   UNK    1       26.740 -14.159   1.981  0.00  0.00    -0.130 NA
ATOM      7  H   UNK    1       27.005 -13.186   1.822  0.00  0.00    +0.306 HD
BRANCH   5   9
ATOM      8  C   UNK    1       28.830 -12.888   3.887  0.00  0.00    +0.239 C 
ATOM      9  N   UNK    1       27.699 -13.748   4.093  0.00  0.00    -0.279 N 
ATOM     10  H   UNK    1       27.660 -14.090   5.038  0.00  0.00    +0.258 HD
ENDBRANCH   5   9
ENDBRANCH   3   5
ENDBRANCH   2   3
ENDBRANCH   1   2
BRANCH   1  11
ATOM     11  C   UNK    1       24.730 -18.968   3.664  0.00  0.00    +0.033 C 
BRANCH  11  12
ATOM     12  C   UNK    1       25.061 -20.419   4.044  0.00  0.00    +0.161 C 
BRANCH  12  13
ATOM     13  N   UNK    1       23.831 -21.237   3.879  0.00  0.00    -0.318 NA
ATOM     14  H   UNK    1       23.544 -21.166   2.898  0.00  0.00    +0.119 HD
ATOM     15  H   UNK    1       24.105 -22.220   3.969  0.00  0.00    +0.119 HD
ENDBRANCH  12  13
BRANCH  12  16
ATOM     16  C   UNK    1       25.541 -20.552   5.499  0.00  0.00    +0.322 C 
ATOM     17  O   UNK    1       24.784 -20.538   6.471  0.00  0.00    -0.249 OA
BRANCH  16  18
ATOM     18  O   UNK    1       26.863 -20.709   5.644  0.00  0.00    -0.479 OA
ATOM     19  H   UNK    1       27.365 -20.356   4.866  0.00  0.00    +0.295 HD
ENDBRANCH  16  18
ENDBRANCH  12  16
ENDBRANCH  11  12
ENDBRANCH   1  11
TORSDOF 9
ENDMDL
MODEL 5
REMARK VINA RESULT:      -4.1      4.414      5.515
REMARK  Name = *****
REMARK                            x       y       z     vdW  Elec       q    Type
REMARK                         _______ _______ _______ _____ _____    ______ ____
ROOT
ATOM      1  C   UNK    1       26.780 -15.849   3.474  0.00  0.00    +0.039 C 
ENDROOT
BRANCH   1   2
ATOM      2  C   UNK    1       25.657 -16.880   3.297  0.00  0.00    +0.196 C 
BRANCH   2   3
ATOM      3  N   UNK    1       26.161 -18.246   3.351  0.00  0.00    -0.276 N 
ATOM      4  H   UNK    1       27.112 -18.302   3.724  0.00  0.00    +0.258 HD
BRANCH   3   5
ATOM      5  C   UNK    1       25.452 -19.315   3.799  0.00  0.00    +0.378 C 
ATOM      6  N   UNK    1       24.178 -19.272   3.656  0.00  0.00    -0.130 NA
ATOM      7  H   UNK    1       23.758 -20.084   4.113  0.00  0.00    +0.306 HD
BRANCH   5   9
ATOM      8  C   UNK    1       26.071 -20.544   5.881  0.00  0.00    +0.239 C 
ATOM      9  N   UNK    1       26.166 -20.227   4.484  0.00  0.00    -0.279 N 
ATOM     10  H   UNK    1       27.083 -20.423   4.120  0.00  0.00    +0.258 HD
ENDBRANCH   5   9
ENDBRANCH   3   5
ENDBRANCH   2   3
ENDBRANCH   1   2
BRANCH   1  11
ATOM     11  C   UNK    1       26.560 -14.479   2.822  0.00  0.00    +0.033 C 
BRANCH  11  12
ATOM     12  C   UNK    1       25.835 -13.420   3.666  0.00  0.00    +0.161 C 
BRANCH  12  13
ATOM     13  N   UNK    1       26.271 -13.570   5.078  0.00  0.00    -0.318 NA
ATOM     14  H   UNK    1       26.135 -14.550   5.340  0.00  0.00    +0.119 HD
ATOM     15  H   UNK    1       27.290 -13.465   5.096  0.00  0.00    +0.119 HD
ENDBRANCH  12  13
BRANCH  12  16
ATOM     16  C   UNK    1       24.305 -13.570   3.611  0.00  0.00    +0.322 C 
ATOM     17  O   UNK    1       23.655 -14.239   4.416  0.00  0.00    -0.249 OA
BRANCH  16  18
ATOM     18  O   UNK    1       23.708 -12.893   2.622  0.00  0.00    -0.479 OA
ATOM     19  H   UNK    1       22.834 -12.521   2.903  0.00  0.00    +0.295 HD
ENDBRANCH  16  18
ENDBRANCH  12  16
ENDBRANCH  11  12
ENDBRANCH   1  11
TORSDOF 9
ENDMDL
MODEL 6
REMARK VINA RESULT:      -4.0      2.981      5.408
REMARK  Name = *****
REMARK                            x       y       z     vdW  Elec       q    Type
REMARK                         _______ _______ _______ _____ _____    ______ ____
ROOT
ATOM      1  C   UNK    1       26.087 -20.405   5.174  0.00  0.00    +0.039 C 
ENDROOT
BRANCH   1   2
ATOM      2  C   UNK    1       24.992 -21.478   5.249  0.00  0.00    +0.196 C 
BRANCH   2   3
ATOM      3  N   UNK    1       23.748 -20.947   5.789  0.00  0.00    -0.276 N 
ATOM      4  H   UNK    1       23.898 -20.296   6.563  0.00  0.00    +0.258 HD
BRANCH   3   5
ATOM      5  C   UNK    1       22.707 -20.499   5.038  0.00  0.00    +0.378 C 
ATOM      6  N   UNK    1       21.757 -21.330   4.803  0.00  0.00    -0.130 NA
ATOM      7  H   UNK    1       21.089 -20.906   4.158  0.00  0.00    +0.306 HD
BRANCH   5   9
ATOM      8  C   UNK    1       21.902 -18.230   4.384  0.00  0.00    +0.239 C 
ATOM      9  N   UNK    1       22.876 -19.278   4.499  0.00  0.00    -0.279 N 
ATOM     10  H   UNK    1       23.578 -19.213   3.782  0.00  0.00    +0.258 HD
ENDBRANCH   5   9
ENDBRANCH   3   5
ENDBRANCH   2   3
ENDBRANCH   1   2
BRANCH   1  11
ATOM     11  C   UNK    1       27.125 -20.408   6.303  0.00  0.00    +0.033 C 
BRANCH  11  12
ATOM     12  C   UNK    1       28.593 -20.219   5.892  0.00  0.00    +0.161 C 
BRANCH  12  13
ATOM     13  N   UNK    1       29.445 -20.982   6.840  0.00  0.00    -0.318 NA
ATOM     14  H   UNK    1       30.116 -20.325   7.248  0.00  0.00    +0.119 HD
ATOM     15  H   UNK    1       28.857 -21.239   7.639  0.00  0.00    +0.119 HD
ENDBRANCH  12  13
BRANCH  12  16
ATOM     16  C   UNK    1       29.029 -18.744   5.926  0.00  0.00    +0.322 C 
ATOM     17  O   UNK    1       29.460 -18.183   6.935  0.00  0.00    -0.249 OA
BRANCH  16  18
ATOM     18  O   UNK    1       28.928 -18.100   4.756  0.00  0.00    -0.479 OA
ATOM     19  H   UNK    1       27.987 -17.892   4.528  0.00  0.00    +0.295 HD
ENDBRANCH  16  18
ENDBRANCH  12  16
ENDBRANCH  11  12
ENDBRANCH   1  11
TORSDOF 9
ENDMDL
MODEL 7
REMARK VINA RESULT:      -4.0      1.381      2.047
REMARK  Name = *****
REMARK                            x       y       z     vdW  Elec       q    Type
REMARK                         _______ _______ _______ _____ _____    ______ ____
ROOT
ATOM      1  C   UNK    1       24.892 -20.466   6.449  0.00  0.00    +0.039 C 
ENDROOT
BRANCH   1   2
ATOM      2  C   UNK    1       26.219 -20.935   7.060  0.00  0.00    +0.196 C 
BRANCH   2   3
ATOM      3  N   UNK    1       27.254 -21.100   6.049  0.00  0.00    -0.276 N 
ATOM      4  H   UNK    1       26.874 -21.171   5.101  0.00  0.00    +0.258 HD
BRANCH   3   5
ATOM      5  C   UNK    1       28.412 -20.389   6.001  0.00  0.00    +0.378 C 
ATOM      6  N   UNK    1       29.369 -20.783   6.759  0.00  0.00    -0.130 NA
ATOM      7  H   UNK    1       30.142 -20.117   6.701  0.00  0.00    +0.306 HD
BRANCH   5   9
ATOM      8  C   UNK    1       29.213 -18.110   5.379  0.00  0.00    +0.239 C 
ATOM      9  N   UNK    1       28.357 -19.257   5.276  0.00  0.00    -0.279 N 
ATOM     10  H   UNK    1       27.448 -19.013   4.920  0.00  0.00    +0.258 HD
ENDBRANCH   5   9
ENDBRANCH   3   5
ENDBRANCH   2   3
ENDBRANCH   1   2
BRANCH   1  11
ATOM     11  C   UNK    1       24.395 -21.236   5.219  0.00  0.00    +0.033 C 
BRANCH  11  12
ATOM     12  C   UNK    1       24.304 -20.451   3.902  0.00  0.00    +0.161 C 
BRANCH  12  13
ATOM     13  N   UNK    1       25.666 -19.979   3.545  0.00  0.00    -0.318 NA
ATOM     14  H   UNK    1       25.599 -19.501   2.642  0.00  0.00    +0.119 HD
ATOM     15  H   UNK    1       25.905 -19.220   4.191  0.00  0.00    +0.119 HD
ENDBRANCH  12  13
BRANCH  12  16
ATOM     16  C   UNK    1       23.377 -19.228   4.009  0.00  0.00    +0.322 C 
ATOM     17  O   UNK    1       23.723 -18.082   3.719  0.00  0.00    -0.249 OA
BRANCH  16  18
ATOM     18  O   UNK    1       22.134 -19.499   4.427  0.00  0.00    -0.479 OA
ATOM     19  H   UNK    1       22.057 -19.458   5.413  0.00  0.00    +0.295 HD
ENDBRANCH  16  18
ENDBRANCH  12  16
ENDBRANCH  11  12
ENDBRANCH   1  11
TORSDOF 9
ENDMDL
MODEL 8
REMARK VINA RESULT:      -4.0      4.718      6.159
REMARK  Name = *****
REMARK                            x       y       z     vdW  Elec       q    Type
REMARK                         _______ _______ _______ _____ _____    ______ ____
ROOT
ATOM      1  C   UNK    1       25.919 -16.207   3.303  0.00  0.00    +0.039 C 
ENDROOT
BRANCH   1   2
ATOM      2  C   UNK    1       26.125 -17.727   3.269  0.00  0.00    +0.196 C 
BRANCH   2   3
ATOM      3  N   UNK    1       24.882 -18.448   3.509  0.00  0.00    -0.276 N 
ATOM      4  H   UNK    1       24.259 -18.444   2.697  0.00  0.00    +0.258 HD
BRANCH   3   5
ATOM      5  C   UNK    1       24.794 -19.660   4.119  0.00  0.00    +0.378 C 
ATOM      6  N   UNK    1       25.866 -20.363   4.174  0.00  0.00    -0.130 NA
ATOM      7  H   UNK    1       25.648 -21.280   4.569  0.00  0.00    +0.306 HD
BRANCH   5   9
ATOM      8  C   UNK    1       22.442 -19.199   4.812  0.00  0.00    +0.239 C 
ATOM      9  N   UNK    1       23.548 -20.041   4.455  0.00  0.00    -0.279 N 
ATOM     10  H   UNK    1       23.470 -20.954   4.870  0.00  0.00    +0.258 HD
ENDBRANCH   5   9
ENDBRANCH   3   5
ENDBRANCH   2   3
ENDBRANCH   1   2
BRANCH   1  11
ATOM     11  C   UNK    1       27.172 -15.352   3.526  0.00  0.00    +0.033 C 
BRANCH  11  12
ATOM     12  C   UNK    1       26.980 -13.828   3.522  0.00  0.00    +0.161 C 
BRANCH  12  13
ATOM     13  N   UNK    1       28.319 -13.188   3.467  0.00  0.00    -0.318 NA
ATOM     14  H   UNK    1       28.586 -13.116   2.481  0.00  0.00    +0.119 HD
ATOM     15  H   UNK    1       28.202 -12.209   3.747  0.00  0.00    +0.119 HD
ENDBRANCH  12  13
BRANCH  12  16
ATOM     16  C   UNK    1       26.252 -13.323   4.780  0.00  0.00    +0.322 C 
ATOM     17  O   UNK    1       25.089 -12.915   4.778  0.00  0.00    -0.249 OA
BRANCH  16  18
ATOM     18  O   UNK    1       26.972 -13.378   5.907  0.00  0.00    -0.479 OA
ATOM     19  H   UNK    1       27.769 -13.958   5.810  0.00  0.00    +0.295 HD
ENDBRANCH  16  18
ENDBRANCH  12  16
ENDBRANCH  11  12
ENDBRANCH   1  11
TORSDOF 9
ENDMDL
MODEL 9
REMARK VINA RESULT:      -4.0      4.117      4.722
REMARK  Name = *****
REMARK                            x       y       z     vdW  Elec       q    Type
REMARK                         _______ _______ _______ _____ _____    ______ ____
ROOT
ATOM      1  C   UNK    1       25.842 -18.414   3.417  0.00  0.00    +0.039 C 
ENDROOT
BRANCH   1   2
ATOM      2  C   UNK    1       25.616 -16.896   3.373  0.00  0.00    +0.196 C 
BRANCH   2   3
ATOM      3  N   UNK    1       26.869 -16.159   3.462  0.00  0.00    -0.276 N 
ATOM      4  H   UNK    1       27.648 -16.646   3.010  0.00  0.00    +0.258 HD
BRANCH   3   5
ATOM      5  C   UNK    1       27.001 -14.825   3.236  0.00  0.00    +0.378 C 
ATOM      6  N   UNK    1       26.551 -14.375   2.122  0.00  0.00    -0.130 NA
ATOM      7  H   UNK    1       26.792 -13.386   2.035  0.00  0.00    +0.306 HD
BRANCH   5   9
ATOM      8  C   UNK    1       28.571 -13.017   3.935  0.00  0.00    +0.239 C 
ATOM      9  N   UNK    1       27.732 -14.161   4.150  0.00  0.00    -0.279 N 
ATOM     10  H   UNK    1       28.038 -14.704   4.939  0.00  0.00    +0.258 HD
ENDBRANCH   5   9
ENDBRANCH   3   5
ENDBRANCH   2   3
ENDBRANCH   1   2
BRANCH   1  11
ATOM     11  C   UNK    1       24.597 -19.285   3.629  0.00  0.00    +0.033 C 
BRANCH  11  12
ATOM     12  C   UNK    1       24.562 -20.142   4.903  0.00  0.00    +0.161 C 
BRANCH  12  13
ATOM     13  N   UNK    1       24.879 -21.544   4.531  0.00  0.00    -0.318 NA
ATOM     14  H   UNK    1       25.525 -21.514   3.737  0.00  0.00    +0.119 HD
ATOM     15  H   UNK    1       25.455 -21.936   5.282  0.00  0.00    +0.119 HD
ENDBRANCH  12  13
BRANCH  12  16
ATOM     16  C   UNK    1       23.185 -20.120   5.589  0.00  0.00    +0.322 C 
ATOM     17  O   UNK    1       22.253 -19.401   5.227  0.00  0.00    -0.249 OA
BRANCH  16  18
ATOM     18  O   UNK    1       23.054 -20.971   6.615  0.00  0.00    -0.479 OA
ATOM     19  H   UNK    1       22.149 -20.931   7.016  0.00  0.00    +0.295 HD
ENDBRANCH  16  18
ENDBRANCH  12  16
ENDBRANCH  11  12
ENDBRANCH   1  11
TORSDOF 9
ENDMDL
