MODEL 1
REMARK VINA RESULT:      -2.0      0.000      0.000
REMARK  Name = *****
REMARK                            x       y       z     vdW  Elec       q    Type
REMARK                         _______ _______ _______ _____ _____    ______ ____
ROOT
ATOM      1  C   LIG    1       24.168 -18.440   3.686  0.00  0.00    +0.169 C 
ENDROOT
BRANCH   1   5
ATOM      2  C   LIG    1       23.986 -14.108   4.250  0.00  0.00    +0.052 A 
ATOM      3  C   LIG    1       22.917 -14.924   4.640  0.00  0.00    +0.019 A 
ATOM      4  C   LIG    1       22.980 -16.313   4.462  0.00  0.00    +0.007 A 
ATOM      5  C   LIG    1       24.119 -16.919   3.896  0.00  0.00    -0.019 A 
ATOM      6  C   LIG    1       25.175 -16.080   3.496  0.00  0.00    +0.007 A 
ATOM      7  C   LIG    1       25.113 -14.696   3.673  0.00  0.00    +0.019 A 
BRANCH   2   9
ATOM      8  N   LIG    1       23.874 -11.537   4.594  0.00  0.00    -0.191 NA
ATOM      9  C   LIG    1       23.929 -12.691   4.441  0.00  0.00    +0.099 C 
ENDBRANCH   2   9
ENDBRANCH   1   5
BRANCH   1  10
ATOM     10  C   LIG    1       25.332 -19.121   4.417  0.00  0.00    -0.019 A 
ATOM     11  C   LIG    1       26.664 -18.797   4.105  0.00  0.00    +0.007 A 
ATOM     12  C   LIG    1       27.730 -19.392   4.795  0.00  0.00    +0.019 A 
ATOM     13  C   LIG    1       27.489 -20.337   5.798  0.00  0.00    +0.052 A 
ATOM     14  C   LIG    1       26.171 -20.683   6.105  0.00  0.00    +0.019 A 
ATOM     15  C   LIG    1       25.109 -20.077   5.427  0.00  0.00    +0.007 A 
BRANCH  13  16
ATOM     16  C   LIG    1       28.584 -20.945   6.501  0.00  0.00    +0.099 C 
ATOM     17  N   LIG    1       29.475 -21.436   7.062  0.00  0.00    -0.191 NA
ENDBRANCH  13  16
ENDBRANCH   1  10
BRANCH   1  18
ATOM     18  N   LIG    1       22.865 -19.084   3.959  0.00  0.00    -0.240 N 
ATOM     19  N   LIG    1       22.760 -20.318   4.510  0.00  0.00    -0.158 NA
ATOM     20  C   LIG    1       21.438 -20.462   4.608  0.00  0.00    +0.244 A 
ATOM     21  N   LIG    1       20.705 -19.394   4.180  0.00  0.00    -0.223 NA
ATOM     22  C   LIG    1       21.623 -18.542   3.784  0.00  0.00    +0.220 A 
ENDBRANCH   1  18
TORSDOF 5
ENDMDL
MODEL 2
REMARK VINA RESULT:      -1.3      2.125      6.476
REMARK  Name = *****
REMARK                            x       y       z     vdW  Elec       q    Type
REMARK                         _______ _______ _______ _____ _____    ______ ____
ROOT
ATOM      1  C   LIG    1       27.118 -18.955   4.291  0.00  0.00    +0.169 C 
ENDROOT
BRANCH   1   5
ATOM      2  C   LIG    1       23.096 -20.607   4.743  0.00  0.00    +0.052 A 
ATOM      3  C   LIG    1       24.191 -21.216   5.367  0.00  0.00    +0.019 A 
ATOM      4  C   LIG    1       25.480 -20.681   5.224  0.00  0.00    +0.007 A 
ATOM      5  C   LIG    1       25.699 -19.519   4.459  0.00  0.00    -0.019 A 
ATOM      6  C   LIG    1       24.588 -18.932   3.827  0.00  0.00    +0.007 A 
ATOM      7  C   LIG    1       23.304 -19.464   3.969  0.00  0.00    +0.019 A 
BRANCH   2   9
ATOM      8  N   LIG    1       20.702 -21.572   5.030  0.00  0.00    -0.191 NA
ATOM      9  C   LIG    1       21.777 -21.143   4.898  0.00  0.00    +0.099 C 
ENDBRANCH   2   9
ENDBRANCH   1   5
BRANCH   1  10
ATOM     10  C   LIG    1       27.149 -17.444   4.024  0.00  0.00    -0.019 A 
ATOM     11  C   LIG    1       28.252 -16.668   4.421  0.00  0.00    +0.007 A 
ATOM     12  C   LIG    1       28.299 -15.293   4.148  0.00  0.00    +0.019 A 
ATOM     13  C   LIG    1       27.237 -14.662   3.492  0.00  0.00    +0.052 A 
ATOM     14  C   LIG    1       26.127 -15.417   3.110  0.00  0.00    +0.019 A 
ATOM     15  C   LIG    1       26.088 -16.791   3.368  0.00  0.00    +0.007 A 
BRANCH  13  16
ATOM     16  C   LIG    1       27.290 -13.253   3.216  0.00  0.00    +0.099 C 
ATOM     17  N   LIG    1       27.332 -12.112   3.002  0.00  0.00    -0.191 NA
ENDBRANCH  13  16
ENDBRANCH   1  10
BRANCH   1  18
ATOM     18  N   LIG    1       28.014 -19.359   5.396  0.00  0.00    -0.240 N 
ATOM     19  N   LIG    1       28.858 -18.492   6.008  0.00  0.00    -0.158 NA
ATOM     20  C   LIG    1       29.414 -19.266   6.941  0.00  0.00    +0.244 A 
ATOM     21  N   LIG    1       28.962 -20.551   6.974  0.00  0.00    -0.223 NA
ATOM     22  C   LIG    1       28.081 -20.583   6.000  0.00  0.00    +0.220 A 
ENDBRANCH   1  18
TORSDOF 5
ENDMDL
MODEL 3
REMARK VINA RESULT:      -0.9      2.259      5.720
REMARK  Name = *****
REMARK                            x       y       z     vdW  Elec       q    Type
REMARK                         _______ _______ _______ _____ _____    ______ ____
ROOT
ATOM      1  C   LIG    1       26.284 -19.267   4.171  0.00  0.00    +0.169 C 
ENDROOT
BRANCH   1   5
ATOM      2  C   LIG    1       21.935 -19.654   3.955  0.00  0.00    +0.052 A 
ATOM      3  C   LIG    1       22.750 -20.791   4.021  0.00  0.00    +0.019 A 
ATOM      4  C   LIG    1       24.144 -20.663   4.094  0.00  0.00    +0.007 A 
ATOM      5  C   LIG    1       24.754 -19.394   4.112  0.00  0.00    -0.019 A 
ATOM      6  C   LIG    1       23.919 -18.265   4.029  0.00  0.00    +0.007 A 
ATOM      7  C   LIG    1       22.529 -18.391   3.955  0.00  0.00    +0.019 A 
BRANCH   2   9
ATOM      8  N   LIG    1       19.350 -19.887   3.850  0.00  0.00    -0.191 NA
ATOM      9  C   LIG    1       20.510 -19.781   3.892  0.00  0.00    +0.099 C 
ENDBRANCH   2   9
ENDBRANCH   1   5
BRANCH   1  10
ATOM     10  C   LIG    1       26.783 -17.821   4.046  0.00  0.00    -0.019 A 
ATOM     11  C   LIG    1       26.042 -16.866   3.326  0.00  0.00    +0.007 A 
ATOM     12  C   LIG    1       26.477 -15.536   3.239  0.00  0.00    +0.019 A 
ATOM     13  C   LIG    1       27.669 -15.135   3.851  0.00  0.00    +0.052 A 
ATOM     14  C   LIG    1       28.425 -16.078   4.552  0.00  0.00    +0.019 A 
ATOM     15  C   LIG    1       27.982 -17.400   4.653  0.00  0.00    +0.007 A 
BRANCH  13  16
ATOM     16  C   LIG    1       28.111 -13.772   3.758  0.00  0.00    +0.099 C 
ATOM     17  N   LIG    1       28.477 -12.671   3.685  0.00  0.00    -0.191 NA
ENDBRANCH  13  16
ENDBRANCH   1  10
BRANCH   1  18
ATOM     18  N   LIG    1       26.859 -19.971   5.337  0.00  0.00    -0.240 N 
ATOM     19  N   LIG    1       26.098 -20.647   6.232  0.00  0.00    -0.158 NA
ATOM     20  C   LIG    1       27.021 -21.141   7.057  0.00  0.00    +0.244 A 
ATOM     21  N   LIG    1       28.311 -20.843   6.730  0.00  0.00    -0.223 NA
ATOM     22  C   LIG    1       28.182 -20.114   5.645  0.00  0.00    +0.220 A 
ENDBRANCH   1  18
TORSDOF 5
ENDMDL
MODEL 4
REMARK VINA RESULT:       0.9      0.577      1.654
REMARK  Name = *****
REMARK                            x       y       z     vdW  Elec       q    Type
REMARK                         _______ _______ _______ _____ _____    ______ ____
ROOT
ATOM      1  C   LIG    1       24.242 -18.423   3.680  0.00  0.00    +0.169 C 
ENDROOT
BRANCH   1   5
ATOM      2  C   LIG    1       24.157 -14.083   4.198  0.00  0.00    +0.052 A 
ATOM      3  C   LIG    1       25.251 -14.707   3.587  0.00  0.00    +0.019 A 
ATOM      4  C   LIG    1       25.274 -16.098   3.419  0.00  0.00    +0.007 A 
ATOM      5  C   LIG    1       24.197 -16.896   3.851  0.00  0.00    -0.019 A 
ATOM      6  C   LIG    1       23.114 -16.252   4.476  0.00  0.00    +0.007 A 
ATOM      7  C   LIG    1       23.091 -14.865   4.645  0.00  0.00    +0.019 A 
BRANCH   2   9
ATOM      8  N   LIG    1       24.094 -11.504   4.502  0.00  0.00    -0.191 NA
ATOM      9  C   LIG    1       24.125 -12.660   4.361  0.00  0.00    +0.099 C 
ENDBRANCH   2   9
ENDBRANCH   1   5
BRANCH   1  10
ATOM     10  C   LIG    1       25.394 -19.090   4.444  0.00  0.00    -0.019 A 
ATOM     11  C   LIG    1       25.157 -20.204   5.269  0.00  0.00    +0.007 A 
ATOM     12  C   LIG    1       26.212 -20.838   5.941  0.00  0.00    +0.019 A 
ATOM     13  C   LIG    1       27.522 -20.361   5.819  0.00  0.00    +0.052 A 
ATOM     14  C   LIG    1       27.768 -19.243   5.020  0.00  0.00    +0.019 A 
ATOM     15  C   LIG    1       26.718 -18.621   4.337  0.00  0.00    +0.007 A 
BRANCH  13  16
ATOM     16  C   LIG    1       28.599 -21.012   6.511  0.00  0.00    +0.099 C 
ATOM     17  N   LIG    1       29.474 -21.543   7.062  0.00  0.00    -0.191 NA
ENDBRANCH  13  16
ENDBRANCH   1  10
BRANCH   1  18
ATOM     18  N   LIG    1       22.934 -19.054   3.954  0.00  0.00    -0.240 N 
ATOM     19  N   LIG    1       21.755 -18.426   3.721  0.00  0.00    -0.158 NA
ATOM     20  C   LIG    1       20.873 -19.366   4.063  0.00  0.00    +0.244 A 
ATOM     21  N   LIG    1       21.414 -20.549   4.471  0.00  0.00    -0.223 NA
ATOM     22  C   LIG    1       22.707 -20.330   4.388  0.00  0.00    +0.220 A 
ENDBRANCH   1  18
TORSDOF 5
ENDMDL
