MODEL 1
REMARK VINA RESULT:      -9.3      0.000      0.000
REMARK  Name = *****
REMARK                            x       y       z     vdW  Elec       q    Type
REMARK                         _______ _______ _______ _____ _____    ______ ____
ROOT
ATOM      1  C   LIG    1       24.437 -21.978   6.669  0.00  0.00    +0.058 C 
ATOM      2  C   LIG    1       25.944 -22.116   7.041  0.00  0.00    +0.056 C 
ATOM      3  C   LIG    1       26.762 -21.038   6.408  0.00  0.00    -0.018 C 
ATOM      4  C   LIG    1       26.301 -20.287   5.347  0.00  0.00    +0.020 C 
ATOM      5  N   LIG    1       27.280 -19.408   4.982  0.00  0.00    -0.358 NA
ATOM      6  H   LIG    1       27.217 -18.730   4.235  0.00  0.00    +0.166 HD
ATOM      7  C   LIG    1       28.379 -19.571   5.799  0.00  0.00    +0.047 C 
ATOM      8  C   LIG    1       29.601 -18.889   5.807  0.00  0.00    +0.027 C 
ATOM      9  C   LIG    1       30.547 -19.268   6.764  0.00  0.00    +0.015 C 
ATOM     10  C   LIG    1       30.287 -20.299   7.674  0.00  0.00    +0.037 C 
ATOM     11  C   LIG    1       29.049 -20.963   7.658  0.00  0.00    +0.023 C 
ATOM     12  C   LIG    1       24.958 -20.383   4.720  0.00  0.00    +0.055 C 
ATOM     13  C   LIG    1       28.081 -20.594   6.703  0.00  0.00    +0.004 C 
ATOM     14  C   LIG    1       24.268 -21.691   5.152  0.00  0.00    +0.025 C 
ENDROOT
BRANCH  10  15
ATOM     15  C   LIG    1       31.346 -20.647   8.659  0.00  0.00    +0.242 C 
ATOM     16  O   LIG    1       31.939 -19.788   9.301  0.00  0.00    -0.270 OA
ATOM     17  N   LIG    1       31.672 -21.968   8.797  0.00  0.00    -0.325 N 
ATOM     18  H   LIG    1       32.464 -22.173   9.392  0.00  0.00    +0.145 HD
ATOM     19  H   LIG    1       31.388 -22.672   8.132  0.00  0.00    +0.145 HD
ENDBRANCH  10  15
BRANCH   1  21
ATOM     20  C   LIG    1       24.208 -24.400   6.423  0.00  0.00    +0.101 C 
ATOM     21  N   LIG    1       23.652 -23.184   7.002  0.00  0.00    -0.316 NA
ATOM     22  H   LIG    1       23.624 -23.289   8.017  0.00  0.00    +0.122 HD
ENDBRANCH   1  21
TORSDOF 2
ENDMDL
MODEL 2
REMARK VINA RESULT:      -8.5      2.430      6.012
REMARK  Name = *****
REMARK                            x       y       z     vdW  Elec       q    Type
REMARK                         _______ _______ _______ _____ _____    ______ ____
ROOT
ATOM      1  C   LIG    1       30.042 -20.484   7.625  0.00  0.00    +0.058 C 
ATOM      2  C   LIG    1       28.611 -21.075   7.802  0.00  0.00    +0.056 C 
ATOM      3  C   LIG    1       27.724 -20.702   6.659  0.00  0.00    -0.018 C 
ATOM      4  C   LIG    1       28.025 -19.670   5.796  0.00  0.00    +0.020 C 
ATOM      5  N   LIG    1       27.016 -19.564   4.880  0.00  0.00    -0.358 NA
ATOM      6  H   LIG    1       26.973 -18.896   4.124  0.00  0.00    +0.166 HD
ATOM      7  C   LIG    1       26.058 -20.524   5.132  0.00  0.00    +0.047 C 
ATOM      8  C   LIG    1       24.866 -20.802   4.453  0.00  0.00    +0.027 C 
ATOM      9  C   LIG    1       24.077 -21.851   4.936  0.00  0.00    +0.015 C 
ATOM     10  C   LIG    1       24.459 -22.589   6.061  0.00  0.00    +0.037 C 
ATOM     11  C   LIG    1       25.666 -22.303   6.721  0.00  0.00    +0.023 C 
ATOM     12  C   LIG    1       29.249 -18.829   5.823  0.00  0.00    +0.055 C 
ATOM     13  C   LIG    1       26.477 -21.251   6.249  0.00  0.00    +0.004 C 
ATOM     14  C   LIG    1       29.973 -18.999   7.171  0.00  0.00    +0.025 C 
ENDROOT
BRANCH  10  15
ATOM     15  C   LIG    1       23.563 -23.687   6.515  0.00  0.00    +0.242 C 
ATOM     16  O   LIG    1       23.978 -24.826   6.696  0.00  0.00    -0.270 OA
ATOM     17  N   LIG    1       22.239 -23.392   6.686  0.00  0.00    -0.325 N 
ATOM     18  H   LIG    1       21.630 -24.174   6.893  0.00  0.00    +0.145 HD
ATOM     19  H   LIG    1       21.817 -22.549   6.326  0.00  0.00    +0.145 HD
ENDBRANCH  10  15
BRANCH   1  21
ATOM     20  C   LIG    1       31.234 -21.913   9.211  0.00  0.00    +0.101 C 
ATOM     21  N   LIG    1       30.847 -20.552   8.861  0.00  0.00    -0.316 NA
ATOM     22  H   LIG    1       31.693 -19.995   8.734  0.00  0.00    +0.122 HD
ENDBRANCH   1  21
TORSDOF 2
ENDMDL
MODEL 3
REMARK VINA RESULT:      -8.2      3.332      6.486
REMARK  Name = *****
REMARK                            x       y       z     vdW  Elec       q    Type
REMARK                         _______ _______ _______ _____ _____    ______ ____
ROOT
ATOM      1  C   LIG    1       27.252 -20.628   7.646  0.00  0.00    +0.058 C 
ATOM      2  C   LIG    1       27.325 -22.170   7.438  0.00  0.00    +0.056 C 
ATOM      3  C   LIG    1       25.970 -22.752   7.200  0.00  0.00    -0.018 C 
ATOM      4  C   LIG    1       24.810 -22.075   7.513  0.00  0.00    +0.020 C 
ATOM      5  N   LIG    1       23.747 -22.874   7.201  0.00  0.00    -0.358 NA
ATOM      6  H   LIG    1       22.772 -22.633   7.320  0.00  0.00    +0.166 HD
ATOM      7  C   LIG    1       24.199 -24.067   6.678  0.00  0.00    +0.047 C 
ATOM      8  C   LIG    1       23.479 -25.173   6.211  0.00  0.00    +0.027 C 
ATOM      9  C   LIG    1       24.211 -26.262   5.726  0.00  0.00    +0.015 C 
ATOM     10  C   LIG    1       25.610 -26.253   5.719  0.00  0.00    +0.037 C 
ATOM     11  C   LIG    1       26.313 -25.128   6.180  0.00  0.00    +0.023 C 
ATOM     12  C   LIG    1       24.716 -20.700   8.065  0.00  0.00    +0.055 C 
ATOM     13  C   LIG    1       25.596 -24.018   6.671  0.00  0.00    +0.004 C 
ATOM     14  C   LIG    1       26.088 -20.255   8.605  0.00  0.00    +0.025 C 
ENDROOT
BRANCH  10  15
ATOM     15  C   LIG    1       26.315 -27.452   5.191  0.00  0.00    +0.242 C 
ATOM     16  O   LIG    1       27.337 -27.357   4.521  0.00  0.00    -0.270 OA
ATOM     17  N   LIG    1       25.759 -28.675   5.445  0.00  0.00    -0.325 N 
ATOM     18  H   LIG    1       26.195 -29.467   4.990  0.00  0.00    +0.145 HD
ATOM     19  H   LIG    1       24.813 -28.785   5.779  0.00  0.00    +0.145 HD
ENDBRANCH  10  15
BRANCH   1  21
ATOM     20  C   LIG    1       29.532 -19.874   7.181  0.00  0.00    +0.101 C 
ATOM     21  N   LIG    1       28.502 -20.063   8.195  0.00  0.00    -0.316 NA
ATOM     22  H   LIG    1       28.295 -19.160   8.622  0.00  0.00    +0.122 HD
ENDBRANCH   1  21
TORSDOF 2
ENDMDL
MODEL 4
REMARK VINA RESULT:      -8.1      3.365      5.581
REMARK  Name = *****
REMARK                            x       y       z     vdW  Elec       q    Type
REMARK                         _______ _______ _______ _____ _____    ______ ____
ROOT
ATOM      1  C   LIG    1       25.317 -28.072   7.098  0.00  0.00    +0.058 C 
ATOM      2  C   LIG    1       25.934 -26.681   7.430  0.00  0.00    +0.056 C 
ATOM      3  C   LIG    1       25.464 -25.634   6.473  0.00  0.00    -0.018 C 
ATOM      4  C   LIG    1       24.890 -25.947   5.259  0.00  0.00    +0.020 C 
ATOM      5  N   LIG    1       24.591 -24.783   4.610  0.00  0.00    -0.358 NA
ATOM      6  H   LIG    1       24.158 -24.709   3.700  0.00  0.00    +0.166 HD
ATOM      7  C   LIG    1       24.957 -23.708   5.392  0.00  0.00    +0.047 C 
ATOM      8  C   LIG    1       24.831 -22.335   5.146  0.00  0.00    +0.027 C 
ATOM      9  C   LIG    1       25.293 -21.458   6.133  0.00  0.00    +0.015 C 
ATOM     10  C   LIG    1       25.869 -21.932   7.316  0.00  0.00    +0.037 C 
ATOM     11  C   LIG    1       25.975 -23.314   7.548  0.00  0.00    +0.023 C 
ATOM     12  C   LIG    1       24.609 -27.312   4.745  0.00  0.00    +0.055 C 
ATOM     13  C   LIG    1       25.514 -24.216   6.568  0.00  0.00    +0.004 C 
ATOM     14  C   LIG    1       25.384 -28.355   5.571  0.00  0.00    +0.025 C 
ENDROOT
BRANCH  10  15
ATOM     15  C   LIG    1       26.341 -20.935   8.314  0.00  0.00    +0.242 C 
ATOM     16  O   LIG    1       25.791 -20.800   9.401  0.00  0.00    -0.270 OA
ATOM     17  N   LIG    1       27.392 -20.135   7.960  0.00  0.00    -0.325 N 
ATOM     18  H   LIG    1       27.628 -19.395   8.609  0.00  0.00    +0.145 HD
ATOM     19  H   LIG    1       27.714 -20.047   7.008  0.00  0.00    +0.145 HD
ENDBRANCH  10  15
BRANCH   1  21
ATOM     20  C   LIG    1       26.293 -28.868   9.195  0.00  0.00    +0.101 C 
ATOM     21  N   LIG    1       25.990 -29.181   7.804  0.00  0.00    -0.316 NA
ATOM     22  H   LIG    1       25.384 -30.003   7.779  0.00  0.00    +0.122 HD
ENDBRANCH   1  21
TORSDOF 2
ENDMDL
MODEL 5
REMARK VINA RESULT:      -8.0      2.254      3.964
REMARK  Name = *****
REMARK                            x       y       z     vdW  Elec       q    Type
REMARK                         _______ _______ _______ _____ _____    ______ ____
ROOT
ATOM      1  C   LIG    1       25.385 -26.533   6.399  0.00  0.00    +0.058 C 
ATOM      2  C   LIG    1       26.367 -25.323   6.377  0.00  0.00    +0.056 C 
ATOM      3  C   LIG    1       25.676 -24.055   6.759  0.00  0.00    -0.018 C 
ATOM      4  C   LIG    1       24.303 -23.928   6.744  0.00  0.00    +0.020 C 
ATOM      5  N   LIG    1       23.983 -22.654   7.119  0.00  0.00    -0.358 NA
ATOM      6  H   LIG    1       23.047 -22.280   7.200  0.00  0.00    +0.166 HD
ATOM      7  C   LIG    1       25.135 -21.945   7.388  0.00  0.00    +0.047 C 
ATOM      8  C   LIG    1       25.296 -20.621   7.813  0.00  0.00    +0.027 C 
ATOM      9  C   LIG    1       26.601 -20.161   8.012  0.00  0.00    +0.015 C 
ATOM     10  C   LIG    1       27.706 -20.988   7.784  0.00  0.00    +0.037 C 
ATOM     11  C   LIG    1       27.523 -22.318   7.369  0.00  0.00    +0.023 C 
ATOM     12  C   LIG    1       23.325 -24.994   6.410  0.00  0.00    +0.055 C 
ATOM     13  C   LIG    1       26.215 -22.803   7.165  0.00  0.00    +0.004 C 
ATOM     14  C   LIG    1       24.041 -26.165   5.712  0.00  0.00    +0.025 C 
ENDROOT
BRANCH  10  15
ATOM     15  C   LIG    1       29.063 -20.423   8.014  0.00  0.00    +0.242 C 
ATOM     16  O   LIG    1       29.226 -19.316   8.513  0.00  0.00    -0.270 OA
ATOM     17  N   LIG    1       30.136 -21.169   7.608  0.00  0.00    -0.325 N 
ATOM     18  H   LIG    1       31.041 -20.722   7.677  0.00  0.00    +0.145 HD
ATOM     19  H   LIG    1       30.046 -21.960   6.988  0.00  0.00    +0.145 HD
ENDBRANCH  10  15
BRANCH   1  21
ATOM     20  C   LIG    1       24.905 -28.558   5.115  0.00  0.00    +0.101 C 
ATOM     21  N   LIG    1       25.935 -27.729   5.729  0.00  0.00    -0.316 NA
ATOM     22  H   LIG    1       26.588 -27.429   5.004  0.00  0.00    +0.122 HD
ENDBRANCH   1  21
TORSDOF 2
ENDMDL
MODEL 6
REMARK VINA RESULT:      -8.0      2.016      3.356
REMARK  Name = *****
REMARK                            x       y       z     vdW  Elec       q    Type
REMARK                         _______ _______ _______ _____ _____    ______ ____
ROOT
ATOM      1  C   LIG    1       23.111 -21.346   5.197  0.00  0.00    +0.058 C 
ATOM      2  C   LIG    1       24.340 -20.444   5.517  0.00  0.00    +0.056 C 
ATOM      3  C   LIG    1       25.352 -21.176   6.337  0.00  0.00    -0.018 C 
ATOM      4  C   LIG    1       25.050 -22.332   7.025  0.00  0.00    +0.020 C 
ATOM      5  N   LIG    1       26.169 -22.744   7.691  0.00  0.00    -0.358 NA
ATOM      6  H   LIG    1       26.241 -23.566   8.274  0.00  0.00    +0.166 HD
ATOM      7  C   LIG    1       27.207 -21.871   7.439  0.00  0.00    +0.047 C 
ATOM      8  C   LIG    1       28.532 -21.897   7.891  0.00  0.00    +0.027 C 
ATOM      9  C   LIG    1       29.379 -20.868   7.468  0.00  0.00    +0.015 C 
ATOM     10  C   LIG    1       28.918 -19.844   6.634  0.00  0.00    +0.037 C 
ATOM     11  C   LIG    1       27.588 -19.843   6.181  0.00  0.00    +0.023 C 
ATOM     12  C   LIG    1       23.744 -23.039   7.026  0.00  0.00    +0.055 C 
ATOM     13  C   LIG    1       26.718 -20.872   6.593  0.00  0.00    +0.004 C 
ATOM     14  C   LIG    1       22.647 -22.116   6.464  0.00  0.00    +0.025 C 
ENDROOT
BRANCH  10  15
ATOM     15  C   LIG    1       29.880 -18.783   6.231  0.00  0.00    +0.242 C 
ATOM     16  O   LIG    1       30.860 -18.506   6.913  0.00  0.00    -0.270 OA
ATOM     17  N   LIG    1       29.611 -18.087   5.085  0.00  0.00    -0.325 N 
ATOM     18  H   LIG    1       30.217 -17.302   4.885  0.00  0.00    +0.145 HD
ATOM     19  H   LIG    1       28.710 -18.114   4.629  0.00  0.00    +0.145 HD
ENDBRANCH  10  15
BRANCH   1  21
ATOM     20  C   LIG    1       22.229 -19.153   4.569  0.00  0.00    +0.101 C 
ATOM     21  N   LIG    1       21.960 -20.581   4.673  0.00  0.00    -0.316 NA
ATOM     22  H   LIG    1       21.723 -20.937   3.746  0.00  0.00    +0.122 HD
ENDBRANCH   1  21
TORSDOF 2
ENDMDL
MODEL 7
REMARK VINA RESULT:      -8.0      3.999      7.371
REMARK  Name = *****
REMARK                            x       y       z     vdW  Elec       q    Type
REMARK                         _______ _______ _______ _____ _____    ______ ____
ROOT
ATOM      1  C   LIG    1       31.644 -16.609  11.662  0.00  0.00    +0.058 C 
ATOM      2  C   LIG    1       30.404 -17.202  10.928  0.00  0.00    +0.056 C 
ATOM      3  C   LIG    1       30.774 -17.751   9.589  0.00  0.00    -0.018 C 
ATOM      4  C   LIG    1       31.953 -17.419   8.955  0.00  0.00    +0.020 C 
ATOM      5  N   LIG    1       31.989 -18.059   7.748  0.00  0.00    -0.358 NA
ATOM      6  H   LIG    1       32.738 -18.003   7.072  0.00  0.00    +0.166 HD
ATOM      7  C   LIG    1       30.846 -18.814   7.589  0.00  0.00    +0.047 C 
ATOM      8  C   LIG    1       30.457 -19.640   6.527  0.00  0.00    +0.027 C 
ATOM      9  C   LIG    1       29.227 -20.297   6.638  0.00  0.00    +0.015 C 
ATOM     10  C   LIG    1       28.410 -20.127   7.760  0.00  0.00    +0.037 C 
ATOM     11  C   LIG    1       28.825 -19.304   8.820  0.00  0.00    +0.023 C 
ATOM     12  C   LIG    1       33.025 -16.543   9.493  0.00  0.00    +0.055 C 
ATOM     13  C   LIG    1       30.062 -18.634   8.731  0.00  0.00    +0.004 C 
ATOM     14  C   LIG    1       32.493 -15.739  10.694  0.00  0.00    +0.025 C 
ENDROOT
BRANCH  10  15
ATOM     15  C   LIG    1       27.115 -20.857   7.801  0.00  0.00    +0.242 C 
ATOM     16  O   LIG    1       26.488 -21.004   8.843  0.00  0.00    -0.270 OA
ATOM     17  N   LIG    1       26.660 -21.403   6.632  0.00  0.00    -0.325 N 
ATOM     18  H   LIG    1       25.834 -21.983   6.701  0.00  0.00    +0.145 HD
ATOM     19  H   LIG    1       27.246 -21.513   5.817  0.00  0.00    +0.145 HD
ENDBRANCH  10  15
BRANCH   1  21
ATOM     20  C   LIG    1       32.254 -15.860  13.908  0.00  0.00    +0.101 C 
ATOM     21  N   LIG    1       31.279 -15.781  12.828  0.00  0.00    -0.316 NA
ATOM     22  H   LIG    1       31.201 -14.807  12.529  0.00  0.00    +0.122 HD
ENDBRANCH   1  21
TORSDOF 2
ENDMDL
MODEL 8
REMARK VINA RESULT:      -7.6      3.784      6.568
REMARK  Name = *****
REMARK                            x       y       z     vdW  Elec       q    Type
REMARK                         _______ _______ _______ _____ _____    ______ ____
ROOT
ATOM      1  C   LIG    1       27.074 -21.189   7.206  0.00  0.00    +0.058 C 
ATOM      2  C   LIG    1       26.676 -22.616   7.687  0.00  0.00    +0.056 C 
ATOM      3  C   LIG    1       25.862 -23.330   6.657  0.00  0.00    -0.018 C 
ATOM      4  C   LIG    1       25.237 -22.669   5.621  0.00  0.00    +0.020 C 
ATOM      5  N   LIG    1       24.559 -23.587   4.870  0.00  0.00    -0.358 NA
ATOM      6  H   LIG    1       24.013 -23.386   4.044  0.00  0.00    +0.166 HD
ATOM      7  C   LIG    1       24.739 -24.846   5.401  0.00  0.00    +0.047 C 
ATOM      8  C   LIG    1       24.251 -26.083   4.965  0.00  0.00    +0.027 C 
ATOM      9  C   LIG    1       24.601 -27.215   5.708  0.00  0.00    +0.015 C 
ATOM     10  C   LIG    1       25.400 -27.115   6.852  0.00  0.00    +0.037 C 
ATOM     11  C   LIG    1       25.891 -25.866   7.266  0.00  0.00    +0.023 C 
ATOM     12  C   LIG    1       25.308 -21.213   5.337  0.00  0.00    +0.055 C 
ATOM     13  C   LIG    1       25.552 -24.712   6.530  0.00  0.00    +0.004 C 
ATOM     14  C   LIG    1       25.858 -20.464   6.565  0.00  0.00    +0.025 C 
ENDROOT
BRANCH  10  15
ATOM     15  C   LIG    1       25.725 -28.365   7.591  0.00  0.00    +0.242 C 
ATOM     16  O   LIG    1       25.235 -29.445   7.280  0.00  0.00    -0.270 OA
ATOM     17  N   LIG    1       26.563 -28.263   8.667  0.00  0.00    -0.325 N 
ATOM     18  H   LIG    1       26.687 -29.104   9.217  0.00  0.00    +0.145 HD
ATOM     19  H   LIG    1       26.793 -27.380   9.097  0.00  0.00    +0.145 HD
ENDBRANCH  10  15
BRANCH   1  21
ATOM     20  C   LIG    1       28.855 -19.691   7.959  0.00  0.00    +0.101 C 
ATOM     21  N   LIG    1       27.595 -20.341   8.297  0.00  0.00    -0.316 NA
ATOM     22  H   LIG    1       26.904 -19.620   8.513  0.00  0.00    +0.122 HD
ENDBRANCH   1  21
TORSDOF 2
ENDMDL
MODEL 9
REMARK VINA RESULT:      -7.5      3.004      6.646
REMARK  Name = *****
REMARK                            x       y       z     vdW  Elec       q    Type
REMARK                         _______ _______ _______ _____ _____    ______ ____
ROOT
ATOM      1  C   LIG    1       30.838 -18.901   8.168  0.00  0.00    +0.058 C 
ATOM      2  C   LIG    1       29.893 -18.940   6.930  0.00  0.00    +0.056 C 
ATOM      3  C   LIG    1       28.889 -20.040   7.047  0.00  0.00    -0.018 C 
ATOM      4  C   LIG    1       29.042 -21.090   7.927  0.00  0.00    +0.020 C 
ATOM      5  N   LIG    1       27.978 -21.934   7.782  0.00  0.00    -0.358 NA
ATOM      6  H   LIG    1       27.825 -22.787   8.303  0.00  0.00    +0.166 HD
ATOM      7  C   LIG    1       27.123 -21.443   6.817  0.00  0.00    +0.047 C 
ATOM      8  C   LIG    1       25.910 -21.958   6.346  0.00  0.00    +0.027 C 
ATOM      9  C   LIG    1       25.246 -21.237   5.349  0.00  0.00    +0.015 C 
ATOM     10  C   LIG    1       25.778 -20.050   4.833  0.00  0.00    +0.037 C 
ATOM     11  C   LIG    1       26.991 -19.543   5.329  0.00  0.00    +0.023 C 
ATOM     12  C   LIG    1       30.152 -21.270   8.898  0.00  0.00    +0.055 C 
ATOM     13  C   LIG    1       27.676 -20.254   6.335  0.00  0.00    +0.004 C 
ATOM     14  C   LIG    1       31.319 -20.331   8.541  0.00  0.00    +0.025 C 
ENDROOT
BRANCH  10  15
ATOM     15  C   LIG    1       25.013 -19.343   3.771  0.00  0.00    +0.242 C 
ATOM     16  O   LIG    1       23.894 -19.708   3.429  0.00  0.00    -0.270 OA
ATOM     17  N   LIG    1       25.622 -18.287   3.150  0.00  0.00    -0.325 N 
ATOM     18  H   LIG    1       25.129 -17.888   2.362  0.00  0.00    +0.145 HD
ATOM     19  H   LIG    1       26.611 -18.106   3.228  0.00  0.00    +0.145 HD
ENDBRANCH  10  15
BRANCH   1  21
ATOM     20  C   LIG    1       32.231 -17.080   9.019  0.00  0.00    +0.101 C 
ATOM     21  N   LIG    1       32.029 -18.054   7.954  0.00  0.00    -0.316 NA
ATOM     22  H   LIG    1       32.854 -18.653   7.899  0.00  0.00    +0.122 HD
ENDBRANCH   1  21
TORSDOF 2
ENDMDL
