MODEL 1
REMARK VINA RESULT:      19.3      0.000      0.000
REMARK  Name = *****
REMARK                            x       y       z     vdW  Elec       q    Type
REMARK                         _______ _______ _______ _____ _____    ______ ____
ROOT
ATOM      1  C   LIG    1       26.639 -19.642   5.882  0.00  0.00    +0.253 C 
ATOM      2  C   LIG    1       27.921 -20.379   5.495  0.00  0.00    +0.195 C 
ATOM      3  C   LIG    1       28.993 -19.315   5.644  0.00  0.00    +0.178 C 
ATOM      4  C   LIG    1       28.265 -18.003   5.349  0.00  0.00    +0.178 C 
ATOM      5  O   LIG    1       26.848 -18.252   5.515  0.00  0.00    -0.346 OA
ENDROOT
BRANCH   1  10
ATOM      6  C   LIG    1       22.047 -20.004   4.284  0.00  0.00    +0.151 A 
ATOM      7  C   LIG    1       23.398 -20.378   4.450  0.00  0.00    +0.148 A 
ATOM      8  N   LIG    1       24.084 -21.541   4.160  0.00  0.00    -0.231 NA
ATOM      9  C   LIG    1       25.297 -21.349   4.623  0.00  0.00    +0.203 A 
ATOM     10  N   LIG    1       25.435 -20.117   5.213  0.00  0.00    -0.285 N 
ATOM     11  C   LIG    1       24.234 -19.464   5.066  0.00  0.00    +0.169 A 
ATOM     12  N   LIG    1       23.901 -18.230   5.469  0.00  0.00    -0.202 NA
ATOM     13  C   LIG    1       22.605 -17.946   5.249  0.00  0.00    +0.192 A 
ATOM     14  N   LIG    1       21.676 -18.771   4.719  0.00  0.00    -0.205 NA
BRANCH   6  15
ATOM     15  N   LIG    1       21.050 -20.804   3.724  0.00  0.00    -0.326 N 
ATOM     16  H   LIG    1       21.343 -21.125   2.803  0.00  0.00    +0.147 HD
BRANCH  15  17
ATOM     17  C   LIG    1       19.673 -20.333   3.825  0.00  0.00    +0.114 C 
BRANCH  17  18
ATOM     18  C   LIG    1       19.568 -18.825   3.590  0.00  0.00    +0.087 C 
BRANCH  18  20
ATOM     19  C   LIG    1       19.737 -16.597   1.930  0.00  0.00    +0.084 C 
ATOM     20  S   LIG    1       19.351 -18.365   1.830  0.00  0.00    -0.163 S 
ENDBRANCH  18  20
ENDBRANCH  17  18
ENDBRANCH  15  17
ENDBRANCH   6  15
BRANCH  13  21
ATOM     21  S   LIG    1       22.062 -16.311   5.720  0.00  0.00    -0.086 S 
BRANCH  21  22
ATOM     22  C   LIG    1       22.497 -15.440   4.182  0.00  0.00    +0.086 C 
BRANCH  22  23
ATOM     23  C   LIG    1       23.271 -14.155   4.454  0.00  0.00    +0.124 C 
BRANCH  23  24
ATOM     24  C   LIG    1       23.639 -13.472   3.150  0.00  0.00    +0.391 C 
ATOM     25  F   LIG    1       22.955 -14.010   2.115  0.00  0.00    -0.171 F 
ATOM     26  F   LIG    1       24.955 -13.620   2.882  0.00  0.00    -0.171 F 
ATOM     27  F   LIG    1       23.376 -12.147   3.160  0.00  0.00    -0.171 F 
ENDBRANCH  23  24
ENDBRANCH  22  23
ENDBRANCH  21  22
ENDBRANCH  13  21
ENDBRANCH   1  10
BRANCH   3  28
ATOM     28  O   LIG    1       29.437 -19.350   7.015  0.00  0.00    -0.386 OA
ATOM     29  H   LIG    1       28.719 -18.965   7.553  0.00  0.00    +0.210 HD
ENDBRANCH   3  28
BRANCH   2  30
ATOM     30  O   LIG    1       28.213 -21.502   6.329  0.00  0.00    -0.385 OA
ATOM     31  H   LIG    1       27.371 -21.983   6.452  0.00  0.00    +0.210 HD
ENDBRANCH   2  30
BRANCH   4  32
ATOM     32  C   LIG    1       28.502 -17.432   3.937  0.00  0.00    +0.206 C 
BRANCH  32  33
ATOM     33  O   LIG    1       27.332 -17.473   3.126  0.00  0.00    -0.284 OA
BRANCH  33  34
ATOM     34  P   LIG    1       26.230 -16.308   3.380  0.00  0.00    +0.482 P 
ATOM     35  O   LIG    1       24.847 -16.694   3.048  0.00  0.00    -0.227 OA
BRANCH  34  36
ATOM     36  O   LIG    1       26.419 -15.961   4.943  0.00  0.00    -0.302 OA
ATOM     37  H   LIG    1       26.736 -15.045   5.060  0.00  0.00    +0.222 HD
ENDBRANCH  34  36
BRANCH  34  38
ATOM     38  O   LIG    1       26.797 -15.023   2.618  0.00  0.00    -0.206 OA
BRANCH  38  39
ATOM     39  P   LIG    1       28.115 -14.187   2.972  0.00  0.00    +0.386 P 
ATOM     40  O   LIG    1       29.093 -14.102   1.830  0.00  0.00    -0.254 OA
BRANCH  39  41
ATOM     41  C   LIG    1       27.638 -12.626   3.768  0.00  0.00    +0.318 C 
ATOM     42 CL   LIG    1       26.471 -11.735   2.700  0.00  0.00    -0.075 Cl
ATOM     43 CL   LIG    1       29.112 -11.575   3.888  0.00  0.00    -0.075 Cl
BRANCH  41  44
ATOM     44  P   LIG    1       26.912 -12.647   5.437  0.00  0.00    +0.375 P 
ATOM     45  O   LIG    1       25.425 -12.707   5.582  0.00  0.00    -0.255 OA
BRANCH  44  46
ATOM     46  O   LIG    1       27.578 -13.896   6.212  0.00  0.00    -0.322 OA
ATOM     47  H   LIG    1       27.310 -13.972   7.146  0.00  0.00    +0.220 HD
ENDBRANCH  44  46
BRANCH  44  48
ATOM     48  O   LIG    1       27.535 -11.448   6.306  0.00  0.00    -0.322 OA
ATOM     49  H   LIG    1       27.131 -10.577   6.125  0.00  0.00    +0.220 HD
ENDBRANCH  44  48
ENDBRANCH  41  44
ENDBRANCH  39  41
BRANCH  39  50
ATOM     50  O   LIG    1       28.755 -15.127   4.127  0.00  0.00    -0.321 OA
ATOM     51  H   LIG    1       29.671 -14.885   4.367  0.00  0.00    +0.220 HD
ENDBRANCH  39  50
ENDBRANCH  38  39
ENDBRANCH  34  38
ENDBRANCH  33  34
ENDBRANCH  32  33
ENDBRANCH   4  32
TORSDOF 22
ENDMDL
MODEL 2
REMARK VINA RESULT:      19.6      2.706      5.795
REMARK  Name = *****
REMARK                            x       y       z     vdW  Elec       q    Type
REMARK                         _______ _______ _______ _____ _____    ______ ____
ROOT
ATOM      1  C   LIG    1       24.353 -16.271   2.927  0.00  0.00    +0.253 C 
ATOM      2  C   LIG    1       23.744 -15.460   4.072  0.00  0.00    +0.195 C 
ATOM      3  C   LIG    1       23.320 -14.168   3.397  0.00  0.00    +0.178 C 
ATOM      4  C   LIG    1       24.314 -14.001   2.247  0.00  0.00    +0.178 C 
ATOM      5  O   LIG    1       24.903 -15.300   1.997  0.00  0.00    -0.346 OA
ENDROOT
BRANCH   1  10
ATOM      6  C   LIG    1       26.743 -20.147   4.669  0.00  0.00    +0.151 A 
ATOM      7  C   LIG    1       26.588 -18.868   4.089  0.00  0.00    +0.148 A 
ATOM      8  N   LIG    1       27.482 -17.849   3.832  0.00  0.00    -0.231 NA
ATOM      9  C   LIG    1       26.752 -16.860   3.371  0.00  0.00    +0.203 A 
ATOM     10  N   LIG    1       25.418 -17.182   3.323  0.00  0.00    -0.285 N 
ATOM     11  C   LIG    1       25.305 -18.488   3.738  0.00  0.00    +0.169 A 
ATOM     12  N   LIG    1       24.198 -19.238   3.840  0.00  0.00    -0.202 NA
ATOM     13  C   LIG    1       24.440 -20.446   4.376  0.00  0.00    +0.192 A 
ATOM     14  N   LIG    1       25.629 -20.911   4.818  0.00  0.00    -0.205 NA
BRANCH   6  15
ATOM     15  N   LIG    1       27.947 -20.687   5.124  0.00  0.00    -0.326 N 
ATOM     16  H   LIG    1       28.201 -21.490   4.551  0.00  0.00    +0.147 HD
BRANCH  15  17
ATOM     17  C   LIG    1       28.109 -20.856   6.563  0.00  0.00    +0.114 C 
BRANCH  17  18
ATOM     18  C   LIG    1       29.431 -20.270   7.060  0.00  0.00    +0.087 C 
BRANCH  18  20
ATOM     19  C   LIG    1       29.273 -18.130   5.288  0.00  0.00    +0.084 C 
ATOM     20  S   LIG    1       29.475 -18.439   7.062  0.00  0.00    -0.163 S 
ENDBRANCH  18  20
ENDBRANCH  17  18
ENDBRANCH  15  17
ENDBRANCH   6  15
BRANCH  13  21
ATOM     21  S   LIG    1       23.036 -21.541   4.529  0.00  0.00    -0.086 S 
BRANCH  21  22
ATOM     22  C   LIG    1       21.780 -20.455   3.782  0.00  0.00    +0.086 C 
BRANCH  22  23
ATOM     23  C   LIG    1       21.705 -19.103   4.483  0.00  0.00    +0.124 C 
BRANCH  23  24
ATOM     24  C   LIG    1       20.792 -18.161   3.722  0.00  0.00    +0.391 C 
ATOM     25  F   LIG    1       19.647 -18.786   3.362  0.00  0.00    -0.171 F 
ATOM     26  F   LIG    1       21.384 -17.724   2.589  0.00  0.00    -0.171 F 
ATOM     27  F   LIG    1       20.444 -17.072   4.442  0.00  0.00    -0.171 F 
ENDBRANCH  23  24
ENDBRANCH  22  23
ENDBRANCH  21  22
ENDBRANCH  13  21
ENDBRANCH   1  10
BRANCH   3  28
ATOM     28  O   LIG    1       21.987 -14.373   2.889  0.00  0.00    -0.386 OA
ATOM     29  H   LIG    1       21.484 -14.824   3.594  0.00  0.00    +0.210 HD
ENDBRANCH   3  28
BRANCH   2  30
ATOM     30  O   LIG    1       22.621 -16.092   4.689  0.00  0.00    -0.385 OA
ATOM     31  H   LIG    1       22.763 -17.056   4.603  0.00  0.00    +0.210 HD
ENDBRANCH   2  30
BRANCH   4  32
ATOM     32  C   LIG    1       25.446 -12.989   2.509  0.00  0.00    +0.206 C 
BRANCH  32  33
ATOM     33  O   LIG    1       25.022 -11.883   3.299  0.00  0.00    -0.284 OA
BRANCH  33  34
ATOM     34  P   LIG    1       24.573 -12.209   4.825  0.00  0.00    +0.482 P 
ATOM     35  O   LIG    1       23.296 -11.596   5.229  0.00  0.00    -0.227 OA
BRANCH  34  36
ATOM     36  O   LIG    1       24.526 -13.820   4.856  0.00  0.00    -0.302 OA
ATOM     37  H   LIG    1       24.547 -14.151   5.774  0.00  0.00    +0.222 HD
ENDBRANCH  34  36
BRANCH  34  38
ATOM     38  O   LIG    1       25.841 -11.833   5.722  0.00  0.00    -0.206 OA
BRANCH  38  39
ATOM     39  P   LIG    1       27.258 -12.578   5.763  0.00  0.00    +0.386 P 
ATOM     40  O   LIG    1       27.207 -13.918   6.447  0.00  0.00    -0.254 OA
BRANCH  39  41
ATOM     41  C   LIG    1       28.011 -12.522   4.112  0.00  0.00    +0.318 C 
ATOM     42 CL   LIG    1       29.474 -11.449   4.151  0.00  0.00    -0.075 Cl
ATOM     43 CL   LIG    1       26.838 -11.731   2.977  0.00  0.00    -0.075 Cl
BRANCH  41  44
ATOM     44  P   LIG    1       28.517 -14.069   3.296  0.00  0.00    +0.375 P 
ATOM     45  O   LIG    1       29.085 -15.175   4.125  0.00  0.00    -0.255 OA
BRANCH  44  46
ATOM     46  O   LIG    1       27.225 -14.609   2.493  0.00  0.00    -0.322 OA
ATOM     47  H   LIG    1       26.386 -14.193   2.765  0.00  0.00    +0.220 HD
ENDBRANCH  44  46
BRANCH  44  48
ATOM     48  O   LIG    1       29.468 -13.728   2.047  0.00  0.00    -0.322 OA
ATOM     49  H   LIG    1       30.145 -14.411   1.867  0.00  0.00    +0.220 HD
ENDBRANCH  44  48
ENDBRANCH  41  44
ENDBRANCH  39  41
BRANCH  39  50
ATOM     50  O   LIG    1       28.097 -11.556   6.699  0.00  0.00    -0.321 OA
ATOM     51  H   LIG    1       28.544 -10.844   6.200  0.00  0.00    +0.220 HD
ENDBRANCH  39  50
ENDBRANCH  38  39
ENDBRANCH  34  38
ENDBRANCH  33  34
ENDBRANCH  32  33
ENDBRANCH   4  32
TORSDOF 22
ENDMDL
MODEL 3
REMARK VINA RESULT:      22.2      3.934      6.488
REMARK  Name = *****
REMARK                            x       y       z     vdW  Elec       q    Type
REMARK                         _______ _______ _______ _____ _____    ______ ____
ROOT
ATOM      1  C   LIG    1       28.137 -14.367   4.666  0.00  0.00    +0.253 C 
ATOM      2  C   LIG    1       28.163 -13.122   3.778  0.00  0.00    +0.195 C 
ATOM      3  C   LIG    1       28.115 -11.981   4.778  0.00  0.00    +0.178 C 
ATOM      4  C   LIG    1       27.340 -12.553   5.965  0.00  0.00    +0.178 C 
ATOM      5  O   LIG    1       27.392 -13.996   5.856  0.00  0.00    -0.346 OA
ENDROOT
BRANCH   1  10
ATOM      6  C   LIG    1       27.028 -18.967   3.489  0.00  0.00    +0.151 A 
ATOM      7  C   LIG    1       26.926 -17.559   3.466  0.00  0.00    +0.148 A 
ATOM      8  N   LIG    1       26.233 -16.690   2.646  0.00  0.00    -0.231 NA
ATOM      9  C   LIG    1       26.593 -15.489   3.036  0.00  0.00    +0.203 A 
ATOM     10  N   LIG    1       27.498 -15.532   4.068  0.00  0.00    -0.285 N 
ATOM     11  C   LIG    1       27.684 -16.856   4.385  0.00  0.00    +0.169 A 
ATOM     12  N   LIG    1       28.465 -17.384   5.339  0.00  0.00    -0.202 NA
ATOM     13  C   LIG    1       28.483 -18.728   5.307  0.00  0.00    +0.192 A 
ATOM     14  N   LIG    1       27.843 -19.524   4.424  0.00  0.00    -0.205 NA
BRANCH   6  15
ATOM     15  N   LIG    1       26.375 -19.839   2.618  0.00  0.00    -0.326 N 
ATOM     16  H   LIG    1       26.416 -19.471   1.669  0.00  0.00    +0.147 HD
BRANCH  15  17
ATOM     17  C   LIG    1       25.084 -20.370   3.038  0.00  0.00    +0.114 C 
BRANCH  17  18
ATOM     18  C   LIG    1       24.635 -19.784   4.378  0.00  0.00    +0.087 C 
BRANCH  18  20
ATOM     19  C   LIG    1       22.150 -19.743   5.631  0.00  0.00    +0.084 C 
ATOM     20  S   LIG    1       23.524 -20.885   5.331  0.00  0.00    -0.163 S 
ENDBRANCH  18  20
ENDBRANCH  17  18
ENDBRANCH  15  17
ENDBRANCH   6  15
BRANCH  13  21
ATOM     21  S   LIG    1       29.469 -19.536   6.558  0.00  0.00    -0.086 S 
BRANCH  21  22
ATOM     22  C   LIG    1       28.907 -21.243   6.268  0.00  0.00    +0.086 C 
BRANCH  22  23
ATOM     23  C   LIG    1       27.646 -21.571   7.059  0.00  0.00    +0.124 C 
BRANCH  23  24
ATOM     24  C   LIG    1       26.435 -20.912   6.424  0.00  0.00    +0.391 C 
ATOM     25  F   LIG    1       26.295 -21.302   5.136  0.00  0.00    -0.171 F 
ATOM     26  F   LIG    1       26.561 -19.566   6.424  0.00  0.00    -0.171 F 
ATOM     27  F   LIG    1       25.282 -21.210   7.061  0.00  0.00    -0.171 F 
ENDBRANCH  23  24
ENDBRANCH  22  23
ENDBRANCH  21  22
ENDBRANCH  13  21
ENDBRANCH   1  10
BRANCH   3  28
ATOM     28  O   LIG    1       29.475 -11.689   5.153  0.00  0.00    -0.386 OA
ATOM     29  H   LIG    1       29.709 -10.843   4.725  0.00  0.00    +0.210 HD
ENDBRANCH   3  28
BRANCH   2  30
ATOM     30  O   LIG    1       29.331 -13.022   2.962  0.00  0.00    -0.385 OA
ATOM     31  H   LIG    1       29.536 -13.929   2.659  0.00  0.00    +0.210 HD
ENDBRANCH   2  30
BRANCH   4  32
ATOM     32  C   LIG    1       25.864 -12.119   6.049  0.00  0.00    +0.206 C 
BRANCH  32  33
ATOM     33  O   LIG    1       24.972 -13.225   6.143  0.00  0.00    -0.284 OA
BRANCH  33  34
ATOM     34  P   LIG    1       23.536 -13.066   5.402  0.00  0.00    +0.482 P 
ATOM     35  O   LIG    1       22.493 -13.985   5.891  0.00  0.00    -0.227 OA
BRANCH  34  36
ATOM     36  O   LIG    1       23.166 -11.517   5.650  0.00  0.00    -0.302 OA
ATOM     37  H   LIG    1       22.229 -11.346   5.439  0.00  0.00    +0.222 HD
ENDBRANCH  34  36
BRANCH  34  38
ATOM     38  O   LIG    1       23.862 -13.150   3.840  0.00  0.00    -0.206 OA
BRANCH  38  39
ATOM     39  P   LIG    1       23.692 -14.418   2.878  0.00  0.00    +0.386 P 
ATOM     40  O   LIG    1       24.753 -14.506   1.812  0.00  0.00    -0.254 OA
BRANCH  39  41
ATOM     41  C   LIG    1       23.413 -15.901   3.888  0.00  0.00    +0.318 C 
ATOM     42 CL   LIG    1       24.176 -15.675   5.519  0.00  0.00    -0.075 Cl
ATOM     43 CL   LIG    1       24.286 -17.290   3.113  0.00  0.00    -0.075 Cl
BRANCH  41  44
ATOM     44  P   LIG    1       21.715 -16.489   4.180  0.00  0.00    +0.375 P 
ATOM     45  O   LIG    1       20.965 -15.981   5.369  0.00  0.00    -0.255 OA
BRANCH  44  46
ATOM     46  O   LIG    1       20.879 -16.165   2.838  0.00  0.00    -0.322 OA
ATOM     47  H   LIG    1       20.660 -15.221   2.725  0.00  0.00    +0.220 HD
ENDBRANCH  44  46
BRANCH  44  48
ATOM     48  O   LIG    1       21.687 -18.095   4.114  0.00  0.00    -0.322 OA
ATOM     49  H   LIG    1       20.929 -18.456   3.613  0.00  0.00    +0.220 HD
ENDBRANCH  44  48
ENDBRANCH  41  44
ENDBRANCH  39  41
BRANCH  39  50
ATOM     50  O   LIG    1       22.281 -14.059   2.169  0.00  0.00    -0.321 OA
ATOM     51  H   LIG    1       21.522 -14.052   2.785  0.00  0.00    +0.220 HD
ENDBRANCH  39  50
ENDBRANCH  38  39
ENDBRANCH  34  38
ENDBRANCH  33  34
ENDBRANCH  32  33
ENDBRANCH   4  32
TORSDOF 22
ENDMDL
