MODEL 1
REMARK VINA RESULT:      -1.2      0.000      0.000
REMARK  Name = *****
REMARK                            x       y       z     vdW  Elec       q    Type
REMARK                         _______ _______ _______ _____ _____    ______ ____
ROOT
ATOM      1  N   LIG    1       25.749 -17.033   3.611  0.00  0.00    -0.299 N 
ATOM      2  C   LIG    1       26.116 -15.664   3.579  0.00  0.00    +0.038 A 
ATOM      3  C   LIG    1       25.162 -14.676   3.900  0.00  0.00    -0.016 A 
ATOM      4  C   LIG    1       25.551 -13.311   3.940  0.00  0.00    +0.006 A 
ATOM      5  C   LIG    1       26.844 -12.905   3.650  0.00  0.00    +0.000 A 
ATOM      6  C   LIG    1       27.775 -13.861   3.284  0.00  0.00    +0.002 A 
ATOM      7  C   LIG    1       23.699 -15.048   4.187  0.00  0.00    +0.019 C 
ATOM      8  C   LIG    1       23.316 -14.513   5.592  0.00  0.00    +0.021 C 
ATOM      9  C   LIG    1       22.822 -14.366   3.105  0.00  0.00    +0.021 C 
ATOM     10  C   LIG    1       23.413 -16.556   4.156  0.00  0.00    -0.016 A 
ATOM     11  C   LIG    1       22.094 -17.020   4.401  0.00  0.00    +0.006 A 
ATOM     12  C   LIG    1       21.774 -18.369   4.398  0.00  0.00    +0.000 A 
ATOM     13  C   LIG    1       22.778 -19.294   4.168  0.00  0.00    +0.002 A 
ATOM     14  C   LIG    1       24.084 -18.854   3.933  0.00  0.00    +0.024 A 
ATOM     15  C   LIG    1       27.408 -15.210   3.245  0.00  0.00    +0.024 A 
ATOM     16  C   LIG    1       24.440 -17.489   3.899  0.00  0.00    +0.038 A 
ENDROOT
BRANCH   1  17
ATOM     17  C   LIG    1       26.813 -18.049   3.426  0.00  0.00    +0.112 C 
BRANCH  17  18
ATOM     18  C   LIG    1       27.631 -18.259   4.708  0.00  0.00    +0.035 C 
BRANCH  18  19
ATOM     19  C   LIG    1       27.512 -19.701   5.224  0.00  0.00    +0.085 C 
BRANCH  19  21
ATOM     20  C   LIG    1       29.471 -19.051   6.472  0.00  0.00    +0.104 C 
ATOM     21  N   LIG    1       28.698 -20.182   5.956  0.00  0.00    -0.308 NA
ATOM     22  C   LIG    1       28.342 -21.079   7.056  0.00  0.00    +0.104 C 
ENDBRANCH  19  21
ENDBRANCH  18  19
ENDBRANCH  17  18
ENDBRANCH   1  17
TORSDOF 4
ENDMDL
MODEL 2
REMARK VINA RESULT:      -1.1      1.719      5.012
REMARK  Name = *****
REMARK                            x       y       z     vdW  Elec       q    Type
REMARK                         _______ _______ _______ _____ _____    ______ ____
ROOT
ATOM      1  N   LIG    1       25.564 -17.696   3.914  0.00  0.00    -0.299 N 
ATOM      2  C   LIG    1       26.742 -18.210   4.510  0.00  0.00    +0.038 A 
ATOM      3  C   LIG    1       26.684 -19.405   5.259  0.00  0.00    -0.016 A 
ATOM      4  C   LIG    1       27.879 -19.958   5.792  0.00  0.00    +0.006 A 
ATOM      5  C   LIG    1       29.112 -19.348   5.621  0.00  0.00    +0.000 A 
ATOM      6  C   LIG    1       29.173 -18.150   4.932  0.00  0.00    +0.002 A 
ATOM      7  C   LIG    1       25.346 -20.109   5.527  0.00  0.00    +0.019 C 
ATOM      8  C   LIG    1       25.438 -21.568   5.005  0.00  0.00    +0.021 C 
ATOM      9  C   LIG    1       25.117 -20.111   7.061  0.00  0.00    +0.021 C 
ATOM     10  C   LIG    1       24.134 -19.439   4.862  0.00  0.00    -0.016 A 
ATOM     11  C   LIG    1       22.843 -19.998   5.045  0.00  0.00    +0.006 A 
ATOM     12  C   LIG    1       21.712 -19.447   4.464  0.00  0.00    +0.000 A 
ATOM     13  C   LIG    1       21.850 -18.327   3.662  0.00  0.00    +0.002 A 
ATOM     14  C   LIG    1       23.116 -17.769   3.466  0.00  0.00    +0.024 A 
ATOM     15  C   LIG    1       28.005 -17.596   4.397  0.00  0.00    +0.024 A 
ATOM     16  C   LIG    1       24.284 -18.285   4.066  0.00  0.00    +0.038 A 
ENDROOT
BRANCH   1  17
ATOM     17  C   LIG    1       25.687 -16.532   3.004  0.00  0.00    +0.112 C 
BRANCH  17  18
ATOM     18  C   LIG    1       25.616 -15.201   3.767  0.00  0.00    +0.035 C 
BRANCH  18  19
ATOM     19  C   LIG    1       26.510 -14.132   3.121  0.00  0.00    +0.085 C 
BRANCH  19  21
ATOM     20  C   LIG    1       26.888 -13.656   5.456  0.00  0.00    +0.104 C 
ATOM     21  N   LIG    1       27.147 -13.214   4.084  0.00  0.00    -0.308 NA
ATOM     22  C   LIG    1       28.590 -13.101   3.867  0.00  0.00    +0.104 C 
ENDBRANCH  19  21
ENDBRANCH  18  19
ENDBRANCH  17  18
ENDBRANCH   1  17
TORSDOF 4
ENDMDL
MODEL 3
REMARK VINA RESULT:      -0.9      1.759      6.394
REMARK  Name = *****
REMARK                            x       y       z     vdW  Elec       q    Type
REMARK                         _______ _______ _______ _____ _____    ______ ____
ROOT
ATOM      1  N   LIG    1       25.498 -17.699   3.947  0.00  0.00    -0.299 N 
ATOM      2  C   LIG    1       24.214 -18.284   4.079  0.00  0.00    +0.038 A 
ATOM      3  C   LIG    1       24.050 -19.442   4.869  0.00  0.00    -0.016 A 
ATOM      4  C   LIG    1       22.751 -19.982   5.061  0.00  0.00    +0.006 A 
ATOM      5  C   LIG    1       21.626 -19.422   4.475  0.00  0.00    +0.000 A 
ATOM      6  C   LIG    1       21.782 -18.317   3.658  0.00  0.00    +0.002 A 
ATOM      7  C   LIG    1       25.257 -20.142   5.510  0.00  0.00    +0.019 C 
ATOM      8  C   LIG    1       25.027 -20.227   7.043  0.00  0.00    +0.021 C 
ATOM      9  C   LIG    1       25.343 -21.570   4.910  0.00  0.00    +0.021 C 
ATOM     10  C   LIG    1       26.600 -19.438   5.267  0.00  0.00    -0.016 A 
ATOM     11  C   LIG    1       27.787 -19.998   5.806  0.00  0.00    +0.006 A 
ATOM     12  C   LIG    1       29.028 -19.405   5.631  0.00  0.00    +0.000 A 
ATOM     13  C   LIG    1       29.108 -18.217   4.923  0.00  0.00    +0.002 A 
ATOM     14  C   LIG    1       27.947 -17.649   4.392  0.00  0.00    +0.024 A 
ATOM     15  C   LIG    1       23.055 -17.770   3.463  0.00  0.00    +0.024 A 
ATOM     16  C   LIG    1       26.672 -18.241   4.525  0.00  0.00    +0.038 A 
ENDROOT
BRANCH   1  17
ATOM     17  C   LIG    1       25.607 -16.398   3.245  0.00  0.00    +0.112 C 
BRANCH  17  18
ATOM     18  C   LIG    1       24.882 -15.276   4.002  0.00  0.00    +0.035 C 
BRANCH  18  19
ATOM     19  C   LIG    1       25.340 -13.888   3.532  0.00  0.00    +0.085 C 
BRANCH  19  21
ATOM     20  C   LIG    1       23.890 -12.089   4.225  0.00  0.00    +0.104 C 
ATOM     21  N   LIG    1       24.240 -12.993   3.128  0.00  0.00    -0.308 NA
ATOM     22  C   LIG    1       24.573 -12.213   1.934  0.00  0.00    +0.104 C 
ENDBRANCH  19  21
ENDBRANCH  18  19
ENDBRANCH  17  18
ENDBRANCH   1  17
TORSDOF 4
ENDMDL
MODEL 4
REMARK VINA RESULT:      -0.7      0.162      4.065
REMARK  Name = *****
REMARK                            x       y       z     vdW  Elec       q    Type
REMARK                         _______ _______ _______ _____ _____    ______ ____
ROOT
ATOM      1  N   LIG    1       25.678 -17.021   3.677  0.00  0.00    -0.299 N 
ATOM      2  C   LIG    1       24.365 -17.471   3.960  0.00  0.00    +0.038 A 
ATOM      3  C   LIG    1       23.326 -16.532   4.138  0.00  0.00    -0.016 A 
ATOM      4  C   LIG    1       21.997 -16.987   4.347  0.00  0.00    +0.006 A 
ATOM      5  C   LIG    1       21.681 -18.335   4.407  0.00  0.00    +0.000 A 
ATOM      6  C   LIG    1       22.699 -19.264   4.284  0.00  0.00    +0.002 A 
ATOM      7  C   LIG    1       23.611 -15.023   4.131  0.00  0.00    +0.019 C 
ATOM      8  C   LIG    1       22.731 -14.356   3.041  0.00  0.00    +0.021 C 
ATOM      9  C   LIG    1       23.230 -14.468   5.528  0.00  0.00    +0.021 C 
ATOM     10  C   LIG    1       25.076 -14.657   3.852  0.00  0.00    -0.016 A 
ATOM     11  C   LIG    1       25.459 -13.291   3.827  0.00  0.00    +0.006 A 
ATOM     12  C   LIG    1       26.763 -12.896   3.571  0.00  0.00    +0.000 A 
ATOM     13  C   LIG    1       27.718 -13.865   3.311  0.00  0.00    +0.002 A 
ATOM     14  C   LIG    1       27.354 -15.215   3.325  0.00  0.00    +0.024 A 
ATOM     15  C   LIG    1       24.013 -18.831   4.073  0.00  0.00    +0.024 A 
ATOM     16  C   LIG    1       26.044 -15.654   3.611  0.00  0.00    +0.038 A 
ENDROOT
BRANCH   1  17
ATOM     17  C   LIG    1       26.708 -18.032   3.338  0.00  0.00    +0.112 C 
BRANCH  17  18
ATOM     18  C   LIG    1       27.633 -18.326   4.528  0.00  0.00    +0.035 C 
BRANCH  18  19
ATOM     19  C   LIG    1       27.309 -19.682   5.174  0.00  0.00    +0.085 C 
BRANCH  19  21
ATOM     20  C   LIG    1       29.335 -19.236   6.406  0.00  0.00    +0.104 C 
ATOM     21  N   LIG    1       28.432 -20.280   5.919  0.00  0.00    -0.308 NA
ATOM     22  C   LIG    1       27.974 -21.099   7.042  0.00  0.00    +0.104 C 
ENDBRANCH  19  21
ENDBRANCH  18  19
ENDBRANCH  17  18
ENDBRANCH   1  17
TORSDOF 4
ENDMDL
MODEL 5
REMARK VINA RESULT:      -0.3      0.997      4.256
REMARK  Name = *****
REMARK                            x       y       z     vdW  Elec       q    Type
REMARK                         _______ _______ _______ _____ _____    ______ ____
ROOT
ATOM      1  N   LIG    1       25.188 -17.881   3.767  0.00  0.00    -0.299 N 
ATOM      2  C   LIG    1       24.215 -18.832   4.162  0.00  0.00    +0.038 A 
ATOM      3  C   LIG    1       22.902 -18.408   4.461  0.00  0.00    -0.016 A 
ATOM      4  C   LIG    1       21.910 -19.371   4.784  0.00  0.00    +0.006 A 
ATOM      5  C   LIG    1       22.190 -20.728   4.839  0.00  0.00    +0.000 A 
ATOM      6  C   LIG    1       23.485 -21.150   4.597  0.00  0.00    +0.002 A 
ATOM      7  C   LIG    1       22.532 -16.917   4.465  0.00  0.00    +0.019 C 
ATOM      8  C   LIG    1       21.353 -16.695   3.481  0.00  0.00    +0.021 C 
ATOM      9  C   LIG    1       22.092 -16.548   5.906  0.00  0.00    +0.021 C 
ATOM     10  C   LIG    1       23.677 -15.979   4.059  0.00  0.00    -0.016 A 
ATOM     11  C   LIG    1       23.454 -14.579   4.032  0.00  0.00    +0.006 A 
ATOM     12  C   LIG    1       24.444 -13.681   3.663  0.00  0.00    +0.000 A 
ATOM     13  C   LIG    1       25.685 -14.169   3.290  0.00  0.00    +0.002 A 
ATOM     14  C   LIG    1       25.918 -15.547   3.304  0.00  0.00    +0.024 A 
ATOM     15  C   LIG    1       24.473 -20.213   4.273  0.00  0.00    +0.024 A 
ATOM     16  C   LIG    1       24.944 -16.487   3.702  0.00  0.00    +0.038 A 
ENDROOT
BRANCH   1  17
ATOM     17  C   LIG    1       26.507 -18.376   3.307  0.00  0.00    +0.112 C 
BRANCH  17  18
ATOM     18  C   LIG    1       27.548 -18.364   4.437  0.00  0.00    +0.035 C 
BRANCH  18  19
ATOM     19  C   LIG    1       27.550 -19.688   5.216  0.00  0.00    +0.085 C 
BRANCH  19  21
ATOM     20  C   LIG    1       29.469 -18.759   6.346  0.00  0.00    +0.104 C 
ATOM     21  N   LIG    1       28.828 -19.993   5.886  0.00  0.00    -0.308 NA
ATOM     22  C   LIG    1       28.655 -20.909   7.014  0.00  0.00    +0.104 C 
ENDBRANCH  19  21
ENDBRANCH  18  19
ENDBRANCH  17  18
ENDBRANCH   1  17
TORSDOF 4
ENDMDL
