MODEL 1
REMARK VINA RESULT:      -6.8      0.000      0.000
REMARK  Name = *****
REMARK                            x       y       z     vdW  Elec       q    Type
REMARK                         _______ _______ _______ _____ _____    ______ ____
ROOT
ATOM      1  C   LIG    1       22.038 -30.609  12.764  0.00  0.00    +0.162 C 
ATOM      2  C   LIG    1       22.886 -31.945  12.656  0.00  0.00    +0.234 C 
ATOM      3  O   LIG    1       23.774 -32.185  13.495  0.00  0.00    -0.274 OA
ATOM      4  N   LIG    1       22.699 -33.018  11.837  0.00  0.00    -0.302 N 
ATOM      5  H   LIG    1       23.450 -33.664  12.062  0.00  0.00    +0.149 HD
ATOM      6  C   LIG    1       21.600 -33.686  11.115  0.00  0.00    +0.159 C 
ATOM      7  C   LIG    1       21.407 -33.448   9.572  0.00  0.00    +0.234 C 
ATOM      8  O   LIG    1       20.286 -33.341   9.069  0.00  0.00    -0.274 OA
ATOM      9  N   LIG    1       22.462 -33.595   8.705  0.00  0.00    -0.302 N 
ATOM     10  H   LIG    1       22.088 -33.589   7.752  0.00  0.00    +0.149 HD
ATOM     11  C   LIG    1       23.758 -32.858   8.731  0.00  0.00    +0.168 C 
ATOM     12  C   LIG    1       23.776 -32.051   7.395  0.00  0.00    +0.234 C 
ATOM     13  O   LIG    1       23.124 -32.439   6.421  0.00  0.00    -0.274 OA
ATOM     14  N   LIG    1       24.687 -31.027   7.223  0.00  0.00    -0.302 N 
ATOM     15  H   LIG    1       24.903 -31.035   6.233  0.00  0.00    +0.149 HD
ATOM     16  C   LIG    1       24.272 -29.643   7.569  0.00  0.00    +0.169 C 
ATOM     17  C   LIG    1       25.208 -28.855   8.503  0.00  0.00    +0.101 C 
ATOM     18  S   LIG    1       26.346 -29.670   9.660  0.00  0.00    -0.158 S 
ATOM     19  C   LIG    1       27.312 -28.159  10.143  0.00  0.00    +0.069 C 
ATOM     20  C   LIG    1       27.737 -28.153  11.614  0.00  0.00    +0.020 C 
ATOM     21  C   LIG    1       26.606 -27.559  12.459  0.00  0.00    +0.097 C 
ATOM     22  C   LIG    1       26.794 -27.647  13.954  0.00  0.00    +0.214 C 
ATOM     23  O   LIG    1       27.911 -27.526  14.467  0.00  0.00    -0.276 OA
ATOM     24  N   LIG    1       25.723 -27.789  14.788  0.00  0.00    -0.304 N 
ATOM     25  H   LIG    1       26.034 -27.791  15.751  0.00  0.00    +0.149 HD
ATOM     26  C   LIG    1       24.256 -27.939  14.596  0.00  0.00    +0.163 C 
ATOM     27  C   LIG    1       23.885 -29.199  13.728  0.00  0.00    +0.234 C 
ATOM     28  O   LIG    1       24.672 -29.703  12.931  0.00  0.00    -0.274 OA
ATOM     29  N   LIG    1       22.599 -29.697  13.817  0.00  0.00    -0.302 N 
ATOM     30  H   LIG    1       22.021 -29.497  14.624  0.00  0.00    +0.149 HD
ENDROOT
BRANCH  16  31
ATOM     31  C   LIG    1       23.960 -28.744   6.286  0.00  0.00    +0.237 C 
ATOM     32  N   LIG    1       24.442 -27.430   6.222  0.00  0.00    -0.288 N 
ATOM     33  C   LIG    1       25.819 -27.065   6.567  0.00  0.00    +0.162 C 
ATOM     34  C   LIG    1       26.486 -26.984   5.194  0.00  0.00    +0.033 C 
ATOM     35  C   LIG    1       25.341 -26.661   4.220  0.00  0.00    +0.021 C 
ATOM     36  C   LIG    1       24.099 -26.566   5.099  0.00  0.00    +0.109 C 
ATOM     37  O   LIG    1       23.343 -29.227   5.334  0.00  0.00    -0.274 OA
BRANCH  33  38
ATOM     38  C   LIG    1       25.775 -25.721   7.378  0.00  0.00    +0.234 C 
ATOM     39  N   LIG    1       25.286 -24.612   6.716  0.00  0.00    -0.302 N 
ATOM     40  H   LIG    1       24.612 -24.755   5.980  0.00  0.00    +0.149 HD
ATOM     41  O   LIG    1       26.226 -25.653   8.521  0.00  0.00    -0.274 OA
BRANCH  39  42
ATOM     42  C   LIG    1       25.271 -23.255   7.268  0.00  0.00    +0.159 C 
BRANCH  42  43
ATOM     43  C   LIG    1       23.856 -22.627   6.874  0.00  0.00    +0.234 C 
ATOM     44  N   LIG    1       24.051 -21.357   6.445  0.00  0.00    -0.305 N 
ATOM     45  H   LIG    1       24.855 -21.377   5.837  0.00  0.00    +0.149 HD
ATOM     46  O   LIG    1       22.850 -23.261   6.729  0.00  0.00    -0.274 OA
BRANCH  44  47
ATOM     47  C   LIG    1       23.132 -20.281   6.116  0.00  0.00    +0.200 C 
BRANCH  47  48
ATOM     48  C   LIG    1       22.960 -19.954   4.672  0.00  0.00    +0.228 C 
ATOM     49  O   LIG    1       22.055 -19.202   4.198  0.00  0.00    -0.274 OA
ATOM     50  N   LIG    1       23.935 -20.413   3.806  0.00  0.00    -0.328 N 
ATOM     51  H   LIG    1       24.598 -21.122   4.058  0.00  0.00    +0.145 HD
ATOM     52  H   LIG    1       23.801 -20.211   2.804  0.00  0.00    +0.145 HD
ENDBRANCH  47  48
ENDBRANCH  44  47
ENDBRANCH  42  43
BRANCH  42  53
ATOM     53  C   LIG    1       26.521 -22.401   6.842  0.00  0.00    +0.034 C 
BRANCH  53  54
ATOM     54  C   LIG    1       27.133 -21.229   7.717  0.00  0.00    -0.015 C 
ATOM     55  C   LIG    1       26.258 -20.572   8.779  0.00  0.00    +0.007 C 
ATOM     56  C   LIG    1       27.740 -20.054   6.951  0.00  0.00    +0.007 C 
ENDBRANCH  53  54
ENDBRANCH  42  53
ENDBRANCH  39  42
ENDBRANCH  33  38
ENDBRANCH  16  31
BRANCH   1  57
ATOM     57  C   LIG    1       21.750 -29.794  11.490  0.00  0.00    +0.015 C 
ATOM     58  C   LIG    1       22.743 -30.088  10.392  0.00  0.00    +0.010 C 
BRANCH  57  60
ATOM     59  C   LIG    1       19.336 -30.306  12.051  0.00  0.00    +0.004 C 
ATOM     60  C   LIG    1       20.349 -30.119  10.927  0.00  0.00    +0.002 C 
ENDBRANCH  57  60
ENDBRANCH   1  57
BRANCH  11  61
ATOM     61  C   LIG    1       24.946 -33.823   8.680  0.00  0.00    +0.127 C 
BRANCH  61  62
ATOM     62  C   LIG    1       26.016 -33.501   9.690  0.00  0.00    +0.213 C 
ATOM     63  O   LIG    1       27.204 -33.744   9.532  0.00  0.00    -0.276 OA
ATOM     64  N   LIG    1       25.583 -32.922  10.844  0.00  0.00    -0.329 N 
ATOM     65  H   LIG    1       26.278 -32.626  11.517  0.00  0.00    +0.145 HD
ATOM     66  H   LIG    1       24.614 -32.650  10.966  0.00  0.00    +0.145 HD
ENDBRANCH  61  62
ENDBRANCH  11  61
BRANCH  26  67
ATOM     67  C   LIG    1       23.471 -26.665  14.141  0.00  0.00    +0.067 C 
BRANCH  67  68
ATOM     68  C   LIG    1       21.951 -26.737  14.094  0.00  0.00    -0.045 A 
ATOM     69  C   LIG    1       21.242 -26.585  12.893  0.00  0.00    +0.007 A 
ATOM     70  C   LIG    1       19.842 -26.442  12.891  0.00  0.00    +0.046 A 
ATOM     71  C   LIG    1       19.123 -26.570  14.078  0.00  0.00    +0.120 A 
ATOM     72  C   LIG    1       19.813 -26.926  15.236  0.00  0.00    +0.046 A 
ATOM     73  C   LIG    1       21.209 -26.990  15.252  0.00  0.00    +0.007 A 
BRANCH  71  74
ATOM     74  O   LIG    1       17.770 -26.345  14.019  0.00  0.00    -0.495 OA
ATOM     75  C   LIG    1       17.046 -26.789  15.166  0.00  0.00    +0.277 C 
ENDBRANCH  71  74
ENDBRANCH  67  68
ENDBRANCH  26  67
BRANCH   6  76
ATOM     76  C   LIG    1       20.255 -33.825  11.861  0.00  0.00    +0.041 C 
BRANCH  76  77
ATOM     77  C   LIG    1       20.260 -33.609  13.379  0.00  0.00    +0.098 C 
BRANCH  77  78
ATOM     78  C   LIG    1       18.920 -33.584  14.067  0.00  0.00    +0.211 C 
ATOM     79  O   LIG    1       17.858 -33.498  13.459  0.00  0.00    -0.276 OA
ATOM     80  N   LIG    1       18.949 -33.659  15.429  0.00  0.00    -0.329 N 
ATOM     81  H   LIG    1       18.118 -33.284  15.887  0.00  0.00    +0.145 HD
ATOM     82  H   LIG    1       19.788 -33.416  15.939  0.00  0.00    +0.145 HD
ENDBRANCH  77  78
ENDBRANCH  76  77
ENDBRANCH   6  76
TORSDOF 18
ENDMDL
