MODEL 1
REMARK VINA RESULT:      -5.8      0.000      0.000
REMARK  Name = *****
REMARK                            x       y       z     vdW  Elec       q    Type
REMARK                         _______ _______ _______ _____ _____    ______ ____
ROOT
ATOM      1  C   LIG    1       24.844 -30.530   8.284  0.00  0.00    +0.176 C 
ATOM      2  C   LIG    1       25.964 -30.638   9.395  0.00  0.00    +0.018 C 
ATOM      3  C   LIG    1       26.996 -31.742   9.092  0.00  0.00    +0.016 C 
ATOM      4  C   LIG    1       25.147 -30.971  10.663  0.00  0.00    +0.006 C 
ATOM      5  C   LIG    1       25.967 -30.902  11.965  0.00  0.00    +0.020 C 
ATOM      6  C   LIG    1       26.927 -29.711  12.158  0.00  0.00    +0.006 C 
ATOM      7  C   LIG    1       27.609 -29.268  10.848  0.00  0.00    +0.006 C 
ATOM      8  C   LIG    1       26.464 -28.554  13.135  0.00  0.00    -0.003 C 
ATOM      9  C   LIG    1       27.742 -28.162  13.949  0.00  0.00    +0.016 C 
ATOM     10  C   LIG    1       25.368 -28.969  14.136  0.00  0.00    -0.035 C 
ATOM     11  C   LIG    1       24.721 -28.035  14.863  0.00  0.00    +0.050 C 
ATOM     12  C   LIG    1       24.952 -26.588  14.649  0.00  0.00    +0.156 C 
ATOM     13  O   LIG    1       24.571 -25.786  15.500  0.00  0.00    -0.293 OA
ATOM     14  C   LIG    1       25.625 -26.136  13.375  0.00  0.00    +0.080 C 
ATOM     15  C   LIG    1       24.965 -30.373  14.222  0.00  0.00    -0.050 C 
ATOM     16  C   LIG    1       24.253 -30.875  15.456  0.00  0.00    +0.044 C 
ATOM     17  C   LIG    1       25.936 -27.287  12.413  0.00  0.00    +0.019 C 
ATOM     18  C   LIG    1       25.188 -31.219  13.204  0.00  0.00    -0.019 C 
ATOM     19  C   LIG    1       23.891 -30.099  10.540  0.00  0.00    +0.009 C 
ATOM     20  C   LIG    1       26.699 -29.280   9.619  0.00  0.00    +0.011 C 
ATOM     21  C   LIG    1       23.742 -29.747   9.046  0.00  0.00    +0.057 C 
ENDROOT
BRANCH   1  22
ATOM     22  C   LIG    1       24.277 -31.937   7.882  0.00  0.00    +0.174 C 
ATOM     23  O   LIG    1       23.349 -32.469   8.500  0.00  0.00    -0.293 OA
ATOM     24  C   LIG    1       24.909 -32.688   6.734  0.00  0.00    +0.090 C 
ENDBRANCH   1  22
BRANCH   1  25
ATOM     25  O   LIG    1       25.370 -29.780   7.166  0.00  0.00    -0.450 OA
BRANCH  25  27
ATOM     26  C   LIG    1       24.930 -27.549   6.498  0.00  0.00    +0.136 C 
ATOM     27  C   LIG    1       24.519 -28.996   6.446  0.00  0.00    +0.305 C 
ATOM     28  O   LIG    1       23.582 -29.403   5.786  0.00  0.00    -0.251 OA
ENDBRANCH  25  27
ENDBRANCH   1  25
TORSDOF 3
ENDMDL
MODEL 2
REMARK VINA RESULT:      -5.5      2.102      3.419
REMARK  Name = *****
REMARK                            x       y       z     vdW  Elec       q    Type
REMARK                         _______ _______ _______ _____ _____    ______ ____
ROOT
ATOM      1  C   LIG    1       24.384 -32.007   9.711  0.00  0.00    +0.176 C 
ATOM      2  C   LIG    1       23.942 -31.871  11.223  0.00  0.00    +0.018 C 
ATOM      3  C   LIG    1       23.291 -33.157  11.768  0.00  0.00    +0.016 C 
ATOM      4  C   LIG    1       22.925 -30.710  11.171  0.00  0.00    +0.006 C 
ATOM      5  C   LIG    1       22.499 -30.196  12.559  0.00  0.00    +0.020 C 
ATOM      6  C   LIG    1       23.591 -29.999  13.629  0.00  0.00    +0.006 C 
ATOM      7  C   LIG    1       24.703 -31.066  13.562  0.00  0.00    +0.006 C 
ATOM      8  C   LIG    1       24.060 -28.516  13.925  0.00  0.00    -0.003 C 
ATOM      9  C   LIG    1       24.217 -28.431  15.480  0.00  0.00    +0.016 C 
ATOM     10  C   LIG    1       23.055 -27.433  13.486  0.00  0.00    -0.035 C 
ATOM     11  C   LIG    1       23.419 -26.134  13.465  0.00  0.00    +0.050 C 
ATOM     12  C   LIG    1       24.811 -25.714  13.744  0.00  0.00    +0.156 C 
ATOM     13  O   LIG    1       25.044 -24.532  13.993  0.00  0.00    -0.293 OA
ATOM     14  C   LIG    1       25.912 -26.747  13.690  0.00  0.00    +0.080 C 
ATOM     15  C   LIG    1       21.733 -27.831  13.001  0.00  0.00    -0.050 C 
ATOM     16  C   LIG    1       20.602 -26.829  12.996  0.00  0.00    +0.044 C 
ATOM     17  C   LIG    1       25.417 -28.137  13.275  0.00  0.00    +0.019 C 
ATOM     18  C   LIG    1       21.516 -29.068  12.526  0.00  0.00    -0.019 C 
ATOM     19  C   LIG    1       23.542 -29.715  10.179  0.00  0.00    +0.009 C 
ATOM     20  C   LIG    1       25.129 -31.453  12.144  0.00  0.00    +0.011 C 
ATOM     21  C   LIG    1       24.529 -30.517   9.307  0.00  0.00    +0.057 C 
ENDROOT
BRANCH   1  22
ATOM     22  C   LIG    1       23.265 -32.663   8.828  0.00  0.00    +0.174 C 
ATOM     23  O   LIG    1       22.090 -32.281   8.871  0.00  0.00    -0.293 OA
ATOM     24  C   LIG    1       23.618 -33.825   7.929  0.00  0.00    +0.090 C 
ENDBRANCH   1  22
BRANCH   1  25
ATOM     25  O   LIG    1       25.646 -32.711   9.658  0.00  0.00    -0.450 OA
BRANCH  25  27
ATOM     26  C   LIG    1       26.915 -32.391   7.681  0.00  0.00    +0.136 C 
ATOM     27  C   LIG    1       26.731 -32.070   9.140  0.00  0.00    +0.305 C 
ATOM     28  O   LIG    1       27.433 -31.283   9.746  0.00  0.00    -0.251 OA
ENDBRANCH  25  27
ENDBRANCH   1  25
TORSDOF 3
ENDMDL
MODEL 3
REMARK VINA RESULT:      -5.5      1.407      1.585
REMARK  Name = *****
REMARK                            x       y       z     vdW  Elec       q    Type
REMARK                         _______ _______ _______ _____ _____    ______ ____
ROOT
ATOM      1  C   LIG    1       24.998 -30.513   8.515  0.00  0.00    +0.176 C 
ATOM      2  C   LIG    1       25.801 -30.300   9.860  0.00  0.00    +0.018 C 
ATOM      3  C   LIG    1       27.222 -30.896   9.804  0.00  0.00    +0.016 C 
ATOM      4  C   LIG    1       24.925 -31.043  10.894  0.00  0.00    +0.006 C 
ATOM      5  C   LIG    1       25.349 -30.800  12.354  0.00  0.00    +0.020 C 
ATOM      6  C   LIG    1       25.701 -29.361  12.781  0.00  0.00    +0.006 C 
ATOM      7  C   LIG    1       26.422 -28.563  11.675  0.00  0.00    +0.006 C 
ATOM      8  C   LIG    1       24.623 -28.569  13.628  0.00  0.00    -0.003 C 
ATOM      9  C   LIG    1       25.436 -27.807  14.727  0.00  0.00    +0.016 C 
ATOM     10  C   LIG    1       23.587 -29.465  14.334  0.00  0.00    -0.035 C 
ATOM     11  C   LIG    1       22.486 -28.923  14.893  0.00  0.00    +0.050 C 
ATOM     12  C   LIG    1       22.173 -27.483  14.752  0.00  0.00    +0.156 C 
ATOM     13  O   LIG    1       21.335 -26.974  15.494  0.00  0.00    -0.293 OA
ATOM     14  C   LIG    1       22.875 -26.684  13.679  0.00  0.00    +0.080 C 
ATOM     15  C   LIG    1       23.757 -30.919  14.311  0.00  0.00    -0.050 C 
ATOM     16  C   LIG    1       23.049 -31.774  15.335  0.00  0.00    +0.044 C 
ATOM     17  C   LIG    1       23.812 -27.530  12.810  0.00  0.00    +0.019 C 
ATOM     18  C   LIG    1       24.508 -31.511  13.369  0.00  0.00    -0.019 C 
ATOM     19  C   LIG    1       23.487 -30.702  10.481  0.00  0.00    +0.009 C 
ATOM     20  C   LIG    1       25.879 -28.795  10.264  0.00  0.00    +0.011 C 
ATOM     21  C   LIG    1       23.541 -30.285   8.997  0.00  0.00    +0.057 C 
ENDROOT
BRANCH   1  22
ATOM     22  C   LIG    1       25.129 -31.981   7.978  0.00  0.00    +0.174 C 
ATOM     23  O   LIG    1       24.343 -32.873   8.316  0.00  0.00    -0.293 OA
ATOM     24  C   LIG    1       26.271 -32.332   7.054  0.00  0.00    +0.090 C 
ENDBRANCH   1  22
BRANCH   1  25
ATOM     25  O   LIG    1       25.419 -29.511   7.561  0.00  0.00    -0.450 OA
BRANCH  25  27
ATOM     26  C   LIG    1       24.587 -27.535   6.549  0.00  0.00    +0.136 C 
ATOM     27  C   LIG    1       24.505 -29.033   6.669  0.00  0.00    +0.305 C 
ATOM     28  O   LIG    1       23.758 -29.720   5.998  0.00  0.00    -0.251 OA
ENDBRANCH  25  27
ENDBRANCH   1  25
TORSDOF 3
ENDMDL
MODEL 4
REMARK VINA RESULT:      -5.3      3.161      6.010
REMARK  Name = *****
REMARK                            x       y       z     vdW  Elec       q    Type
REMARK                         _______ _______ _______ _____ _____    ______ ____
ROOT
ATOM      1  C   LIG    1       20.896 -31.521  12.009  0.00  0.00    +0.176 C 
ATOM      2  C   LIG    1       22.245 -32.140  11.466  0.00  0.00    +0.018 C 
ATOM      3  C   LIG    1       22.555 -33.519  12.081  0.00  0.00    +0.016 C 
ATOM      4  C   LIG    1       23.293 -31.089  11.895  0.00  0.00    +0.006 C 
ATOM      5  C   LIG    1       24.688 -31.319  11.286  0.00  0.00    +0.020 C 
ATOM      6  C   LIG    1       24.778 -31.688   9.792  0.00  0.00    +0.006 C 
ATOM      7  C   LIG    1       23.625 -32.599   9.325  0.00  0.00    +0.006 C 
ATOM      8  C   LIG    1       25.223 -30.549   8.786  0.00  0.00    -0.003 C 
ATOM      9  C   LIG    1       26.198 -31.243   7.777  0.00  0.00    +0.016 C 
ATOM     10  C   LIG    1       25.974 -29.377   9.447  0.00  0.00    -0.035 C 
ATOM     11  C   LIG    1       26.205 -28.241   8.757  0.00  0.00    +0.050 C 
ATOM     12  C   LIG    1       25.654 -28.031   7.399  0.00  0.00    +0.156 C 
ATOM     13  O   LIG    1       26.107 -27.128   6.699  0.00  0.00    -0.293 OA
ATOM     14  C   LIG    1       24.529 -28.920   6.922  0.00  0.00    +0.080 C 
ATOM     15  C   LIG    1       26.351 -29.466  10.858  0.00  0.00    -0.050 C 
ATOM     16  C   LIG    1       27.443 -28.576  11.402  0.00  0.00    +0.044 C 
ATOM     17  C   LIG    1       24.055 -29.919   7.983  0.00  0.00    +0.019 C 
ATOM     18  C   LIG    1       25.714 -30.306  11.690  0.00  0.00    -0.019 C 
ATOM     19  C   LIG    1       22.597 -29.743  11.649  0.00  0.00    +0.009 C 
ATOM     20  C   LIG    1       22.256 -32.245   9.909  0.00  0.00    +0.011 C 
ATOM     21  C   LIG    1       21.081 -30.026  11.637  0.00  0.00    +0.057 C 
ENDROOT
BRANCH   1  22
ATOM     22  C   LIG    1       20.779 -31.642  13.569  0.00  0.00    +0.174 C 
ATOM     23  O   LIG    1       20.663 -32.736  14.133  0.00  0.00    -0.293 OA
ATOM     24  C   LIG    1       20.764 -30.387  14.410  0.00  0.00    +0.090 C 
ENDBRANCH   1  22
BRANCH   1  25
ATOM     25  O   LIG    1       19.790 -32.125  11.301  0.00  0.00    -0.450 OA
BRANCH  25  27
ATOM     26  C   LIG    1       18.190 -31.174   9.832  0.00  0.00    +0.136 C 
ATOM     27  C   LIG    1       18.602 -31.458  11.252  0.00  0.00    +0.305 C 
ATOM     28  O   LIG    1       17.917 -31.179  12.217  0.00  0.00    -0.251 OA
ENDBRANCH  25  27
ENDBRANCH   1  25
TORSDOF 3
ENDMDL
MODEL 5
REMARK VINA RESULT:      -5.2      1.788      3.043
REMARK  Name = *****
REMARK                            x       y       z     vdW  Elec       q    Type
REMARK                         _______ _______ _______ _____ _____    ______ ____
ROOT
ATOM      1  C   LIG    1       24.961 -31.621   7.480  0.00  0.00    +0.176 C 
ATOM      2  C   LIG    1       24.520 -32.075   8.929  0.00  0.00    +0.018 C 
ATOM      3  C   LIG    1       23.769 -33.421   8.927  0.00  0.00    +0.016 C 
ATOM      4  C   LIG    1       23.594 -30.921   9.374  0.00  0.00    +0.006 C 
ATOM      5  C   LIG    1       23.199 -30.981  10.861  0.00  0.00    +0.020 C 
ATOM      6  C   LIG    1       24.295 -31.311  11.893  0.00  0.00    +0.006 C 
ATOM      7  C   LIG    1       25.322 -32.337  11.375  0.00  0.00    +0.006 C 
ATOM      8  C   LIG    1       24.872 -30.111  12.750  0.00  0.00    -0.003 C 
ATOM      9  C   LIG    1       25.024 -30.672  14.203  0.00  0.00    +0.016 C 
ATOM     10  C   LIG    1       23.956 -28.873  12.808  0.00  0.00    -0.035 C 
ATOM     11  C   LIG    1       24.418 -27.706  13.302  0.00  0.00    +0.050 C 
ATOM     12  C   LIG    1       25.835 -27.536  13.693  0.00  0.00    +0.156 C 
ATOM     13  O   LIG    1       26.156 -26.575  14.390  0.00  0.00    -0.293 OA
ATOM     14  C   LIG    1       26.855 -28.536  13.201  0.00  0.00    +0.080 C 
ATOM     15  C   LIG    1       22.611 -28.945  12.236  0.00  0.00    -0.050 C 
ATOM     16  C   LIG    1       21.559 -27.948  12.661  0.00  0.00    +0.044 C 
ATOM     17  C   LIG    1       26.259 -29.601  12.275  0.00  0.00    +0.019 C 
ATOM     18  C   LIG    1       22.304 -29.867  11.309  0.00  0.00    -0.019 C 
ATOM     19  C   LIG    1       24.292 -29.658   8.851  0.00  0.00    +0.009 C 
ATOM     20  C   LIG    1       25.728 -32.150   9.913  0.00  0.00    +0.011 C 
ATOM     21  C   LIG    1       25.221 -30.109   7.707  0.00  0.00    +0.057 C 
ENDROOT
BRANCH   1  22
ATOM     22  C   LIG    1       23.801 -31.784   6.435  0.00  0.00    +0.174 C 
ATOM     23  O   LIG    1       23.245 -30.808   5.920  0.00  0.00    -0.293 OA
ATOM     24  C   LIG    1       23.318 -33.168   6.076  0.00  0.00    +0.090 C 
ENDBRANCH   1  22
BRANCH   1  25
ATOM     25  O   LIG    1       26.166 -32.334   7.118  0.00  0.00    -0.450 OA
BRANCH  25  27
ATOM     26  C   LIG    1       27.404 -33.479   5.452  0.00  0.00    +0.136 C 
ATOM     27  C   LIG    1       26.607 -32.260   5.830  0.00  0.00    +0.305 C 
ATOM     28  O   LIG    1       26.345 -31.363   5.052  0.00  0.00    -0.251 OA
ENDBRANCH  25  27
ENDBRANCH   1  25
TORSDOF 3
ENDMDL
MODEL 6
REMARK VINA RESULT:      -5.1      2.150      7.211
REMARK  Name = *****
REMARK                            x       y       z     vdW  Elec       q    Type
REMARK                         _______ _______ _______ _____ _____    ______ ____
ROOT
ATOM      1  C   LIG    1       24.758 -29.937  12.522  0.00  0.00    +0.176 C 
ATOM      2  C   LIG    1       25.834 -30.092  11.374  0.00  0.00    +0.018 C 
ATOM      3  C   LIG    1       27.183 -29.438  11.733  0.00  0.00    +0.016 C 
ATOM      4  C   LIG    1       25.162 -29.369  10.186  0.00  0.00    +0.006 C 
ATOM      5  C   LIG    1       25.893 -29.568   8.845  0.00  0.00    +0.020 C 
ATOM      6  C   LIG    1       26.390 -30.983   8.490  0.00  0.00    +0.006 C 
ATOM      7  C   LIG    1       26.899 -31.769   9.715  0.00  0.00    +0.006 C 
ATOM      8  C   LIG    1       25.550 -31.805   7.429  0.00  0.00    -0.003 C 
ATOM      9  C   LIG    1       26.608 -32.513   6.519  0.00  0.00    +0.016 C 
ATOM     10  C   LIG    1       24.646 -30.940   6.528  0.00  0.00    -0.035 C 
ATOM     11  C   LIG    1       23.712 -31.519   5.746  0.00  0.00    +0.050 C 
ATOM     12  C   LIG    1       23.441 -32.973   5.806  0.00  0.00    +0.156 C 
ATOM     13  O   LIG    1       22.801 -33.504   4.901  0.00  0.00    -0.293 OA
ATOM     14  C   LIG    1       23.938 -33.760   6.996  0.00  0.00    +0.080 C 
ATOM     15  C   LIG    1       24.742 -29.482   6.598  0.00  0.00    -0.050 C 
ATOM     16  C   LIG    1       24.226 -28.639   5.455  0.00  0.00    +0.044 C 
ATOM     17  C   LIG    1       24.633 -32.891   8.049  0.00  0.00    +0.019 C 
ATOM     18  C   LIG    1       25.252 -28.875   7.682  0.00  0.00    -0.019 C 
ATOM     19  C   LIG    1       23.686 -29.777  10.284  0.00  0.00    +0.009 C 
ATOM     20  C   LIG    1       26.062 -31.584  10.983  0.00  0.00    +0.011 C 
ATOM     21  C   LIG    1       23.447 -30.217  11.743  0.00  0.00    +0.057 C 
ENDROOT
BRANCH   1  22
ATOM     22  C   LIG    1       24.707 -28.473  13.087  0.00  0.00    +0.174 C 
ATOM     23  O   LIG    1       25.698 -27.933  13.592  0.00  0.00    -0.293 OA
ATOM     24  C   LIG    1       23.403 -27.713  13.055  0.00  0.00    +0.090 C 
ENDBRANCH   1  22
BRANCH   1  25
ATOM     25  O   LIG    1       25.014 -30.936  13.535  0.00  0.00    -0.450 OA
BRANCH  25  27
ATOM     26  C   LIG    1       23.773 -32.922  13.908  0.00  0.00    +0.136 C 
ATOM     27  C   LIG    1       23.957 -31.460  14.218  0.00  0.00    +0.305 C 
ATOM     28  O   LIG    1       23.280 -30.856  15.028  0.00  0.00    -0.251 OA
ENDBRANCH  25  27
ENDBRANCH   1  25
TORSDOF 3
ENDMDL
MODEL 7
REMARK VINA RESULT:      -5.0      1.791      3.564
REMARK  Name = *****
REMARK                            x       y       z     vdW  Elec       q    Type
REMARK                         _______ _______ _______ _____ _____    ______ ____
ROOT
ATOM      1  C   LIG    1       25.346 -30.997   8.839  0.00  0.00    +0.176 C 
ATOM      2  C   LIG    1       24.740 -30.924  10.298  0.00  0.00    +0.018 C 
ATOM      3  C   LIG    1       23.259 -31.349  10.348  0.00  0.00    +0.016 C 
ATOM      4  C   LIG    1       24.903 -29.429  10.654  0.00  0.00    +0.006 C 
ATOM      5  C   LIG    1       24.608 -29.108  12.130  0.00  0.00    +0.020 C 
ATOM      6  C   LIG    1       25.173 -30.053  13.209  0.00  0.00    +0.006 C 
ATOM      7  C   LIG    1       25.171 -31.533  12.776  0.00  0.00    +0.006 C 
ATOM      8  C   LIG    1       26.444 -29.560  14.015  0.00  0.00    -0.003 C 
ATOM      9  C   LIG    1       26.183 -29.980  15.500  0.00  0.00    +0.016 C 
ATOM     10  C   LIG    1       26.665 -28.035  13.981  0.00  0.00    -0.035 C 
ATOM     11  C   LIG    1       27.823 -27.505  14.424  0.00  0.00    +0.050 C 
ATOM     12  C   LIG    1       28.957 -28.359  14.844  0.00  0.00    +0.156 C 
ATOM     13  O   LIG    1       29.874 -27.864  15.497  0.00  0.00    -0.293 OA
ATOM     14  C   LIG    1       28.968 -29.813  14.435  0.00  0.00    +0.080 C 
ATOM     15  C   LIG    1       25.648 -27.173  13.377  0.00  0.00    -0.050 C 
ATOM     16  C   LIG    1       25.611 -25.702  13.718  0.00  0.00    +0.044 C 
ATOM     17  C   LIG    1       27.778 -30.202  13.551  0.00  0.00    +0.019 C 
ATOM     18  C   LIG    1       24.765 -27.664  12.493  0.00  0.00    -0.019 C 
ATOM     19  C   LIG    1       26.278 -29.056  10.083  0.00  0.00    +0.009 C 
ATOM     20  C   LIG    1       25.563 -31.771  11.317  0.00  0.00    +0.011 C 
ATOM     21  C   LIG    1       26.599 -30.096   8.991  0.00  0.00    +0.057 C 
ENDROOT
BRANCH   1  22
ATOM     22  C   LIG    1       24.389 -30.356   7.773  0.00  0.00    +0.174 C 
ATOM     23  O   LIG    1       23.421 -30.970   7.310  0.00  0.00    -0.293 OA
ATOM     24  C   LIG    1       24.678 -28.965   7.260  0.00  0.00    +0.090 C 
ENDBRANCH   1  22
BRANCH   1  25
ATOM     25  O   LIG    1       25.693 -32.370   8.549  0.00  0.00    -0.450 OA
BRANCH  25  27
ATOM     26  C   LIG    1       27.782 -33.481   8.392  0.00  0.00    +0.136 C 
ATOM     27  C   LIG    1       26.748 -32.617   7.721  0.00  0.00    +0.305 C 
ATOM     28  O   LIG    1       26.829 -32.249   6.565  0.00  0.00    -0.251 OA
ENDBRANCH  25  27
ENDBRANCH   1  25
TORSDOF 3
ENDMDL
MODEL 8
REMARK VINA RESULT:      -5.0      3.177      3.946
REMARK  Name = *****
REMARK                            x       y       z     vdW  Elec       q    Type
REMARK                         _______ _______ _______ _____ _____    ______ ____
ROOT
ATOM      1  C   LIG    1       24.243 -30.938  10.146  0.00  0.00    +0.176 C 
ATOM      2  C   LIG    1       24.384 -30.467  11.649  0.00  0.00    +0.018 C 
ATOM      3  C   LIG    1       25.646 -31.031  12.331  0.00  0.00    +0.016 C 
ATOM      4  C   LIG    1       23.100 -31.030  12.298  0.00  0.00    +0.006 C 
ATOM      5  C   LIG    1       22.853 -30.517  13.729  0.00  0.00    +0.020 C 
ATOM      6  C   LIG    1       23.068 -29.017  14.012  0.00  0.00    +0.006 C 
ATOM      7  C   LIG    1       24.248 -28.417  13.222  0.00  0.00    +0.006 C 
ATOM      8  C   LIG    1       21.777 -28.110  14.143  0.00  0.00    -0.003 C 
ATOM      9  C   LIG    1       22.068 -27.143  15.339  0.00  0.00    +0.016 C 
ATOM     10  C   LIG    1       20.484 -28.886  14.460  0.00  0.00    -0.035 C 
ATOM     11  C   LIG    1       19.284 -28.276  14.371  0.00  0.00    +0.050 C 
ATOM     12  C   LIG    1       19.152 -26.893  13.859  0.00  0.00    +0.156 C 
ATOM     13  O   LIG    1       18.106 -26.277  14.053  0.00  0.00    -0.293 OA
ATOM     14  C   LIG    1       20.302 -26.286  13.089  0.00  0.00    +0.080 C 
ATOM     15  C   LIG    1       20.558 -30.316  14.765  0.00  0.00    -0.050 C 
ATOM     16  C   LIG    1       19.422 -30.987  15.500  0.00  0.00    +0.044 C 
ATOM     17  C   LIG    1       21.472 -27.254  12.885  0.00  0.00    +0.019 C 
ATOM     18  C   LIG    1       21.610 -31.051  14.371  0.00  0.00    -0.019 C 
ATOM     19  C   LIG    1       22.014 -30.802  11.239  0.00  0.00    +0.009 C 
ATOM     20  C   LIG    1       24.368 -28.913  11.780  0.00  0.00    +0.011 C 
ATOM     21  C   LIG    1       22.739 -30.660   9.886  0.00  0.00    +0.057 C 
ENDROOT
BRANCH   1  22
ATOM     22  C   LIG    1       24.508 -32.476   9.984  0.00  0.00    +0.174 C 
ATOM     23  O   LIG    1       25.627 -32.969  10.162  0.00  0.00    -0.293 OA
ATOM     24  C   LIG    1       23.376 -33.380   9.558  0.00  0.00    +0.090 C 
ENDBRANCH   1  22
BRANCH   1  25
ATOM     25  O   LIG    1       25.100 -30.117   9.321  0.00  0.00    -0.450 OA
BRANCH  25  27
ATOM     26  C   LIG    1       24.802 -28.730   7.421  0.00  0.00    +0.136 C 
ATOM     27  C   LIG    1       24.912 -30.127   7.970  0.00  0.00    +0.305 C 
ATOM     28  O   LIG    1       24.899 -31.124   7.274  0.00  0.00    -0.251 OA
ENDBRANCH  25  27
ENDBRANCH   1  25
TORSDOF 3
ENDMDL
MODEL 9
REMARK VINA RESULT:      -4.9      1.799      6.802
REMARK  Name = *****
REMARK                            x       y       z     vdW  Elec       q    Type
REMARK                         _______ _______ _______ _____ _____    ______ ____
ROOT
ATOM      1  C   LIG    1       25.632 -28.439  12.736  0.00  0.00    +0.176 C 
ATOM      2  C   LIG    1       24.832 -29.717  12.258  0.00  0.00    +0.018 C 
ATOM      3  C   LIG    1       24.155 -30.464  13.424  0.00  0.00    +0.016 C 
ATOM      4  C   LIG    1       25.937 -30.580  11.609  0.00  0.00    +0.006 C 
ATOM      5  C   LIG    1       25.398 -31.799  10.837  0.00  0.00    +0.020 C 
ATOM      6  C   LIG    1       24.171 -31.599   9.926  0.00  0.00    +0.006 C 
ATOM      7  C   LIG    1       23.150 -30.597  10.500  0.00  0.00    +0.006 C 
ATOM      8  C   LIG    1       24.429 -31.523   8.365  0.00  0.00    -0.003 C 
ATOM      9  C   LIG    1       23.271 -32.349   7.712  0.00  0.00    +0.016 C 
ATOM     10  C   LIG    1       25.768 -32.135   7.912  0.00  0.00    -0.035 C 
ATOM     11  C   LIG    1       26.219 -31.935   6.657  0.00  0.00    +0.050 C 
ATOM     12  C   LIG    1       25.515 -31.035   5.714  0.00  0.00    +0.156 C 
ATOM     13  O   LIG    1       25.782 -31.093   4.515  0.00  0.00    -0.293 OA
ATOM     14  C   LIG    1       24.506 -30.052   6.258  0.00  0.00    +0.080 C 
ATOM     15  C   LIG    1       26.595 -32.856   8.881  0.00  0.00    -0.050 C 
ATOM     16  C   LIG    1       27.648 -33.825   8.396  0.00  0.00    +0.044 C 
ATOM     17  C   LIG    1       24.391 -30.084   7.785  0.00  0.00    +0.019 C 
ATOM     18  C   LIG    1       26.457 -32.644  10.199  0.00  0.00    -0.019 C 
ATOM     19  C   LIG    1       26.813 -29.567  10.861  0.00  0.00    +0.009 C 
ATOM     20  C   LIG    1       23.769 -29.370  11.171  0.00  0.00    +0.011 C 
ATOM     21  C   LIG    1       26.560 -28.195  11.517  0.00  0.00    +0.057 C 
ENDROOT
BRANCH   1  22
ATOM     22  C   LIG    1       26.519 -28.738  13.995  0.00  0.00    +0.174 C 
ATOM     23  O   LIG    1       26.027 -29.078  15.076  0.00  0.00    -0.293 OA
ATOM     24  C   LIG    1       28.017 -28.565  13.902  0.00  0.00    +0.090 C 
ENDBRANCH   1  22
BRANCH   1  25
ATOM     25  O   LIG    1       24.697 -27.355  12.935  0.00  0.00    -0.450 OA
BRANCH  25  27
ATOM     26  C   LIG    1       24.362 -25.947  14.813  0.00  0.00    +0.136 C 
ATOM     27  C   LIG    1       25.134 -26.219  13.550  0.00  0.00    +0.305 C 
ATOM     28  O   LIG    1       26.069 -25.538  13.176  0.00  0.00    -0.251 OA
ENDBRANCH  25  27
ENDBRANCH   1  25
TORSDOF 3
ENDMDL
