MODEL 1
REMARK VINA RESULT:      -6.6      0.000      0.000
REMARK  Name = *****
REMARK                            x       y       z     vdW  Elec       q    Type
REMARK                         _______ _______ _______ _____ _____    ______ ____
ROOT
ATOM      1  C   LIG    1       25.783 -28.675   8.449  0.00  0.00    +0.250 C 
ATOM      2  N   LIG    1       24.961 -29.410   9.278  0.00  0.00    -0.298 N 
ATOM      3  H   LIG    1       24.227 -29.963   8.852  0.00  0.00    +0.150 HD
ATOM      4  O   LIG    1       26.806 -28.145   8.866  0.00  0.00    -0.270 OA
ENDROOT
BRANCH   2   5
ATOM      5  CA  LIG    1       25.243 -29.604  10.727  0.00  0.00    +0.190 C 
ATOM      6  C   LIG    1       24.058 -29.808  11.709  0.00  0.00    +0.165 C 
ATOM      7  S   LIG    1       22.420 -30.159  11.005  0.00  0.00    -0.127 S 
ATOM      8  C   LIG    1       22.503 -31.991  11.242  0.00  0.00    +0.042 C 
ATOM      9  CA  LIG    1       23.740 -32.288  12.128  0.00  0.00    +0.201 C 
ATOM     10  C   LIG    1       22.680 -32.626   9.851  0.00  0.00    +0.025 C 
ATOM     11  C   LIG    1       21.147 -32.431  11.806  0.00  0.00    +0.025 C 
ATOM     12  N   LIG    1       24.638 -31.120  12.076  0.00  0.00    -0.271 N 
ATOM     13  C   LIG    1       25.590 -31.065  11.093  0.00  0.00    +0.240 C 
ATOM     14  O   LIG    1       26.247 -31.948  10.585  0.00  0.00    -0.273 OA
BRANCH   9  15
ATOM     15  C   LIG    1       23.453 -32.677  13.582  0.00  0.00    +0.327 C 
ATOM     16  O   LIG    1       23.448 -33.825  14.003  0.00  0.00    -0.249 OA
BRANCH  15  17
ATOM     17  OXT LIG    1       23.263 -31.617  14.404  0.00  0.00    -0.479 OA
ATOM     18  HXT LIG    1       23.560 -31.832  15.312  0.00  0.00    +0.295 HD
ENDBRANCH  15  17
ENDBRANCH   9  15
ENDBRANCH   2   5
BRANCH   1  21
ATOM     19  C   LIG    1       25.101 -31.191   6.449  0.00  0.00    +0.090 C 
ATOM     20  C   LIG    1       25.107 -29.728   6.259  0.00  0.00    +0.147 A 
ATOM     21  C   LIG    1       25.352 -28.627   7.063  0.00  0.00    +0.106 A 
ATOM     22  C   LIG    1       24.998 -27.513   6.225  0.00  0.00    +0.126 A 
ATOM     23  N   LIG    1       24.683 -27.955   4.992  0.00  0.00    -0.077 NA
ATOM     24  O   LIG    1       24.744 -29.319   5.023  0.00  0.00    -0.359 OA
BRANCH  22  25
ATOM     25  C   LIG    1       24.936 -26.068   6.481  0.00  0.00    +0.004 A 
ATOM     26  C   LIG    1       23.705 -25.401   6.325  0.00  0.00    +0.010 A 
ATOM     27  C   LIG    1       23.591 -24.025   6.532  0.00  0.00    +0.001 A 
ATOM     28  C   LIG    1       24.710 -23.289   6.905  0.00  0.00    +0.000 A 
ATOM     29  C   LIG    1       25.938 -23.930   7.060  0.00  0.00    +0.001 A 
ATOM     30  C   LIG    1       26.053 -25.309   6.844  0.00  0.00    +0.010 A 
ENDBRANCH  22  25
ENDBRANCH   1  21
TORSDOF 5
ENDMDL
MODEL 2
REMARK VINA RESULT:      -6.5      3.487      6.242
REMARK  Name = *****
REMARK                            x       y       z     vdW  Elec       q    Type
REMARK                         _______ _______ _______ _____ _____    ______ ____
ROOT
ATOM      1  C   LIG    1       24.221 -29.364  12.848  0.00  0.00    +0.250 C 
ATOM      2  N   LIG    1       24.913 -29.427  11.656  0.00  0.00    -0.298 N 
ATOM      3  H   LIG    1       24.849 -28.635  11.026  0.00  0.00    +0.150 HD
ATOM      4  O   LIG    1       24.406 -30.184  13.740  0.00  0.00    -0.270 OA
ENDROOT
BRANCH   2   5
ATOM      5  CA  LIG    1       25.915 -30.488  11.359  0.00  0.00    +0.190 C 
ATOM      6  C   LIG    1       25.499 -31.700  10.485  0.00  0.00    +0.165 C 
ATOM      7  S   LIG    1       23.931 -31.593   9.572  0.00  0.00    -0.127 S 
ATOM      8  C   LIG    1       24.689 -31.108   7.956  0.00  0.00    +0.042 C 
ATOM      9  CA  LIG    1       26.222 -31.289   8.090  0.00  0.00    +0.201 C 
ATOM     10  C   LIG    1       24.347 -29.626   7.717  0.00  0.00    +0.025 C 
ATOM     11  C   LIG    1       24.001 -31.944   6.871  0.00  0.00    +0.025 C 
ATOM     12  N   LIG    1       26.561 -31.324   9.525  0.00  0.00    -0.271 N 
ATOM     13  C   LIG    1       26.834 -30.144  10.165  0.00  0.00    +0.240 C 
ATOM     14  O   LIG    1       27.395 -29.147   9.768  0.00  0.00    -0.273 OA
BRANCH   9  15
ATOM     15  C   LIG    1       26.825 -32.500   7.369  0.00  0.00    +0.327 C 
ATOM     16  O   LIG    1       26.876 -33.629   7.837  0.00  0.00    -0.249 OA
BRANCH  15  17
ATOM     17  OXT LIG    1       27.253 -32.231   6.112  0.00  0.00    -0.479 OA
ATOM     18  HXT LIG    1       27.056 -31.301   5.877  0.00  0.00    +0.295 HD
ENDBRANCH  15  17
ENDBRANCH   9  15
ENDBRANCH   2   5
BRANCH   1  21
ATOM     19  C   LIG    1       20.949 -29.370  12.555  0.00  0.00    +0.090 C 
ATOM     20  C   LIG    1       21.935 -28.299  12.794  0.00  0.00    +0.147 A 
ATOM     21  C   LIG    1       23.310 -28.240  12.957  0.00  0.00    +0.106 A 
ATOM     22  C   LIG    1       23.545 -26.869  13.326  0.00  0.00    +0.126 A 
ATOM     23  N   LIG    1       22.391 -26.177  13.262  0.00  0.00    -0.077 NA
ATOM     24  O   LIG    1       21.404 -27.066  12.943  0.00  0.00    -0.359 OA
BRANCH  22  25
ATOM     25  C   LIG    1       24.763 -26.152  13.727  0.00  0.00    +0.004 A 
ATOM     26  C   LIG    1       24.690 -25.225  14.785  0.00  0.00    +0.010 A 
ATOM     27  C   LIG    1       25.809 -24.497  15.194  0.00  0.00    +0.001 A 
ATOM     28  C   LIG    1       27.027 -24.687  14.551  0.00  0.00    +0.000 A 
ATOM     29  C   LIG    1       27.119 -25.597  13.499  0.00  0.00    +0.001 A 
ATOM     30  C   LIG    1       25.994 -26.320  13.084  0.00  0.00    +0.010 A 
ENDBRANCH  22  25
ENDBRANCH   1  21
TORSDOF 5
ENDMDL
MODEL 3
REMARK VINA RESULT:      -6.2      3.615      6.764
REMARK  Name = *****
REMARK                            x       y       z     vdW  Elec       q    Type
REMARK                         _______ _______ _______ _____ _____    ______ ____
ROOT
ATOM      1  C   LIG    1       24.237 -29.124  12.986  0.00  0.00    +0.250 C 
ATOM      2  N   LIG    1       24.952 -29.089  11.806  0.00  0.00    -0.298 N 
ATOM      3  H   LIG    1       24.773 -28.325  11.164  0.00  0.00    +0.150 HD
ATOM      4  O   LIG    1       24.535 -29.893  13.893  0.00  0.00    -0.270 OA
ENDROOT
BRANCH   2   5
ATOM      5  CA  LIG    1       26.116 -29.978  11.541  0.00  0.00    +0.190 C 
ATOM      6  C   LIG    1       25.875 -31.369  10.895  0.00  0.00    +0.165 C 
ATOM      7  S   LIG    1       24.243 -31.698  10.167  0.00  0.00    -0.127 S 
ATOM      8  C   LIG    1       24.741 -31.340   8.423  0.00  0.00    +0.042 C 
ATOM      9  CA  LIG    1       26.286 -31.211   8.399  0.00  0.00    +0.201 C 
ATOM     10  C   LIG    1       24.089 -30.004   8.025  0.00  0.00    +0.025 C 
ATOM     11  C   LIG    1       24.142 -32.449   7.550  0.00  0.00    +0.025 C 
ATOM     12  N   LIG    1       26.751 -30.958   9.775  0.00  0.00    -0.271 N 
ATOM     13  C   LIG    1       26.837 -29.662  10.211  0.00  0.00    +0.240 C 
ATOM     14  O   LIG    1       27.149 -28.652   9.618  0.00  0.00    -0.273 OA
BRANCH   9  15
ATOM     15  C   LIG    1       27.053 -32.387   7.784  0.00  0.00    +0.327 C 
ATOM     16  O   LIG    1       27.354 -33.407   8.387  0.00  0.00    -0.249 OA
BRANCH  15  17
ATOM     17  OXT LIG    1       27.326 -32.232   6.466  0.00  0.00    -0.479 OA
ATOM     18  HXT LIG    1       28.212 -32.592   6.256  0.00  0.00    +0.295 HD
ENDBRANCH  15  17
ENDBRANCH   9  15
ENDBRANCH   2   5
BRANCH   1  21
ATOM     19  C   LIG    1       24.429 -25.912  13.649  0.00  0.00    +0.090 C 
ATOM     20  C   LIG    1       23.296 -26.816  13.378  0.00  0.00    +0.147 A 
ATOM     21  C   LIG    1       23.156 -28.159  13.064  0.00  0.00    +0.106 A 
ATOM     22  C   LIG    1       21.753 -28.290  12.771  0.00  0.00    +0.126 A 
ATOM     23  N   LIG    1       21.127 -27.123  13.017  0.00  0.00    -0.077 NA
ATOM     24  O   LIG    1       22.084 -26.219  13.381  0.00  0.00    -0.359 OA
BRANCH  22  25
ATOM     25  C   LIG    1       20.950 -29.420  12.287  0.00  0.00    +0.004 A 
ATOM     26  C   LIG    1       19.977 -29.979  13.139  0.00  0.00    +0.010 A 
ATOM     27  C   LIG    1       19.200 -31.068  12.742  0.00  0.00    +0.001 A 
ATOM     28  C   LIG    1       19.379 -31.619  11.478  0.00  0.00    +0.000 A 
ATOM     29  C   LIG    1       20.339 -31.083  10.621  0.00  0.00    +0.001 A 
ATOM     30  C   LIG    1       21.125 -29.995  11.024  0.00  0.00    +0.010 A 
ENDBRANCH  22  25
ENDBRANCH   1  21
TORSDOF 5
ENDMDL
MODEL 4
REMARK VINA RESULT:      -6.1      1.057      1.321
REMARK  Name = *****
REMARK                            x       y       z     vdW  Elec       q    Type
REMARK                         _______ _______ _______ _____ _____    ______ ____
ROOT
ATOM      1  C   LIG    1       25.846 -29.305   8.972  0.00  0.00    +0.250 C 
ATOM      2  N   LIG    1       24.921 -29.661   9.933  0.00  0.00    -0.298 N 
ATOM      3  H   LIG    1       24.094 -30.165   9.633  0.00  0.00    +0.150 HD
ATOM      4  O   LIG    1       26.953 -28.875   9.277  0.00  0.00    -0.270 OA
ENDROOT
BRANCH   2   5
ATOM      5  CA  LIG    1       25.187 -29.541  11.393  0.00  0.00    +0.190 C 
ATOM      6  C   LIG    1       23.990 -29.453  12.376  0.00  0.00    +0.165 C 
ATOM      7  S   LIG    1       22.336 -29.859  11.742  0.00  0.00    -0.127 S 
ATOM      8  C   LIG    1       22.310 -31.593  12.384  0.00  0.00    +0.042 C 
ATOM      9  CA  LIG    1       23.525 -31.754  13.333  0.00  0.00    +0.201 C 
ATOM     10  C   LIG    1       22.453 -32.532  11.173  0.00  0.00    +0.025 C 
ATOM     11  C   LIG    1       20.929 -31.818  13.010  0.00  0.00    +0.025 C 
ATOM     12  N   LIG    1       24.490 -30.679  13.036  0.00  0.00    -0.271 N 
ATOM     13  C   LIG    1       25.447 -30.900  12.081  0.00  0.00    +0.240 C 
ATOM     14  O   LIG    1       26.052 -31.910  11.794  0.00  0.00    -0.273 OA
BRANCH   9  15
ATOM     15  C   LIG    1       23.211 -31.790  14.833  0.00  0.00    +0.327 C 
ATOM     16  O   LIG    1       22.902 -30.812  15.499  0.00  0.00    -0.249 OA
BRANCH  15  17
ATOM     17  OXT LIG    1       23.241 -33.034  15.368  0.00  0.00    -0.479 OA
ATOM     18  HXT LIG    1       24.125 -33.223  15.744  0.00  0.00    +0.295 HD
ENDBRANCH  15  17
ENDBRANCH   9  15
ENDBRANCH   2   5
BRANCH   1  21
ATOM     19  C   LIG    1       25.054 -32.146   7.525  0.00  0.00    +0.090 C 
ATOM     20  C   LIG    1       25.116 -30.754   7.041  0.00  0.00    +0.147 A 
ATOM     21  C   LIG    1       25.409 -29.523   7.606  0.00  0.00    +0.106 A 
ATOM     22  C   LIG    1       25.093 -28.589   6.557  0.00  0.00    +0.126 A 
ATOM     23  N   LIG    1       24.754 -29.260   5.439  0.00  0.00    -0.077 NA
ATOM     24  O   LIG    1       24.762 -30.590   5.747  0.00  0.00    -0.359 OA
BRANCH  22  25
ATOM     25  C   LIG    1       25.089 -27.122   6.514  0.00  0.00    +0.004 A 
ATOM     26  C   LIG    1       23.948 -26.457   6.023  0.00  0.00    +0.010 A 
ATOM     27  C   LIG    1       23.896 -25.065   5.937  0.00  0.00    +0.001 A 
ATOM     28  C   LIG    1       24.988 -24.308   6.346  0.00  0.00    +0.000 A 
ATOM     29  C   LIG    1       26.129 -24.946   6.831  0.00  0.00    +0.001 A 
ATOM     30  C   LIG    1       26.183 -26.344   6.909  0.00  0.00    +0.010 A 
ENDBRANCH  22  25
ENDBRANCH   1  21
TORSDOF 5
ENDMDL
MODEL 5
REMARK VINA RESULT:      -6.0      3.371      6.713
REMARK  Name = *****
REMARK                            x       y       z     vdW  Elec       q    Type
REMARK                         _______ _______ _______ _____ _____    ______ ____
ROOT
ATOM      1  C   LIG    1       25.391 -28.807  13.116  0.00  0.00    +0.250 C 
ATOM      2  N   LIG    1       25.162 -29.267  11.836  0.00  0.00    -0.298 N 
ATOM      3  H   LIG    1       24.898 -28.591  11.127  0.00  0.00    +0.150 HD
ATOM      4  O   LIG    1       25.901 -29.521  13.972  0.00  0.00    -0.270 OA
ENDROOT
BRANCH   2   5
ATOM      5  CA  LIG    1       25.500 -30.650  11.402  0.00  0.00    +0.190 C 
ATOM      6  C   LIG    1       24.743 -31.274  10.200  0.00  0.00    +0.165 C 
ATOM      7  S   LIG    1       23.743 -30.170   9.158  0.00  0.00    -0.127 S 
ATOM      8  C   LIG    1       25.013 -29.966   7.829  0.00  0.00    +0.042 C 
ATOM      9  CA  LIG    1       26.138 -30.997   8.101  0.00  0.00    +0.201 C 
ATOM     10  C   LIG    1       25.566 -28.534   7.940  0.00  0.00    +0.025 C 
ATOM     11  C   LIG    1       24.283 -30.100   6.488  0.00  0.00    +0.025 C 
ATOM     12  N   LIG    1       26.043 -31.426   9.509  0.00  0.00    -0.271 N 
ATOM     13  C   LIG    1       26.724 -30.714  10.461  0.00  0.00    +0.240 C 
ATOM     14  O   LIG    1       27.800 -30.161  10.407  0.00  0.00    -0.273 OA
BRANCH   9  15
ATOM     15  C   LIG    1       26.177 -32.217   7.173  0.00  0.00    +0.327 C 
ATOM     16  O   LIG    1       25.444 -33.190   7.279  0.00  0.00    -0.249 OA
BRANCH  15  17
ATOM     17  OXT LIG    1       27.067 -32.103   6.158  0.00  0.00    -0.479 OA
ATOM     18  HXT LIG    1       26.615 -32.210   5.295  0.00  0.00    +0.295 HD
ENDBRANCH  15  17
ENDBRANCH   9  15
ENDBRANCH   2   5
BRANCH   1  21
ATOM     19  C   LIG    1       27.284 -26.134  12.853  0.00  0.00    +0.090 C 
ATOM     20  C   LIG    1       25.873 -26.334  13.235  0.00  0.00    +0.147 A 
ATOM     21  C   LIG    1       25.019 -27.421  13.334  0.00  0.00    +0.106 A 
ATOM     22  C   LIG    1       23.740 -26.819  13.603  0.00  0.00    +0.126 A 
ATOM     23  N   LIG    1       23.888 -25.490  13.759  0.00  0.00    -0.077 NA
ATOM     24  O   LIG    1       25.201 -25.198  13.523  0.00  0.00    -0.359 OA
BRANCH  22  25
ATOM     25  C   LIG    1       22.392 -27.388  13.732  0.00  0.00    +0.004 A 
ATOM     26  C   LIG    1       21.300 -26.685  13.186  0.00  0.00    +0.010 A 
ATOM     27  C   LIG    1       19.995 -27.165  13.299  0.00  0.00    +0.001 A 
ATOM     28  C   LIG    1       19.756 -28.365  13.959  0.00  0.00    +0.000 A 
ATOM     29  C   LIG    1       20.823 -29.075  14.510  0.00  0.00    +0.001 A 
ATOM     30  C   LIG    1       22.132 -28.587  14.404  0.00  0.00    +0.010 A 
ENDBRANCH  22  25
ENDBRANCH   1  21
TORSDOF 5
ENDMDL
MODEL 6
REMARK VINA RESULT:      -5.8      3.908      6.681
REMARK  Name = *****
REMARK                            x       y       z     vdW  Elec       q    Type
REMARK                         _______ _______ _______ _____ _____    ______ ____
ROOT
ATOM      1  C   LIG    1       26.928 -27.472  13.464  0.00  0.00    +0.250 C 
ATOM      2  N   LIG    1       26.742 -27.634  12.107  0.00  0.00    -0.298 N 
ATOM      3  H   LIG    1       26.209 -26.928  11.612  0.00  0.00    +0.150 HD
ATOM      4  O   LIG    1       27.719 -28.168  14.090  0.00  0.00    -0.270 OA
ENDROOT
BRANCH   2   5
ATOM      5  CA  LIG    1       27.470 -28.660  11.309  0.00  0.00    +0.190 C 
ATOM      6  C   LIG    1       27.107 -30.158  11.493  0.00  0.00    +0.165 C 
ATOM      7  S   LIG    1       25.582 -30.561  12.394  0.00  0.00    -0.127 S 
ATOM      8  C   LIG    1       24.542 -30.834  10.889  0.00  0.00    +0.042 C 
ATOM      9  CA  LIG    1       25.494 -30.856   9.666  0.00  0.00    +0.201 C 
ATOM     10  C   LIG    1       23.568 -29.647  10.784  0.00  0.00    +0.025 C 
ATOM     11  C   LIG    1       23.726 -32.109  11.134  0.00  0.00    +0.025 C 
ATOM     12  N   LIG    1       26.762 -30.212  10.055  0.00  0.00    -0.271 N 
ATOM     13  C   LIG    1       26.889 -28.858   9.891  0.00  0.00    +0.240 C 
ATOM     14  O   LIG    1       26.454 -28.127   9.028  0.00  0.00    -0.273 OA
BRANCH   9  15
ATOM     15  C   LIG    1       25.763 -32.231   9.043  0.00  0.00    +0.327 C 
ATOM     16  O   LIG    1       25.186 -32.668   8.057  0.00  0.00    -0.249 OA
BRANCH  15  17
ATOM     17  OXT LIG    1       26.762 -32.919   9.646  0.00  0.00    -0.479 OA
ATOM     18  HXT LIG    1       26.466 -33.258  10.516  0.00  0.00    +0.295 HD
ENDBRANCH  15  17
ENDBRANCH   9  15
ENDBRANCH   2   5
BRANCH   1  21
ATOM     19  C   LIG    1       27.952 -24.486  14.375  0.00  0.00    +0.090 C 
ATOM     20  C   LIG    1       26.645 -25.166  14.446  0.00  0.00    +0.147 A 
ATOM     21  C   LIG    1       26.149 -26.400  14.055  0.00  0.00    +0.106 A 
ATOM     22  C   LIG    1       24.735 -26.286  14.299  0.00  0.00    +0.126 A 
ATOM     23  N   LIG    1       24.472 -25.107  14.895  0.00  0.00    -0.077 NA
ATOM     24  O   LIG    1       25.649 -24.421  14.975  0.00  0.00    -0.359 OA
BRANCH  22  25
ATOM     25  C   LIG    1       23.613 -27.192  14.025  0.00  0.00    +0.004 A 
ATOM     26  C   LIG    1       22.547 -26.735  13.224  0.00  0.00    +0.010 A 
ATOM     27  C   LIG    1       21.444 -27.544  12.950  0.00  0.00    +0.001 A 
ATOM     28  C   LIG    1       21.386 -28.832  13.471  0.00  0.00    +0.000 A 
ATOM     29  C   LIG    1       22.428 -29.302  14.268  0.00  0.00    +0.001 A 
ATOM     30  C   LIG    1       23.532 -28.486  14.550  0.00  0.00    +0.010 A 
ENDBRANCH  22  25
ENDBRANCH   1  21
TORSDOF 5
ENDMDL
MODEL 7
REMARK VINA RESULT:      -5.8      3.442      5.131
REMARK  Name = *****
REMARK                            x       y       z     vdW  Elec       q    Type
REMARK                         _______ _______ _______ _____ _____    ______ ____
ROOT
ATOM      1  C   LIG    1       25.571 -27.887  12.636  0.00  0.00    +0.250 C 
ATOM      2  N   LIG    1       24.345 -28.519  12.613  0.00  0.00    -0.298 N 
ATOM      3  H   LIG    1       24.320 -29.501  12.361  0.00  0.00    +0.150 HD
ATOM      4  O   LIG    1       25.707 -26.768  13.117  0.00  0.00    -0.270 OA
ENDROOT
BRANCH   2   5
ATOM      5  CA  LIG    1       23.106 -27.896  13.154  0.00  0.00    +0.190 C 
ATOM      6  C   LIG    1       21.726 -28.381  12.636  0.00  0.00    +0.165 C 
ATOM      7  S   LIG    1       21.672 -29.919  11.670  0.00  0.00    -0.127 S 
ATOM      8  C   LIG    1       21.156 -31.005  13.076  0.00  0.00    +0.042 C 
ATOM      9  CA  LIG    1       20.775 -30.080  14.260  0.00  0.00    +0.201 C 
ATOM     10  C   LIG    1       22.369 -31.876  13.450  0.00  0.00    +0.025 C 
ATOM     11  C   LIG    1       20.046 -31.922  12.550  0.00  0.00    +0.025 C 
ATOM     12  N   LIG    1       21.378 -28.755  14.025  0.00  0.00    -0.271 N 
ATOM     13  C   LIG    1       22.643 -28.516  14.492  0.00  0.00    +0.240 C 
ATOM     14  O   LIG    1       23.195 -28.902  15.500  0.00  0.00    -0.273 OA
BRANCH   9  15
ATOM     15  C   LIG    1       19.277 -29.940  14.554  0.00  0.00    +0.327 C 
ATOM     16  O   LIG    1       18.688 -30.541  15.441  0.00  0.00    -0.249 OA
BRANCH  15  17
ATOM     17  OXT LIG    1       18.650 -29.026  13.775  0.00  0.00    -0.479 OA
ATOM     18  HXT LIG    1       19.160 -28.870  12.954  0.00  0.00    +0.295 HD
ENDBRANCH  15  17
ENDBRANCH   9  15
ENDBRANCH   2   5
BRANCH   1  21
ATOM     19  C   LIG    1       28.131 -29.192  14.228  0.00  0.00    +0.090 C 
ATOM     20  C   LIG    1       27.735 -29.172  12.807  0.00  0.00    +0.147 A 
ATOM     21  C   LIG    1       26.663 -28.670  12.087  0.00  0.00    +0.106 A 
ATOM     22  C   LIG    1       26.879 -29.186  10.761  0.00  0.00    +0.126 A 
ATOM     23  N   LIG    1       28.056 -29.839  10.715  0.00  0.00    -0.077 NA
ATOM     24  O   LIG    1       28.573 -29.833  11.979  0.00  0.00    -0.359 OA
BRANCH  22  25
ATOM     25  C   LIG    1       26.077 -29.113   9.533  0.00  0.00    +0.004 A 
ATOM     26  C   LIG    1       25.031 -30.038   9.345  0.00  0.00    +0.010 A 
ATOM     27  C   LIG    1       24.251 -30.030   8.188  0.00  0.00    +0.001 A 
ATOM     28  C   LIG    1       24.501 -29.091   7.194  0.00  0.00    +0.000 A 
ATOM     29  C   LIG    1       25.534 -28.169   7.359  0.00  0.00    +0.001 A 
ATOM     30  C   LIG    1       26.322 -28.183   8.517  0.00  0.00    +0.010 A 
ENDBRANCH  22  25
ENDBRANCH   1  21
TORSDOF 5
ENDMDL
MODEL 8
REMARK VINA RESULT:      -5.7      2.754      5.003
REMARK  Name = *****
REMARK                            x       y       z     vdW  Elec       q    Type
REMARK                         _______ _______ _______ _____ _____    ______ ____
ROOT
ATOM      1  C   LIG    1       25.937 -28.238   8.182  0.00  0.00    +0.250 C 
ATOM      2  N   LIG    1       25.980 -28.757   9.460  0.00  0.00    -0.298 N 
ATOM      3  H   LIG    1       25.511 -29.640   9.631  0.00  0.00    +0.150 HD
ATOM      4  O   LIG    1       26.639 -27.289   7.853  0.00  0.00    -0.270 OA
ENDROOT
BRANCH   2   5
ATOM      5  CA  LIG    1       26.860 -28.206  10.527  0.00  0.00    +0.190 C 
ATOM      6  C   LIG    1       26.301 -28.053  11.967  0.00  0.00    +0.165 C 
ATOM      7  S   LIG    1       24.733 -28.881  12.363  0.00  0.00    -0.127 S 
ATOM      8  C   LIG    1       25.501 -30.357  13.171  0.00  0.00    +0.042 C 
ATOM      9  CA  LIG    1       27.009 -30.054  13.353  0.00  0.00    +0.201 C 
ATOM     10  C   LIG    1       25.309 -31.552  12.220  0.00  0.00    +0.025 C 
ATOM     11  C   LIG    1       24.706 -30.629  14.454  0.00  0.00    +0.025 C 
ATOM     12  N   LIG    1       27.374 -28.956  12.439  0.00  0.00    -0.271 N 
ATOM     13  C   LIG    1       27.783 -29.267  11.168  0.00  0.00    +0.240 C 
ATOM     14  O   LIG    1       28.435 -30.202  10.759  0.00  0.00    -0.273 OA
BRANCH   9  15
ATOM     15  C   LIG    1       27.468 -29.734  14.780  0.00  0.00    +0.327 C 
ATOM     16  O   LIG    1       28.081 -30.510  15.500  0.00  0.00    -0.249 OA
BRANCH  15  17
ATOM     17  OXT LIG    1       27.192 -28.467  15.172  0.00  0.00    -0.479 OA
ATOM     18  HXT LIG    1       27.995 -28.041  15.537  0.00  0.00    +0.295 HD
ENDBRANCH  15  17
ENDBRANCH   9  15
ENDBRANCH   2   5
BRANCH   1  21
ATOM     19  C   LIG    1       24.273 -27.006   5.632  0.00  0.00    +0.090 C 
ATOM     20  C   LIG    1       24.339 -28.350   6.235  0.00  0.00    +0.147 A 
ATOM     21  C   LIG    1       25.038 -28.933   7.280  0.00  0.00    +0.106 A 
ATOM     22  C   LIG    1       24.712 -30.329   7.164  0.00  0.00    +0.126 A 
ATOM     23  N   LIG    1       23.799 -30.503   6.189  0.00  0.00    -0.077 NA
ATOM     24  O   LIG    1       23.581 -29.283   5.616  0.00  0.00    -0.359 OA
BRANCH  22  25
ATOM     25  C   LIG    1       25.179 -31.513   7.896  0.00  0.00    +0.004 A 
ATOM     26  C   LIG    1       26.560 -31.795   7.927  0.00  0.00    +0.010 A 
ATOM     27  C   LIG    1       27.059 -32.919   8.587  0.00  0.00    +0.001 A 
ATOM     28  C   LIG    1       26.185 -33.783   9.235  0.00  0.00    +0.000 A 
ATOM     29  C   LIG    1       24.815 -33.525   9.214  0.00  0.00    +0.001 A 
ATOM     30  C   LIG    1       24.313 -32.401   8.543  0.00  0.00    +0.010 A 
ENDBRANCH  22  25
ENDBRANCH   1  21
TORSDOF 5
ENDMDL
MODEL 9
REMARK VINA RESULT:      -5.6      7.288     10.561
REMARK  Name = *****
REMARK                            x       y       z     vdW  Elec       q    Type
REMARK                         _______ _______ _______ _____ _____    ______ ____
ROOT
ATOM      1  C   LIG    1       28.586 -20.416   7.903  0.00  0.00    +0.250 C 
ATOM      2  N   LIG    1       27.225 -20.570   7.731  0.00  0.00    -0.298 N 
ATOM      3  H   LIG    1       26.767 -20.004   7.026  0.00  0.00    +0.150 HD
ATOM      4  O   LIG    1       29.238 -21.197   8.586  0.00  0.00    -0.270 OA
ENDROOT
BRANCH   2   5
ATOM      5  CA  LIG    1       26.452 -21.675   8.364  0.00  0.00    +0.190 C 
ATOM      6  C   LIG    1       24.903 -21.666   8.270  0.00  0.00    +0.165 C 
ATOM      7  S   LIG    1       24.128 -20.515   7.096  0.00  0.00    -0.127 S 
ATOM      8  C   LIG    1       23.874 -21.761   5.753  0.00  0.00    +0.042 C 
ATOM      9  CA  LIG    1       24.175 -23.158   6.354  0.00  0.00    +0.201 C 
ATOM     10  C   LIG    1       24.877 -21.437   4.632  0.00  0.00    +0.025 C 
ATOM     11  C   LIG    1       22.456 -21.551   5.210  0.00  0.00    +0.025 C 
ATOM     12  N   LIG    1       24.975 -22.973   7.579  0.00  0.00    -0.271 N 
ATOM     13  C   LIG    1       26.341 -22.932   7.472  0.00  0.00    +0.240 C 
ATOM     14  O   LIG    1       27.090 -23.536   6.735  0.00  0.00    -0.273 OA
BRANCH   9  15
ATOM     15  C   LIG    1       22.960 -24.048   6.640  0.00  0.00    +0.327 C 
ATOM     16  O   LIG    1       21.857 -23.630   6.960  0.00  0.00    -0.249 OA
BRANCH  15  17
ATOM     17  OXT LIG    1       23.192 -25.369   6.443  0.00  0.00    -0.479 OA
ATOM     18  HXT LIG    1       23.254 -25.565   5.486  0.00  0.00    +0.295 HD
ENDBRANCH  15  17
ENDBRANCH   9  15
ENDBRANCH   2   5
BRANCH   1  21
ATOM     19  C   LIG    1       28.014 -19.494   4.802  0.00  0.00    +0.090 C 
ATOM     20  C   LIG    1       28.901 -18.972   5.858  0.00  0.00    +0.147 A 
ATOM     21  C   LIG    1       29.160 -19.296   7.180  0.00  0.00    +0.106 A 
ATOM     22  C   LIG    1       30.023 -18.232   7.623  0.00  0.00    +0.126 A 
ATOM     23  N   LIG    1       30.320 -17.428   6.584  0.00  0.00    -0.077 NA
ATOM     24  O   LIG    1       29.620 -17.885   5.505  0.00  0.00    -0.359 OA
BRANCH  22  25
ATOM     25  C   LIG    1       30.596 -17.911   8.936  0.00  0.00    +0.004 A 
ATOM     26  C   LIG    1       31.947 -17.516   9.012  0.00  0.00    +0.010 A 
ATOM     27  C   LIG    1       32.552 -17.221  10.234  0.00  0.00    +0.001 A 
ATOM     28  C   LIG    1       31.813 -17.313  11.409  0.00  0.00    +0.000 A 
ATOM     29  C   LIG    1       30.477 -17.706  11.356  0.00  0.00    +0.001 A 
ATOM     30  C   LIG    1       29.873 -18.010  10.129  0.00  0.00    +0.010 A 
ENDBRANCH  22  25
ENDBRANCH   1  21
TORSDOF 5
ENDMDL
