MODEL 1
REMARK VINA RESULT:      -3.7      0.000      0.000
REMARK  Name = *****
REMARK                            x       y       z     vdW  Elec       q    Type
REMARK                         _______ _______ _______ _____ _____    ______ ____
ROOT
ATOM      1  N   LIG    1       26.136 -18.075   3.899  0.00  0.00    -0.288 N 
ENDROOT
BRANCH   1   6
ATOM      2  C   LIG    1       25.170 -12.455   2.956  0.00  0.00    +0.044 C 
ATOM      3  C   LIG    1       25.413 -13.913   3.208  0.00  0.00    -0.050 A 
ATOM      4  C   LIG    1       26.659 -14.485   2.941  0.00  0.00    +0.005 A 
ATOM      5  C   LIG    1       26.882 -15.853   3.163  0.00  0.00    +0.024 A 
ATOM      6  C   LIG    1       25.870 -16.701   3.648  0.00  0.00    +0.035 A 
ATOM      7  C   LIG    1       24.627 -16.101   3.911  0.00  0.00    +0.024 A 
ATOM      8  C   LIG    1       24.397 -14.735   3.693  0.00  0.00    +0.005 A 
ENDBRANCH   1   6
BRANCH   1   9
ATOM      9  C   LIG    1       27.176 -18.617   4.707  0.00  0.00    +0.038 A 
ATOM     10  C   LIG    1       27.029 -19.835   5.397  0.00  0.00    +0.069 A 
ATOM     11  C   LIG    1       28.071 -20.370   6.160  0.00  0.00    +0.119 A 
ATOM     12  C   LIG    1       29.281 -19.703   6.287  0.00  0.00    +0.045 A 
ATOM     13  C   LIG    1       29.449 -18.489   5.627  0.00  0.00    +0.005 A 
ATOM     14  C   LIG    1       28.412 -17.958   4.846  0.00  0.00    +0.024 A 
BRANCH  11  15
ATOM     15  O   LIG    1       27.859 -21.570   6.775  0.00  0.00    -0.507 OA
ATOM     16  H   LIG    1       27.757 -21.417   7.730  0.00  0.00    +0.292 HD
ENDBRANCH  11  15
ENDBRANCH   1   9
BRANCH   1  17
ATOM     17  C   LIG    1       25.411 -19.066   3.057  0.00  0.00    +0.238 C 
BRANCH  17  18
ATOM     18  C   LIG    1       24.261 -19.712   3.831  0.00  0.00    +0.299 C 
ATOM     19  N   LIG    1       24.277 -21.048   4.181  0.00  0.00    -0.232 N 
ATOM     20  H   LIG    1       25.203 -21.420   4.373  0.00  0.00    +0.291 HD
ATOM     21  C   LIG    1       23.247 -21.246   5.170  0.00  0.00    +0.273 C 
ATOM     22  C   LIG    1       22.358 -20.024   4.913  0.00  0.00    +0.333 C 
ATOM     23  N   LIG    1       23.209 -19.026   4.196  0.00  0.00    -0.082 NA
ENDBRANCH  17  18
ENDBRANCH   1  17
TORSDOF 5
ENDMDL
MODEL 2
REMARK VINA RESULT:      -3.6      2.431      5.925
REMARK  Name = *****
REMARK                            x       y       z     vdW  Elec       q    Type
REMARK                         _______ _______ _______ _____ _____    ______ ____
ROOT
ATOM      1  N   LIG    1       25.472 -17.506   3.694  0.00  0.00    -0.288 N 
ENDROOT
BRANCH   1   6
ATOM      2  C   LIG    1       21.267 -21.336   4.724  0.00  0.00    +0.044 C 
ATOM      3  C   LIG    1       22.365 -20.350   4.459  0.00  0.00    -0.050 A 
ATOM      4  C   LIG    1       22.148 -18.980   4.621  0.00  0.00    +0.005 A 
ATOM      5  C   LIG    1       23.172 -18.055   4.359  0.00  0.00    +0.024 A 
ATOM      6  C   LIG    1       24.443 -18.462   3.915  0.00  0.00    +0.035 A 
ATOM      7  C   LIG    1       24.636 -19.846   3.762  0.00  0.00    +0.024 A 
ATOM      8  C   LIG    1       23.619 -20.775   4.023  0.00  0.00    +0.005 A 
ENDBRANCH   1   6
BRANCH   1   9
ATOM      9  C   LIG    1       25.335 -16.090   3.644  0.00  0.00    +0.038 A 
ATOM     10  C   LIG    1       26.372 -15.254   3.189  0.00  0.00    +0.069 A 
ATOM     11  C   LIG    1       26.210 -13.868   3.116  0.00  0.00    +0.119 A 
ATOM     12  C   LIG    1       25.027 -13.263   3.514  0.00  0.00    +0.045 A 
ATOM     13  C   LIG    1       23.990 -14.064   3.981  0.00  0.00    +0.005 A 
ATOM     14  C   LIG    1       24.142 -15.457   4.040  0.00  0.00    +0.024 A 
BRANCH  11  15
ATOM     15  O   LIG    1       27.254 -13.129   2.638  0.00  0.00    -0.507 OA
ATOM     16  H   LIG    1       27.573 -12.545   3.346  0.00  0.00    +0.292 HD
ENDBRANCH  11  15
ENDBRANCH   1   9
BRANCH   1  17
ATOM     17  C   LIG    1       26.789 -18.029   3.235  0.00  0.00    +0.238 C 
BRANCH  17  18
ATOM     18  C   LIG    1       27.650 -18.471   4.419  0.00  0.00    +0.299 C 
ATOM     19  N   LIG    1       27.446 -19.677   5.060  0.00  0.00    -0.232 N 
ATOM     20  H   LIG    1       27.113 -20.422   4.453  0.00  0.00    +0.291 HD
ATOM     21  C   LIG    1       28.608 -19.933   5.875  0.00  0.00    +0.273 C 
ATOM     22  C   LIG    1       29.185 -18.520   6.010  0.00  0.00    +0.333 C 
ATOM     23  N   LIG    1       28.619 -17.722   4.881  0.00  0.00    -0.082 NA
ENDBRANCH  17  18
ENDBRANCH   1  17
TORSDOF 5
ENDMDL
MODEL 3
REMARK VINA RESULT:      -3.5      3.714      7.127
REMARK  Name = *****
REMARK                            x       y       z     vdW  Elec       q    Type
REMARK                         _______ _______ _______ _____ _____    ______ ____
ROOT
ATOM      1  N   LIG    1       25.364 -15.463   3.580  0.00  0.00    -0.288 N 
ENDROOT
BRANCH   1   6
ATOM      2  C   LIG    1       22.325 -20.306   4.426  0.00  0.00    +0.044 C 
ATOM      3  C   LIG    1       23.122 -19.055   4.208  0.00  0.00    -0.050 A 
ATOM      4  C   LIG    1       22.561 -17.800   4.454  0.00  0.00    +0.005 A 
ATOM      5  C   LIG    1       23.303 -16.628   4.236  0.00  0.00    +0.024 A 
ATOM      6  C   LIG    1       24.624 -16.665   3.756  0.00  0.00    +0.035 A 
ATOM      7  C   LIG    1       25.166 -17.940   3.518  0.00  0.00    +0.024 A 
ATOM      8  C   LIG    1       24.432 -19.115   3.735  0.00  0.00    +0.005 A 
ENDBRANCH   1   6
BRANCH   1   9
ATOM      9  C   LIG    1       24.843 -14.154   3.372  0.00  0.00    +0.038 A 
ATOM     10  C   LIG    1       24.255 -13.410   4.411  0.00  0.00    +0.069 A 
ATOM     11  C   LIG    1       23.778 -12.114   4.198  0.00  0.00    +0.119 A 
ATOM     12  C   LIG    1       23.843 -11.524   2.944  0.00  0.00    +0.045 A 
ATOM     13  C   LIG    1       24.407 -12.242   1.894  0.00  0.00    +0.005 A 
ATOM     14  C   LIG    1       24.903 -13.537   2.108  0.00  0.00    +0.024 A 
BRANCH  11  15
ATOM     15  O   LIG    1       23.247 -11.447   5.264  0.00  0.00    -0.507 OA
ATOM     16  H   LIG    1       23.385 -10.493   5.136  0.00  0.00    +0.292 HD
ENDBRANCH  11  15
ENDBRANCH   1   9
BRANCH   1  17
ATOM     17  C   LIG    1       26.830 -15.602   3.357  0.00  0.00    +0.238 C 
BRANCH  17  18
ATOM     18  C   LIG    1       27.592 -14.410   3.939  0.00  0.00    +0.299 C 
ATOM     19  N   LIG    1       28.515 -13.701   3.196  0.00  0.00    -0.232 N 
ATOM     20  H   LIG    1       28.300 -13.646   2.204  0.00  0.00    +0.291 HD
ATOM     21  C   LIG    1       28.782 -12.472   3.902  0.00  0.00    +0.273 C 
ATOM     22  C   LIG    1       28.327 -12.845   5.318  0.00  0.00    +0.333 C 
ATOM     23  N   LIG    1       27.404 -14.011   5.171  0.00  0.00    -0.082 NA
ENDBRANCH  17  18
ENDBRANCH   1  17
TORSDOF 5
ENDMDL
MODEL 4
REMARK VINA RESULT:      -3.4      3.178      6.270
REMARK  Name = *****
REMARK                            x       y       z     vdW  Elec       q    Type
REMARK                         _______ _______ _______ _____ _____    ______ ____
ROOT
ATOM      1  N   LIG    1       24.650 -15.802   3.734  0.00  0.00    -0.288 N 
ENDROOT
BRANCH   1   6
ATOM      2  C   LIG    1       24.319 -21.571   3.875  0.00  0.00    +0.044 C 
ATOM      3  C   LIG    1       24.415 -20.075   3.841  0.00  0.00    -0.050 A 
ATOM      4  C   LIG    1       23.302 -19.282   4.128  0.00  0.00    +0.005 A 
ATOM      5  C   LIG    1       23.388 -17.881   4.081  0.00  0.00    +0.024 A 
ATOM      6  C   LIG    1       24.582 -17.222   3.736  0.00  0.00    +0.035 A 
ATOM      7  C   LIG    1       25.688 -18.043   3.454  0.00  0.00    +0.024 A 
ATOM      8  C   LIG    1       25.609 -19.442   3.500  0.00  0.00    +0.005 A 
ENDBRANCH   1   6
BRANCH   1   9
ATOM      9  C   LIG    1       25.824 -14.996   3.721  0.00  0.00    +0.038 A 
ATOM     10  C   LIG    1       26.296 -14.344   4.876  0.00  0.00    +0.069 A 
ATOM     11  C   LIG    1       27.468 -13.584   4.855  0.00  0.00    +0.119 A 
ATOM     12  C   LIG    1       28.196 -13.423   3.685  0.00  0.00    +0.045 A 
ATOM     13  C   LIG    1       27.745 -14.044   2.524  0.00  0.00    +0.005 A 
ATOM     14  C   LIG    1       26.578 -14.823   2.546  0.00  0.00    +0.024 A 
BRANCH  11  15
ATOM     15  O   LIG    1       27.874 -13.006   6.023  0.00  0.00    -0.507 OA
ATOM     16  H   LIG    1       28.637 -13.500   6.367  0.00  0.00    +0.292 HD
ENDBRANCH  11  15
ENDBRANCH   1   9
BRANCH   1  17
ATOM     17  C   LIG    1       23.383 -15.067   4.006  0.00  0.00    +0.238 C 
BRANCH  17  18
ATOM     18  C   LIG    1       23.607 -13.555   3.983  0.00  0.00    +0.299 C 
ATOM     19  N   LIG    1       23.841 -12.869   2.807  0.00  0.00    -0.232 N 
ATOM     20  H   LIG    1       23.369 -13.258   1.995  0.00  0.00    +0.291 HD
ATOM     21  C   LIG    1       23.666 -11.465   3.086  0.00  0.00    +0.273 C 
ATOM     22  C   LIG    1       23.845 -11.447   4.609  0.00  0.00    +0.333 C 
ATOM     23  N   LIG    1       23.590 -12.842   5.080  0.00  0.00    -0.082 NA
ENDBRANCH  17  18
ENDBRANCH   1  17
TORSDOF 5
ENDMDL
MODEL 5
REMARK VINA RESULT:      -3.0      2.090      4.151
REMARK  Name = *****
REMARK                            x       y       z     vdW  Elec       q    Type
REMARK                         _______ _______ _______ _____ _____    ______ ____
ROOT
ATOM      1  N   LIG    1       25.074 -18.868   4.094  0.00  0.00    -0.288 N 
ENDROOT
BRANCH   1   6
ATOM      2  C   LIG    1       24.427 -13.157   3.483  0.00  0.00    +0.044 C 
ATOM      3  C   LIG    1       24.587 -14.639   3.650  0.00  0.00    -0.050 A 
ATOM      4  C   LIG    1       25.783 -15.270   3.300  0.00  0.00    +0.005 A 
ATOM      5  C   LIG    1       25.928 -16.659   3.442  0.00  0.00    +0.024 A 
ATOM      6  C   LIG    1       24.885 -17.469   3.926  0.00  0.00    +0.035 A 
ATOM      7  C   LIG    1       23.693 -16.809   4.272  0.00  0.00    +0.024 A 
ATOM      8  C   LIG    1       23.541 -15.422   4.134  0.00  0.00    +0.005 A 
ENDBRANCH   1   6
BRANCH   1   9
ATOM      9  C   LIG    1       24.269 -19.759   4.859  0.00  0.00    +0.038 A 
ATOM     10  C   LIG    1       23.029 -20.236   4.392  0.00  0.00    +0.069 A 
ATOM     11  C   LIG    1       22.266 -21.135   5.141  0.00  0.00    +0.119 A 
ATOM     12  C   LIG    1       22.692 -21.572   6.387  0.00  0.00    +0.045 A 
ATOM     13  C   LIG    1       23.907 -21.106   6.881  0.00  0.00    +0.005 A 
ATOM     14  C   LIG    1       24.684 -20.216   6.124  0.00  0.00    +0.024 A 
BRANCH  11  15
ATOM     15  O   LIG    1       21.088 -21.572   4.606  0.00  0.00    -0.507 OA
ATOM     16  H   LIG    1       21.230 -22.450   4.215  0.00  0.00    +0.292 HD
ENDBRANCH  11  15
ENDBRANCH   1   9
BRANCH   1  17
ATOM     17  C   LIG    1       26.367 -19.435   3.621  0.00  0.00    +0.238 C 
BRANCH  17  18
ATOM     18  C   LIG    1       27.395 -19.484   4.752  0.00  0.00    +0.299 C 
ATOM     19  N   LIG    1       27.478 -20.558   5.617  0.00  0.00    -0.232 N 
ATOM     20  H   LIG    1       27.239 -21.453   5.197  0.00  0.00    +0.291 HD
ATOM     21  C   LIG    1       28.733 -20.449   6.318  0.00  0.00    +0.273 C 
ATOM     22  C   LIG    1       29.043 -18.960   6.130  0.00  0.00    +0.333 C 
ATOM     23  N   LIG    1       28.241 -18.507   4.953  0.00  0.00    -0.082 NA
ENDBRANCH  17  18
ENDBRANCH   1  17
TORSDOF 5
ENDMDL
MODEL 6
REMARK VINA RESULT:      -2.9      2.988      5.234
REMARK  Name = *****
REMARK                            x       y       z     vdW  Elec       q    Type
REMARK                         _______ _______ _______ _____ _____    ______ ____
ROOT
ATOM      1  N   LIG    1       24.666 -15.799   3.890  0.00  0.00    -0.288 N 
ENDROOT
BRANCH   1   6
ATOM      2  C   LIG    1       29.448 -12.552   3.788  0.00  0.00    +0.044 C 
ATOM      3  C   LIG    1       28.205 -13.391   3.805  0.00  0.00    -0.050 A 
ATOM      4  C   LIG    1       27.540 -13.657   5.004  0.00  0.00    +0.005 A 
ATOM      5  C   LIG    1       26.385 -14.456   5.021  0.00  0.00    +0.024 A 
ATOM      6  C   LIG    1       25.859 -15.025   3.848  0.00  0.00    +0.035 A 
ATOM      7  C   LIG    1       26.546 -14.741   2.654  0.00  0.00    +0.024 A 
ATOM      8  C   LIG    1       27.699 -13.943   2.629  0.00  0.00    +0.005 A 
ENDBRANCH   1   6
BRANCH   1   9
ATOM      9  C   LIG    1       24.557 -17.217   3.826  0.00  0.00    +0.038 A 
ATOM     10  C   LIG    1       23.376 -17.893   4.183  0.00  0.00    +0.069 A 
ATOM     11  C   LIG    1       23.274 -19.283   4.083  0.00  0.00    +0.119 A 
ATOM     12  C   LIG    1       24.346 -20.051   3.652  0.00  0.00    +0.045 A 
ATOM     13  C   LIG    1       25.532 -19.410   3.306  0.00  0.00    +0.005 A 
ATOM     14  C   LIG    1       25.632 -18.013   3.388  0.00  0.00    +0.024 A 
BRANCH  11  15
ATOM     15  O   LIG    1       22.084 -19.861   4.422  0.00  0.00    -0.507 OA
ATOM     16  H   LIG    1       21.723 -19.398   5.197  0.00  0.00    +0.292 HD
ENDBRANCH  11  15
ENDBRANCH   1   9
BRANCH   1  17
ATOM     17  C   LIG    1       23.380 -15.060   3.755  0.00  0.00    +0.238 C 
BRANCH  17  18
ATOM     18  C   LIG    1       23.610 -13.549   3.746  0.00  0.00    +0.299 C 
ATOM     19  N   LIG    1       23.853 -12.854   2.577  0.00  0.00    -0.232 N 
ATOM     20  H   LIG    1       23.384 -13.235   1.759  0.00  0.00    +0.291 HD
ATOM     21  C   LIG    1       23.682 -11.452   2.867  0.00  0.00    +0.273 C 
ATOM     22  C   LIG    1       23.851 -11.447   4.391  0.00  0.00    +0.333 C 
ATOM     23  N   LIG    1       23.589 -12.845   4.849  0.00  0.00    -0.082 NA
ENDBRANCH  17  18
ENDBRANCH   1  17
TORSDOF 5
ENDMDL
MODEL 7
REMARK VINA RESULT:      -2.8      1.409      4.062
REMARK  Name = *****
REMARK                            x       y       z     vdW  Elec       q    Type
REMARK                         _______ _______ _______ _____ _____    ______ ____
ROOT
ATOM      1  N   LIG    1       25.134 -18.180   3.725  0.00  0.00    -0.288 N 
ENDROOT
BRANCH   1   6
ATOM      2  C   LIG    1       24.583 -12.427   3.656  0.00  0.00    +0.044 C 
ATOM      3  C   LIG    1       24.733 -13.919   3.666  0.00  0.00    -0.050 A 
ATOM      4  C   LIG    1       23.687 -14.738   4.095  0.00  0.00    +0.005 A 
ATOM      5  C   LIG    1       23.833 -16.135   4.119  0.00  0.00    +0.024 A 
ATOM      6  C   LIG    1       25.029 -16.762   3.726  0.00  0.00    +0.035 A 
ATOM      7  C   LIG    1       26.065 -15.916   3.296  0.00  0.00    +0.024 A 
ATOM      8  C   LIG    1       25.926 -14.521   3.269  0.00  0.00    +0.005 A 
ENDBRANCH   1   6
BRANCH   1   9
ATOM      9  C   LIG    1       24.241 -19.111   4.328  0.00  0.00    +0.038 A 
ATOM     10  C   LIG    1       24.632 -19.935   5.400  0.00  0.00    +0.069 A 
ATOM     11  C   LIG    1       23.733 -20.820   6.002  0.00  0.00    +0.119 A 
ATOM     12  C   LIG    1       22.428 -20.937   5.546  0.00  0.00    +0.045 A 
ATOM     13  C   LIG    1       22.019 -20.144   4.479  0.00  0.00    +0.005 A 
ATOM     14  C   LIG    1       22.912 -19.242   3.882  0.00  0.00    +0.024 A 
BRANCH  11  15
ATOM     15  O   LIG    1       24.182 -21.565   7.055  0.00  0.00    -0.507 OA
ATOM     16  H   LIG    1       24.412 -22.453   6.733  0.00  0.00    +0.292 HD
ENDBRANCH  11  15
ENDBRANCH   1   9
BRANCH   1  17
ATOM     17  C   LIG    1       26.422 -18.759   3.251  0.00  0.00    +0.238 C 
BRANCH  17  18
ATOM     18  C   LIG    1       27.405 -18.940   4.408  0.00  0.00    +0.299 C 
ATOM     19  N   LIG    1       27.410 -20.079   5.190  0.00  0.00    -0.232 N 
ATOM     20  H   LIG    1       27.149 -20.928   4.694  0.00  0.00    +0.291 HD
ATOM     21  C   LIG    1       28.642 -20.081   5.939  0.00  0.00    +0.273 C 
ATOM     22  C   LIG    1       29.023 -18.598   5.876  0.00  0.00    +0.333 C 
ATOM     23  N   LIG    1       28.285 -18.021   4.712  0.00  0.00    -0.082 NA
ENDBRANCH  17  18
ENDBRANCH   1  17
TORSDOF 5
ENDMDL
MODEL 8
REMARK VINA RESULT:      -2.8      1.956      4.193
REMARK  Name = *****
REMARK                            x       y       z     vdW  Elec       q    Type
REMARK                         _______ _______ _______ _____ _____    ______ ____
ROOT
ATOM      1  N   LIG    1       25.496 -18.284   3.640  0.00  0.00    -0.288 N 
ENDROOT
BRANCH   1   6
ATOM      2  C   LIG    1       27.846 -13.003   3.618  0.00  0.00    +0.044 C 
ATOM      3  C   LIG    1       27.227 -14.369   3.625  0.00  0.00    -0.050 A 
ATOM      4  C   LIG    1       27.968 -15.486   4.018  0.00  0.00    +0.005 A 
ATOM      5  C   LIG    1       27.392 -16.766   4.011  0.00  0.00    +0.024 A 
ATOM      6  C   LIG    1       26.064 -16.981   3.602  0.00  0.00    +0.035 A 
ATOM      7  C   LIG    1       25.339 -15.840   3.213  0.00  0.00    +0.024 A 
ATOM      8  C   LIG    1       25.907 -14.558   3.220  0.00  0.00    +0.005 A 
ENDBRANCH   1   6
BRANCH   1   9
ATOM      9  C   LIG    1       24.150 -18.627   3.953  0.00  0.00    +0.038 A 
ATOM     10  C   LIG    1       23.762 -19.951   4.230  0.00  0.00    +0.069 A 
ATOM     11  C   LIG    1       22.443 -20.267   4.568  0.00  0.00    +0.119 A 
ATOM     12  C   LIG    1       21.461 -19.288   4.616  0.00  0.00    +0.045 A 
ATOM     13  C   LIG    1       21.814 -17.972   4.332  0.00  0.00    +0.005 A 
ATOM     14  C   LIG    1       23.141 -17.648   4.010  0.00  0.00    +0.024 A 
BRANCH  11  15
ATOM     15  O   LIG    1       22.152 -21.571   4.849  0.00  0.00    -0.507 OA
ATOM     16  H   LIG    1       21.737 -21.616   5.727  0.00  0.00    +0.292 HD
ENDBRANCH  11  15
ENDBRANCH   1   9
BRANCH   1  17
ATOM     17  C   LIG    1       26.442 -19.432   3.578  0.00  0.00    +0.238 C 
BRANCH  17  18
ATOM     18  C   LIG    1       26.981 -19.780   4.966  0.00  0.00    +0.299 C 
ATOM     19  N   LIG    1       28.287 -19.517   5.329  0.00  0.00    -0.232 N 
ATOM     20  H   LIG    1       28.683 -18.686   4.896  0.00  0.00    +0.291 HD
ATOM     21  C   LIG    1       28.369 -19.640   6.764  0.00  0.00    +0.273 C 
ATOM     22  C   LIG    1       27.132 -20.499   7.052  0.00  0.00    +0.333 C 
ATOM     23  N   LIG    1       26.227 -20.345   5.873  0.00  0.00    -0.082 NA
ENDBRANCH  17  18
ENDBRANCH   1  17
TORSDOF 5
ENDMDL
MODEL 9
REMARK VINA RESULT:      -2.8      2.427      4.761
REMARK  Name = *****
REMARK                            x       y       z     vdW  Elec       q    Type
REMARK                         _______ _______ _______ _____ _____    ______ ____
ROOT
ATOM      1  N   LIG    1       24.733 -18.785   3.657  0.00  0.00    -0.288 N 
ENDROOT
BRANCH   1   6
ATOM      2  C   LIG    1       26.330 -13.230   3.672  0.00  0.00    +0.044 C 
ATOM      3  C   LIG    1       25.923 -14.673   3.661  0.00  0.00    -0.050 A 
ATOM      4  C   LIG    1       24.613 -15.047   3.969  0.00  0.00    +0.005 A 
ATOM      5  C   LIG    1       24.237 -16.400   3.974  0.00  0.00    +0.024 A 
ATOM      6  C   LIG    1       25.152 -17.427   3.682  0.00  0.00    +0.035 A 
ATOM      7  C   LIG    1       26.463 -17.023   3.373  0.00  0.00    +0.024 A 
ATOM      8  C   LIG    1       26.846 -15.675   3.365  0.00  0.00    +0.005 A 
ENDBRANCH   1   6
BRANCH   1   9
ATOM      9  C   LIG    1       23.428 -19.288   3.926  0.00  0.00    +0.038 A 
ATOM     10  C   LIG    1       22.266 -18.608   3.515  0.00  0.00    +0.069 A 
ATOM     11  C   LIG    1       20.993 -19.132   3.758  0.00  0.00    +0.119 A 
ATOM     12  C   LIG    1       20.828 -20.329   4.438  0.00  0.00    +0.045 A 
ATOM     13  C   LIG    1       21.960 -21.016   4.868  0.00  0.00    +0.005 A 
ATOM     14  C   LIG    1       23.240 -20.503   4.611  0.00  0.00    +0.024 A 
BRANCH  11  15
ATOM     15  O   LIG    1       19.916 -18.425   3.303  0.00  0.00    -0.507 OA
ATOM     16  H   LIG    1       19.769 -18.648   2.369  0.00  0.00    +0.292 HD
ENDBRANCH  11  15
ENDBRANCH   1   9
BRANCH   1  17
ATOM     17  C   LIG    1       25.802 -19.818   3.571  0.00  0.00    +0.238 C 
BRANCH  17  18
ATOM     18  C   LIG    1       26.496 -20.008   4.920  0.00  0.00    +0.299 C 
ATOM     19  N   LIG    1       27.859 -19.840   5.069  0.00  0.00    -0.232 N 
ATOM     20  H   LIG    1       28.263 -19.134   4.459  0.00  0.00    +0.291 HD
ATOM     21  C   LIG    1       28.129 -19.751   6.483  0.00  0.00    +0.273 C 
ATOM     22  C   LIG    1       26.873 -20.413   7.061  0.00  0.00    +0.333 C 
ATOM     23  N   LIG    1       25.829 -20.340   5.995  0.00  0.00    -0.082 NA
ENDBRANCH  17  18
ENDBRANCH   1  17
TORSDOF 5
ENDMDL
