MODEL 1
REMARK VINA RESULT:       1.4      0.000      0.000
REMARK  Name = *****
REMARK                            x       y       z     vdW  Elec       q    Type
REMARK                         _______ _______ _______ _____ _____    ______ ____
ROOT
ATOM      1  C   LIG    1       26.242 -17.837   4.094  0.00  0.00    +0.008 C 
ATOM      2  C   LIG    1       27.424 -18.131   4.690  0.00  0.00    +0.056 C 
ATOM      3 CL   LIG    1       28.815 -17.051   4.613  0.00  0.00    -0.082 Cl
ENDROOT
BRANCH   1   7
ATOM      4  C   LIG    1       25.957 -13.837   2.455  0.00  0.00    +0.121 A 
ATOM      5  C   LIG    1       24.799 -14.549   2.785  0.00  0.00    +0.046 A 
ATOM      6  C   LIG    1       24.868 -15.857   3.287  0.00  0.00    +0.012 A 
ATOM      7  C   LIG    1       26.113 -16.459   3.498  0.00  0.00    -0.016 A 
ATOM      8  C   LIG    1       27.270 -15.748   3.157  0.00  0.00    +0.012 A 
ATOM      9  C   LIG    1       27.195 -14.459   2.615  0.00  0.00    +0.046 A 
BRANCH   4  10
ATOM     10  O   LIG    1       25.751 -12.564   2.001  0.00  0.00    -0.491 OA
BRANCH  10  11
ATOM     11  C   LIG    1       24.410 -12.058   1.924  0.00  0.00    +0.244 C 
BRANCH  11  12
ATOM     12  C   LIG    1       23.998 -11.448   3.279  0.00  0.00    +0.125 C 
BRANCH  12  13
ATOM     13  N   LIG    1       24.177 -12.291   4.486  0.00  0.00    -0.300 NA
BRANCH  13  15
ATOM     14  C   LIG    1       26.353 -12.828   5.677  0.00  0.00    +0.020 C 
ATOM     15  C   LIG    1       25.281 -11.788   5.340  0.00  0.00    +0.081 C 
ENDBRANCH  13  15
BRANCH  13  16
ATOM     16  C   LIG    1       22.918 -12.422   5.245  0.00  0.00    +0.081 C 
ATOM     17  C   LIG    1       22.823 -11.509   6.464  0.00  0.00    +0.020 C 
ENDBRANCH  13  16
ENDBRANCH  12  13
ENDBRANCH  11  12
ENDBRANCH  10  11
ENDBRANCH   4  10
ENDBRANCH   1   7
BRANCH   1  18
ATOM     18  C   LIG    1       25.047 -18.771   4.065  0.00  0.00    -0.016 A 
ATOM     19  C   LIG    1       25.176 -20.083   3.581  0.00  0.00    +0.008 A 
ATOM     20  C   LIG    1       24.111 -20.994   3.627  0.00  0.00    +0.001 A 
ATOM     21  C   LIG    1       22.876 -20.608   4.139  0.00  0.00    +0.000 A 
ATOM     22  C   LIG    1       22.715 -19.321   4.619  0.00  0.00    +0.001 A 
ATOM     23  C   LIG    1       23.795 -18.431   4.607  0.00  0.00    +0.008 A 
ENDBRANCH   1  18
BRANCH   2  24
ATOM     24  C   LIG    1       27.754 -19.323   5.513  0.00  0.00    -0.006 A 
ATOM     25  C   LIG    1       29.070 -19.531   5.946  0.00  0.00    +0.009 A 
ATOM     26  C   LIG    1       29.395 -20.660   6.705  0.00  0.00    +0.001 A 
ATOM     27  C   LIG    1       28.404 -21.572   7.062  0.00  0.00    +0.000 A 
ATOM     28  C   LIG    1       27.090 -21.373   6.641  0.00  0.00    +0.001 A 
ATOM     29  C   LIG    1       26.774 -20.270   5.840  0.00  0.00    +0.009 A 
ENDBRANCH   2  24
TORSDOF 9
ENDMDL
MODEL 2
REMARK VINA RESULT:       4.2      1.586      3.902
REMARK  Name = *****
REMARK                            x       y       z     vdW  Elec       q    Type
REMARK                         _______ _______ _______ _____ _____    ______ ____
ROOT
ATOM      1  C   LIG    1       26.270 -17.831   4.384  0.00  0.00    +0.008 C 
ATOM      2  C   LIG    1       24.972 -17.989   4.025  0.00  0.00    +0.056 C 
ATOM      3 CL   LIG    1       24.014 -16.676   3.344  0.00  0.00    -0.082 Cl
ENDROOT
BRANCH   1   7
ATOM      4  C   LIG    1       28.112 -14.022   3.449  0.00  0.00    +0.121 A 
ATOM      5  C   LIG    1       27.121 -14.551   2.615  0.00  0.00    +0.046 A 
ATOM      6  C   LIG    1       26.534 -15.797   2.882  0.00  0.00    +0.012 A 
ATOM      7  C   LIG    1       26.914 -16.519   4.018  0.00  0.00    -0.016 A 
ATOM      8  C   LIG    1       27.915 -15.992   4.846  0.00  0.00    +0.012 A 
ATOM      9  C   LIG    1       28.528 -14.768   4.552  0.00  0.00    +0.046 A 
BRANCH   4  10
ATOM     10  O   LIG    1       28.581 -12.790   3.091  0.00  0.00    -0.491 OA
BRANCH  10  11
ATOM     11  C   LIG    1       27.675 -11.677   3.067  0.00  0.00    +0.244 C 
BRANCH  11  12
ATOM     12  C   LIG    1       26.275 -12.146   2.620  0.00  0.00    +0.125 C 
BRANCH  12  13
ATOM     13  N   LIG    1       25.133 -11.815   3.507  0.00  0.00    -0.300 NA
BRANCH  13  15
ATOM     14  C   LIG    1       23.671 -13.012   1.812  0.00  0.00    +0.020 C 
ATOM     15  C   LIG    1       23.849 -11.825   2.763  0.00  0.00    +0.081 C 
ENDBRANCH  13  15
BRANCH  13  16
ATOM     16  C   LIG    1       25.088 -12.706   4.682  0.00  0.00    +0.081 C 
ATOM     17  C   LIG    1       23.923 -13.691   4.678  0.00  0.00    +0.020 C 
ENDBRANCH  13  16
ENDBRANCH  12  13
ENDBRANCH  11  12
ENDBRANCH  10  11
ENDBRANCH   4  10
ENDBRANCH   1   7
BRANCH   1  18
ATOM     18  C   LIG    1       27.108 -18.907   5.047  0.00  0.00    -0.016 A 
ATOM     19  C   LIG    1       28.494 -18.743   5.199  0.00  0.00    +0.008 A 
ATOM     20  C   LIG    1       29.277 -19.681   5.887  0.00  0.00    +0.001 A 
ATOM     21  C   LIG    1       28.694 -20.826   6.424  0.00  0.00    +0.000 A 
ATOM     22  C   LIG    1       27.333 -21.020   6.286  0.00  0.00    +0.001 A 
ATOM     23  C   LIG    1       26.553 -20.058   5.634  0.00  0.00    +0.008 A 
ENDBRANCH   1  18
BRANCH   2  24
ATOM     24  C   LIG    1       24.159 -19.231   4.085  0.00  0.00    -0.006 A 
ATOM     25  C   LIG    1       23.154 -19.362   5.052  0.00  0.00    +0.009 A 
ATOM     26  C   LIG    1       22.396 -20.535   5.130  0.00  0.00    +0.001 A 
ATOM     27  C   LIG    1       22.616 -21.571   4.225  0.00  0.00    +0.000 A 
ATOM     28  C   LIG    1       23.609 -21.450   3.255  0.00  0.00    +0.001 A 
ATOM     29  C   LIG    1       24.401 -20.298   3.208  0.00  0.00    +0.009 A 
ENDBRANCH   2  24
TORSDOF 9
ENDMDL
MODEL 3
REMARK VINA RESULT:       4.3      3.329      6.838
REMARK  Name = *****
REMARK                            x       y       z     vdW  Elec       q    Type
REMARK                         _______ _______ _______ _____ _____    ______ ____
ROOT
ATOM      1  C   LIG    1       25.916 -16.597   3.916  0.00  0.00    +0.008 C 
ATOM      2  C   LIG    1       25.887 -15.262   3.682  0.00  0.00    +0.056 C 
ATOM      3 CL   LIG    1       24.453 -14.442   3.068  0.00  0.00    -0.082 Cl
ENDROOT
BRANCH   1   7
ATOM      4  C   LIG    1       22.130 -18.688   3.657  0.00  0.00    +0.121 A 
ATOM      5  C   LIG    1       23.286 -19.251   3.106  0.00  0.00    +0.046 A 
ATOM      6  C   LIG    1       24.516 -18.576   3.151  0.00  0.00    +0.012 A 
ATOM      7  C   LIG    1       24.607 -17.333   3.785  0.00  0.00    -0.016 A 
ATOM      8  C   LIG    1       23.445 -16.767   4.326  0.00  0.00    +0.012 A 
ATOM      9  C   LIG    1       22.212 -17.424   4.241  0.00  0.00    +0.046 A 
BRANCH   4  10
ATOM     10  O   LIG    1       21.006 -19.460   3.569  0.00  0.00    -0.491 OA
BRANCH  10  11
ATOM     11  C   LIG    1       20.742 -20.430   4.594  0.00  0.00    +0.244 C 
BRANCH  11  12
ATOM     12  C   LIG    1       21.798 -21.553   4.541  0.00  0.00    +0.125 C 
BRANCH  12  13
ATOM     13  N   LIG    1       22.823 -21.571   5.613  0.00  0.00    -0.300 NA
BRANCH  13  15
ATOM     14  C   LIG    1       25.315 -21.446   6.077  0.00  0.00    +0.020 C 
ATOM     15  C   LIG    1       24.171 -21.256   5.078  0.00  0.00    +0.081 C 
ENDBRANCH  13  15
BRANCH  13  16
ATOM     16  C   LIG    1       22.456 -20.674   6.726  0.00  0.00    +0.081 C 
ATOM     17  C   LIG    1       23.284 -19.395   6.799  0.00  0.00    +0.020 C 
ENDBRANCH  13  16
ENDBRANCH  12  13
ENDBRANCH  11  12
ENDBRANCH  10  11
ENDBRANCH   4  10
ENDBRANCH   1   7
BRANCH   1  18
ATOM     18  C   LIG    1       27.149 -17.357   4.366  0.00  0.00    -0.016 A 
ATOM     19  C   LIG    1       28.347 -16.678   4.638  0.00  0.00    +0.008 A 
ATOM     20  C   LIG    1       29.475 -17.343   5.142  0.00  0.00    +0.001 A 
ATOM     21  C   LIG    1       29.440 -18.717   5.365  0.00  0.00    +0.000 A 
ATOM     22  C   LIG    1       28.277 -19.415   5.101  0.00  0.00    +0.001 A 
ATOM     23  C   LIG    1       27.144 -18.736   4.638  0.00  0.00    +0.008 A 
ENDBRANCH   1  18
BRANCH   2  24
ATOM     24  C   LIG    1       26.970 -14.274   3.923  0.00  0.00    -0.006 A 
ATOM     25  C   LIG    1       27.071 -13.637   5.166  0.00  0.00    +0.009 A 
ATOM     26  C   LIG    1       28.076 -12.691   5.398  0.00  0.00    +0.001 A 
ATOM     27  C   LIG    1       29.002 -12.398   4.399  0.00  0.00    +0.000 A 
ATOM     28  C   LIG    1       28.914 -13.029   3.159  0.00  0.00    +0.001 A 
ATOM     29  C   LIG    1       27.880 -13.937   2.911  0.00  0.00    +0.009 A 
ENDBRANCH   2  24
TORSDOF 9
ENDMDL
