MODEL 1
REMARK VINA RESULT:      -5.1      0.000      0.000
REMARK  Name = *****
REMARK                            x       y       z     vdW  Elec       q    Type
REMARK                         _______ _______ _______ _____ _____    ______ ____
ROOT
ATOM      1  C   LIG    1       25.879 -15.505   3.285  0.00  0.00    +0.307 C 
ATOM      2  O   LIG    1       24.918 -15.091   3.902  0.00  0.00    -0.251 OA
ENDROOT
BRANCH   1   3
ATOM      3  C   LIG    1       26.466 -16.908   3.373  0.00  0.00    +0.120 C 
BRANCH   3   4
ATOM      4  C   LIG    1       25.407 -18.014   3.289  0.00  0.00    +0.011 C 
BRANCH   4   5
ATOM      5  C   LIG    1       25.853 -19.318   3.986  0.00  0.00    +0.000 C 
BRANCH   5   6
ATOM      6  C   LIG    1       24.729 -20.368   4.050  0.00  0.00    -0.000 C 
BRANCH   6   7
ATOM      7  C   LIG    1       24.175 -20.577   5.471  0.00  0.00    -0.000 C 
BRANCH   7   9
ATOM      8  C   LIG    1       22.300 -18.981   4.761  0.00  0.00    +0.004 C 
ATOM      9  C   LIG    1       22.701 -20.168   5.624  0.00  0.00    -0.003 C 
ENDBRANCH   7   9
ENDBRANCH   6   7
ENDBRANCH   5   6
ENDBRANCH   4   5
ENDBRANCH   3   4
ENDBRANCH   1   3
BRANCH   1  10
ATOM     10  O   LIG    1       26.577 -14.781   2.349  0.00  0.00    -0.462 OA
BRANCH  10  11
ATOM     11  C   LIG    1       27.070 -13.509   2.798  0.00  0.00    +0.265 C 
BRANCH  11  12
ATOM     12  C   LIG    1       28.193 -13.669   3.831  0.00  0.00    +0.177 C 
BRANCH  12  13
ATOM     13  O   LIG    1       29.448 -13.242   3.279  0.00  0.00    -0.386 OA
ATOM     14  H   LIG    1       30.114 -13.907   3.530  0.00  0.00    +0.210 HD
ENDBRANCH  12  13
BRANCH  12  15
ATOM     15  C   LIG    1       27.917 -12.839   5.092  0.00  0.00    +0.190 C 
BRANCH  15  16
ATOM     16  O   LIG    1       26.626 -13.152   5.614  0.00  0.00    -0.392 OA
ATOM     17  H   LIG    1       26.002 -12.614   5.089  0.00  0.00    +0.209 HD
ENDBRANCH  15  16
ENDBRANCH  12  15
ENDBRANCH  11  12
ENDBRANCH  10  11
ENDBRANCH   1  10
TORSDOF 12
ENDMDL
MODEL 2
REMARK VINA RESULT:      -5.1      1.617      2.491
REMARK  Name = *****
REMARK                            x       y       z     vdW  Elec       q    Type
REMARK                         _______ _______ _______ _____ _____    ______ ____
ROOT
ATOM      1  C   LIG    1       27.114 -15.169   3.565  0.00  0.00    +0.307 C 
ATOM      2  O   LIG    1       27.798 -14.423   4.238  0.00  0.00    -0.251 OA
ENDROOT
BRANCH   1   3
ATOM      3  C   LIG    1       27.131 -16.692   3.615  0.00  0.00    +0.120 C 
BRANCH   3   4
ATOM      4  C   LIG    1       25.776 -17.324   3.275  0.00  0.00    +0.011 C 
BRANCH   4   5
ATOM      5  C   LIG    1       25.720 -18.830   3.614  0.00  0.00    +0.000 C 
BRANCH   5   6
ATOM      6  C   LIG    1       24.311 -19.423   3.439  0.00  0.00    -0.000 C 
BRANCH   6   7
ATOM      7  C   LIG    1       23.767 -20.082   4.719  0.00  0.00    -0.000 C 
BRANCH   7   9
ATOM      8  C   LIG    1       22.065 -18.178   4.501  0.00  0.00    +0.004 C 
ATOM      9  C   LIG    1       22.454 -19.461   5.222  0.00  0.00    -0.003 C 
ENDBRANCH   7   9
ENDBRANCH   6   7
ENDBRANCH   5   6
ENDBRANCH   4   5
ENDBRANCH   3   4
ENDBRANCH   1   3
BRANCH   1  10
ATOM     10  O   LIG    1       26.156 -14.757   2.670  0.00  0.00    -0.462 OA
BRANCH  10  11
ATOM     11  C   LIG    1       26.118 -13.343   2.419  0.00  0.00    +0.265 C 
BRANCH  11  12
ATOM     12  C   LIG    1       24.758 -12.738   2.789  0.00  0.00    +0.177 C 
BRANCH  12  13
ATOM     13  O   LIG    1       23.767 -13.093   1.812  0.00  0.00    -0.386 OA
ATOM     14  H   LIG    1       22.974 -12.561   2.001  0.00  0.00    +0.210 HD
ENDBRANCH  12  13
BRANCH  12  15
ATOM     15  C   LIG    1       24.278 -13.236   4.159  0.00  0.00    +0.190 C 
BRANCH  15  16
ATOM     16  O   LIG    1       23.645 -14.508   4.027  0.00  0.00    -0.392 OA
ATOM     17  H   LIG    1       22.888 -14.355   3.428  0.00  0.00    +0.209 HD
ENDBRANCH  15  16
ENDBRANCH  12  15
ENDBRANCH  11  12
ENDBRANCH  10  11
ENDBRANCH   1  10
TORSDOF 12
ENDMDL
MODEL 3
REMARK VINA RESULT:      -4.9      1.674      2.427
REMARK  Name = *****
REMARK                            x       y       z     vdW  Elec       q    Type
REMARK                         _______ _______ _______ _____ _____    ______ ____
ROOT
ATOM      1  C   LIG    1       25.925 -15.247   3.231  0.00  0.00    +0.307 C 
ATOM      2  O   LIG    1       26.180 -16.435   3.251  0.00  0.00    -0.251 OA
ENDROOT
BRANCH   1   3
ATOM      3  C   LIG    1       25.028 -14.504   4.214  0.00  0.00    +0.120 C 
BRANCH   3   4
ATOM      4  C   LIG    1       23.536 -14.621   3.880  0.00  0.00    +0.011 C 
BRANCH   4   5
ATOM      5  C   LIG    1       22.820 -15.697   4.724  0.00  0.00    +0.000 C 
BRANCH   5   6
ATOM      6  C   LIG    1       22.934 -17.103   4.110  0.00  0.00    -0.000 C 
BRANCH   6   7
ATOM      7  C   LIG    1       22.082 -18.156   4.840  0.00  0.00    -0.000 C 
BRANCH   7   9
ATOM      8  C   LIG    1       22.958 -20.272   5.992  0.00  0.00    +0.004 C 
ATOM      9  C   LIG    1       22.604 -19.593   4.676  0.00  0.00    -0.003 C 
ENDBRANCH   7   9
ENDBRANCH   6   7
ENDBRANCH   5   6
ENDBRANCH   4   5
ENDBRANCH   3   4
ENDBRANCH   1   3
BRANCH   1  10
ATOM     10  O   LIG    1       26.455 -14.349   2.336  0.00  0.00    -0.462 OA
BRANCH  10  11
ATOM     11  C   LIG    1       27.060 -13.184   2.920  0.00  0.00    +0.265 C 
BRANCH  11  12
ATOM     12  C   LIG    1       28.216 -13.557   3.858  0.00  0.00    +0.177 C 
BRANCH  12  13
ATOM     13  O   LIG    1       29.475 -13.185   3.276  0.00  0.00    -0.386 OA
ATOM     14  H   LIG    1       29.840 -12.463   3.818  0.00  0.00    +0.210 HD
ENDBRANCH  12  13
BRANCH  12  15
ATOM     15  C   LIG    1       28.087 -12.849   5.213  0.00  0.00    +0.190 C 
BRANCH  15  16
ATOM     16  O   LIG    1       29.113 -11.865   5.354  0.00  0.00    -0.392 OA
ATOM     17  H   LIG    1       29.064 -11.329   4.539  0.00  0.00    +0.209 HD
ENDBRANCH  15  16
ENDBRANCH  12  15
ENDBRANCH  11  12
ENDBRANCH  10  11
ENDBRANCH   1  10
TORSDOF 12
ENDMDL
MODEL 4
REMARK VINA RESULT:      -4.9      1.544      2.300
REMARK  Name = *****
REMARK                            x       y       z     vdW  Elec       q    Type
REMARK                         _______ _______ _______ _____ _____    ______ ____
ROOT
ATOM      1  C   LIG    1       26.503 -17.049   3.449  0.00  0.00    +0.307 C 
ATOM      2  O   LIG    1       27.561 -17.095   4.044  0.00  0.00    -0.251 OA
ENDROOT
BRANCH   1   3
ATOM      3  C   LIG    1       25.491 -18.181   3.327  0.00  0.00    +0.120 C 
BRANCH   3   4
ATOM      4  C   LIG    1       25.873 -19.426   4.135  0.00  0.00    +0.011 C 
BRANCH   4   5
ATOM      5  C   LIG    1       24.768 -20.504   4.126  0.00  0.00    +0.000 C 
BRANCH   5   6
ATOM      6  C   LIG    1       24.253 -20.835   5.538  0.00  0.00    -0.000 C 
BRANCH   6   7
ATOM      7  C   LIG    1       22.935 -20.119   5.886  0.00  0.00    -0.000 C 
BRANCH   7   9
ATOM      8  C   LIG    1       22.122 -18.057   4.599  0.00  0.00    +0.004 C 
ATOM      9  C   LIG    1       22.186 -19.577   4.658  0.00  0.00    -0.003 C 
ENDBRANCH   7   9
ENDBRANCH   6   7
ENDBRANCH   5   6
ENDBRANCH   4   5
ENDBRANCH   3   4
ENDBRANCH   1   3
BRANCH   1  10
ATOM     10  O   LIG    1       26.008 -15.931   2.822  0.00  0.00    -0.462 OA
BRANCH  10  11
ATOM     11  C   LIG    1       25.645 -14.848   3.693  0.00  0.00    +0.265 C 
BRANCH  11  12
ATOM     12  C   LIG    1       26.106 -13.494   3.135  0.00  0.00    +0.177 C 
BRANCH  12  13
ATOM     13  O   LIG    1       27.359 -13.634   2.448  0.00  0.00    -0.386 OA
ATOM     14  H   LIG    1       28.020 -13.124   2.950  0.00  0.00    +0.210 HD
ENDBRANCH  12  13
BRANCH  12  15
ATOM     15  C   LIG    1       25.082 -12.916   2.150  0.00  0.00    +0.190 C 
BRANCH  15  16
ATOM     16  O   LIG    1       23.757 -13.121   2.641  0.00  0.00    -0.392 OA
ATOM     17  H   LIG    1       23.871 -13.553   3.509  0.00  0.00    +0.209 HD
ENDBRANCH  15  16
ENDBRANCH  12  15
ENDBRANCH  11  12
ENDBRANCH  10  11
ENDBRANCH   1  10
TORSDOF 12
ENDMDL
MODEL 5
REMARK VINA RESULT:      -4.8      1.782      2.595
REMARK  Name = *****
REMARK                            x       y       z     vdW  Elec       q    Type
REMARK                         _______ _______ _______ _____ _____    ______ ____
ROOT
ATOM      1  C   LIG    1       24.196 -13.789   3.958  0.00  0.00    +0.307 C 
ATOM      2  O   LIG    1       24.013 -12.595   3.832  0.00  0.00    -0.251 OA
ENDROOT
BRANCH   1   3
ATOM      3  C   LIG    1       23.320 -14.753   4.750  0.00  0.00    +0.120 C 
BRANCH   3   4
ATOM      4  C   LIG    1       23.232 -16.149   4.120  0.00  0.00    +0.011 C 
BRANCH   4   5
ATOM      5  C   LIG    1       22.220 -17.064   4.842  0.00  0.00    +0.000 C 
BRANCH   5   6
ATOM      6  C   LIG    1       22.200 -18.492   4.267  0.00  0.00    -0.000 C 
BRANCH   6   7
ATOM      7  C   LIG    1       22.594 -19.566   5.296  0.00  0.00    -0.000 C 
BRANCH   7   9
ATOM      8  C   LIG    1       24.649 -19.687   3.768  0.00  0.00    +0.004 C 
ATOM      9  C   LIG    1       23.935 -20.252   4.988  0.00  0.00    -0.003 C 
ENDBRANCH   7   9
ENDBRANCH   6   7
ENDBRANCH   5   6
ENDBRANCH   4   5
ENDBRANCH   3   4
ENDBRANCH   1   3
BRANCH   1  10
ATOM     10  O   LIG    1       25.209 -14.493   3.353  0.00  0.00    -0.462 OA
BRANCH  10  11
ATOM     11  C   LIG    1       26.373 -13.723   3.014  0.00  0.00    +0.265 C 
BRANCH  11  12
ATOM     12  C   LIG    1       27.494 -13.908   4.045  0.00  0.00    +0.177 C 
BRANCH  12  13
ATOM     13  O   LIG    1       27.937 -15.274   4.067  0.00  0.00    -0.386 OA
ATOM     14  H   LIG    1       27.266 -15.801   3.597  0.00  0.00    +0.210 HD
ENDBRANCH  12  13
BRANCH  12  15
ATOM     15  C   LIG    1       28.703 -13.018   3.725  0.00  0.00    +0.190 C 
BRANCH  15  16
ATOM     16  O   LIG    1       29.035 -12.214   4.857  0.00  0.00    -0.392 OA
ATOM     17  H   LIG    1       28.321 -11.550   4.915  0.00  0.00    +0.209 HD
ENDBRANCH  15  16
ENDBRANCH  12  15
ENDBRANCH  11  12
ENDBRANCH  10  11
ENDBRANCH   1  10
TORSDOF 12
ENDMDL
MODEL 6
REMARK VINA RESULT:      -4.7      3.401      6.611
REMARK  Name = *****
REMARK                            x       y       z     vdW  Elec       q    Type
REMARK                         _______ _______ _______ _____ _____    ______ ____
ROOT
ATOM      1  C   LIG    1       24.957 -18.962   3.664  0.00  0.00    +0.307 C 
ATOM      2  O   LIG    1       23.766 -18.758   3.535  0.00  0.00    -0.251 OA
ENDROOT
BRANCH   1   3
ATOM      3  C   LIG    1       26.078 -17.997   3.298  0.00  0.00    +0.120 C 
BRANCH   3   4
ATOM      4  C   LIG    1       25.645 -16.526   3.324  0.00  0.00    +0.011 C 
BRANCH   4   5
ATOM      5  C   LIG    1       26.840 -15.556   3.449  0.00  0.00    +0.000 C 
BRANCH   5   6
ATOM      6  C   LIG    1       26.413 -14.080   3.376  0.00  0.00    -0.000 C 
BRANCH   6   7
ATOM      7  C   LIG    1       25.597 -13.623   4.599  0.00  0.00    -0.000 C 
BRANCH   7   9
ATOM      8  C   LIG    1       24.126 -12.365   2.918  0.00  0.00    +0.004 C 
ATOM      9  C   LIG    1       24.192 -13.108   4.245  0.00  0.00    -0.003 C 
ENDBRANCH   7   9
ENDBRANCH   6   7
ENDBRANCH   5   6
ENDBRANCH   4   5
ENDBRANCH   3   4
ENDBRANCH   1   3
BRANCH   1  10
ATOM     10  O   LIG    1       25.501 -20.095   4.221  0.00  0.00    -0.462 OA
BRANCH  10  11
ATOM     11  C   LIG    1       24.557 -21.118   4.575  0.00  0.00    +0.265 C 
BRANCH  11  12
ATOM     12  C   LIG    1       24.585 -21.417   6.080  0.00  0.00    +0.177 C 
BRANCH  12  13
ATOM     13  O   LIG    1       25.788 -20.904   6.672  0.00  0.00    -0.386 OA
ATOM     14  H   LIG    1       25.567 -20.043   7.071  0.00  0.00    +0.210 HD
ENDBRANCH  12  13
BRANCH  12  15
ATOM     15  C   LIG    1       23.388 -20.780   6.799  0.00  0.00    +0.190 C 
BRANCH  15  16
ATOM     16  O   LIG    1       22.665 -19.938   5.901  0.00  0.00    -0.392 OA
ATOM     17  H   LIG    1       22.352 -20.532   5.192  0.00  0.00    +0.209 HD
ENDBRANCH  15  16
ENDBRANCH  12  15
ENDBRANCH  11  12
ENDBRANCH  10  11
ENDBRANCH   1  10
TORSDOF 12
ENDMDL
MODEL 7
REMARK VINA RESULT:      -4.7      1.411      2.136
REMARK  Name = *****
REMARK                            x       y       z     vdW  Elec       q    Type
REMARK                         _______ _______ _______ _____ _____    ______ ____
ROOT
ATOM      1  C   LIG    1       25.644 -15.945   3.348  0.00  0.00    +0.307 C 
ATOM      2  O   LIG    1       24.725 -15.355   3.881  0.00  0.00    -0.251 OA
ENDROOT
BRANCH   1   3
ATOM      3  C   LIG    1       25.859 -17.454   3.340  0.00  0.00    +0.120 C 
BRANCH   3   4
ATOM      4  C   LIG    1       24.575 -18.250   3.600  0.00  0.00    +0.011 C 
BRANCH   4   5
ATOM      5  C   LIG    1       24.842 -19.758   3.800  0.00  0.00    +0.000 C 
BRANCH   5   6
ATOM      6  C   LIG    1       26.069 -20.029   4.688  0.00  0.00    -0.000 C 
BRANCH   6   7
ATOM      7  C   LIG    1       25.700 -20.515   6.102  0.00  0.00    -0.000 C 
BRANCH   7   9
ATOM      8  C   LIG    1       28.177 -19.984   6.494  0.00  0.00    +0.004 C 
ATOM      9  C   LIG    1       26.898 -20.585   7.062  0.00  0.00    -0.003 C 
ENDBRANCH   7   9
ENDBRANCH   6   7
ENDBRANCH   5   6
ENDBRANCH   4   5
ENDBRANCH   3   4
ENDBRANCH   1   3
BRANCH   1  10
ATOM     10  O   LIG    1       26.631 -15.344   2.603  0.00  0.00    -0.462 OA
BRANCH  10  11
ATOM     11  C   LIG    1       26.883 -13.966   2.916  0.00  0.00    +0.265 C 
BRANCH  11  12
ATOM     12  C   LIG    1       28.031 -13.815   3.923  0.00  0.00    +0.177 C 
BRANCH  12  13
ATOM     13  O   LIG    1       29.014 -12.891   3.430  0.00  0.00    -0.386 OA
ATOM     14  H   LIG    1       29.085 -12.171   4.083  0.00  0.00    +0.210 HD
ENDBRANCH  12  13
BRANCH  12  15
ATOM     15  C   LIG    1       27.525 -13.298   5.277  0.00  0.00    +0.190 C 
BRANCH  15  16
ATOM     16  O   LIG    1       26.115 -13.082   5.225  0.00  0.00    -0.392 OA
ATOM     17  H   LIG    1       25.953 -12.316   5.808  0.00  0.00    +0.209 HD
ENDBRANCH  15  16
ENDBRANCH  12  15
ENDBRANCH  11  12
ENDBRANCH  10  11
ENDBRANCH   1  10
TORSDOF 12
ENDMDL
MODEL 8
REMARK VINA RESULT:      -4.7      3.819      6.031
REMARK  Name = *****
REMARK                            x       y       z     vdW  Elec       q    Type
REMARK                         _______ _______ _______ _____ _____    ______ ____
ROOT
ATOM      1  C   LIG    1       25.326 -20.465   5.140  0.00  0.00    +0.307 C 
ATOM      2  O   LIG    1       24.423 -20.659   5.929  0.00  0.00    -0.251 OA
ENDROOT
BRANCH   1   3
ATOM      3  C   LIG    1       25.175 -19.985   3.701  0.00  0.00    +0.120 C 
BRANCH   3   4
ATOM      4  C   LIG    1       24.817 -18.498   3.593  0.00  0.00    +0.011 C 
BRANCH   4   5
ATOM      5  C   LIG    1       26.045 -17.611   3.295  0.00  0.00    +0.000 C 
BRANCH   5   6
ATOM      6  C   LIG    1       25.708 -16.109   3.318  0.00  0.00    -0.000 C 
BRANCH   6   7
ATOM      7  C   LIG    1       26.947 -15.212   3.490  0.00  0.00    -0.000 C 
BRANCH   7   9
ATOM      8  C   LIG    1       25.169 -13.639   4.456  0.00  0.00    +0.004 C 
ATOM      9  C   LIG    1       26.625 -13.817   4.049  0.00  0.00    -0.003 C 
ENDBRANCH   7   9
ENDBRANCH   6   7
ENDBRANCH   5   6
ENDBRANCH   4   5
ENDBRANCH   3   4
ENDBRANCH   1   3
BRANCH   1  10
ATOM     10  O   LIG    1       26.662 -20.597   5.434  0.00  0.00    -0.462 OA
BRANCH  10  11
ATOM     11  C   LIG    1       27.046 -20.172   6.751  0.00  0.00    +0.265 C 
BRANCH  11  12
ATOM     12  C   LIG    1       28.564 -20.262   6.955  0.00  0.00    +0.177 C 
BRANCH  12  13
ATOM     13  O   LIG    1       29.086 -21.442   6.327  0.00  0.00    -0.386 OA
ATOM     14  H   LIG    1       29.063 -22.156   6.990  0.00  0.00    +0.210 HD
ENDBRANCH  12  13
BRANCH  12  15
ATOM     15  C   LIG    1       29.282 -19.044   6.360  0.00  0.00    +0.190 C 
BRANCH  15  16
ATOM     16  O   LIG    1       28.747 -18.738   5.073  0.00  0.00    -0.392 OA
ATOM     17  H   LIG    1       27.961 -19.311   4.980  0.00  0.00    +0.209 HD
ENDBRANCH  15  16
ENDBRANCH  12  15
ENDBRANCH  11  12
ENDBRANCH  10  11
ENDBRANCH   1  10
TORSDOF 12
ENDMDL
MODEL 9
REMARK VINA RESULT:      -4.6      1.893      2.628
REMARK  Name = *****
REMARK                            x       y       z     vdW  Elec       q    Type
REMARK                         _______ _______ _______ _____ _____    ______ ____
ROOT
ATOM      1  C   LIG    1       24.148 -13.769   3.941  0.00  0.00    +0.307 C 
ATOM      2  O   LIG    1       23.961 -12.569   3.918  0.00  0.00    -0.251 OA
ENDROOT
BRANCH   1   3
ATOM      3  C   LIG    1       23.267 -14.803   4.630  0.00  0.00    +0.120 C 
BRANCH   3   4
ATOM      4  C   LIG    1       23.490 -16.230   4.115  0.00  0.00    +0.011 C 
BRANCH   4   5
ATOM      5  C   LIG    1       22.397 -17.212   4.591  0.00  0.00    +0.000 C 
BRANCH   5   6
ATOM      6  C   LIG    1       22.698 -18.668   4.194  0.00  0.00    -0.000 C 
BRANCH   6   7
ATOM      7  C   LIG    1       22.457 -19.671   5.337  0.00  0.00    -0.000 C 
BRANCH   7   9
ATOM      8  C   LIG    1       23.740 -21.070   7.059  0.00  0.00    +0.004 C 
ATOM      9  C   LIG    1       23.660 -20.585   5.618  0.00  0.00    -0.003 C 
ENDBRANCH   7   9
ENDBRANCH   6   7
ENDBRANCH   5   6
ENDBRANCH   4   5
ENDBRANCH   3   4
ENDBRANCH   1   3
BRANCH   1  10
ATOM     10  O   LIG    1       25.175 -14.412   3.291  0.00  0.00    -0.462 OA
BRANCH  10  11
ATOM     11  C   LIG    1       26.035 -13.565   2.513  0.00  0.00    +0.265 C 
BRANCH  11  12
ATOM     12  C   LIG    1       27.514 -13.799   2.848  0.00  0.00    +0.177 C 
BRANCH  12  13
ATOM     13  O   LIG    1       28.162 -12.556   3.159  0.00  0.00    -0.386 OA
ATOM     14  H   LIG    1       28.538 -12.212   2.329  0.00  0.00    +0.210 HD
ENDBRANCH  12  13
BRANCH  12  15
ATOM     15  C   LIG    1       27.674 -14.737   4.052  0.00  0.00    +0.190 C 
BRANCH  15  16
ATOM     16  O   LIG    1       27.488 -16.093   3.647  0.00  0.00    -0.392 OA
ATOM     17  H   LIG    1       27.486 -16.070   2.671  0.00  0.00    +0.209 HD
ENDBRANCH  15  16
ENDBRANCH  12  15
ENDBRANCH  11  12
ENDBRANCH  10  11
ENDBRANCH   1  10
TORSDOF 12
ENDMDL
