MODEL 1
REMARK VINA RESULT:      -6.2      0.000      0.000
REMARK  Name = *****
REMARK                            x       y       z     vdW  Elec       q    Type
REMARK                         _______ _______ _______ _____ _____    ______ ____
ROOT
ATOM      1  C   LIG    1       25.010 -28.901   7.461  0.00  0.00    +0.073 C 
ATOM      2  C   LIG    1       24.540 -30.237   8.046  0.00  0.00    +0.166 C 
ATOM      3  O   LIG    1       25.568 -30.698   9.007  0.00  0.00    -0.332 OA
ATOM      4  C   LIG    1       24.808 -31.033  10.177  0.00  0.00    +0.164 C 
ATOM      5  C   LIG    1       23.764 -29.933  10.070  0.00  0.00    +0.162 C 
ATOM      6  C   LIG    1       23.054 -29.923  11.413  0.00  0.00    +0.039 C 
ATOM      7  C   LIG    1       24.350 -29.762  12.236  0.00  0.00    +0.004 C 
ATOM      8  C   LIG    1       24.429 -29.623  13.750  0.00  0.00    +0.002 C 
ATOM      9  C   LIG    1       25.886 -29.154  14.142  0.00  0.00    +0.031 C 
ATOM     10  C   LIG    1       27.035 -29.864  13.318  0.00  0.00    +0.119 C 
ATOM     11  C   LIG    1       26.733 -30.265  11.846  0.00  0.00    +0.042 C 
ATOM     12  C   LIG    1       26.119 -27.582  14.266  0.00  0.00    -0.002 C 
ATOM     13  C   LIG    1       24.870 -26.829  14.737  0.00  0.00    -0.027 C 
ATOM     14  C   LIG    1       24.963 -25.538  15.118  0.00  0.00    +0.049 C 
ATOM     15  C   LIG    1       25.492 -24.716  13.963  0.00  0.00    +0.156 C 
ATOM     16  C   LIG    1       26.558 -25.329  13.061  0.00  0.00    +0.080 C 
ATOM     17  O   LIG    1       25.171 -23.533  13.884  0.00  0.00    -0.293 OA
ATOM     18  C   LIG    1       23.556 -27.264  14.142  0.00  0.00    +0.193 C 
ATOM     19  F   LIG    1       23.531 -27.002  12.807  0.00  0.00    -0.241 F 
ATOM     20  C   LIG    1       27.276 -27.395  15.299  0.00  0.00    +0.016 C 
ATOM     21  C   LIG    1       26.521 -26.865  12.948  0.00  0.00    +0.019 C 
ATOM     22  C   LIG    1       23.332 -28.746  14.364  0.00  0.00    +0.045 C 
ATOM     23  C   LIG    1       25.327 -30.853  11.662  0.00  0.00    +0.012 C 
ATOM     24  C   LIG    1       25.200 -32.186  12.457  0.00  0.00    +0.015 C 
ATOM     25  O   LIG    1       23.276 -30.069   8.761  0.00  0.00    -0.343 OA
ATOM     26  C   LIG    1       24.333 -31.239   6.915  0.00  0.00    +0.073 C 
ENDROOT
BRANCH  10  27
ATOM     27  O   LIG    1       27.440 -31.047  14.017  0.00  0.00    -0.392 OA
ATOM     28  H   LIG    1       28.223 -31.410  13.568  0.00  0.00    +0.210 HD
ENDBRANCH  10  27
BRANCH   4  29
ATOM     29  C   LIG    1       24.256 -32.464   9.914  0.00  0.00    +0.193 C 
ATOM     30  O   LIG    1       23.092 -32.802  10.147  0.00  0.00    -0.292 OA
BRANCH  29  31
ATOM     31  C   LIG    1       25.248 -33.493   9.362  0.00  0.00    +0.233 C 
BRANCH  31  32
ATOM     32  O   LIG    1       26.590 -33.117   9.643  0.00  0.00    -0.387 OA
ATOM     33  H   LIG    1       26.538 -32.418  10.327  0.00  0.00    +0.210 HD
ENDBRANCH  31  32
ENDBRANCH  29  31
ENDBRANCH   4  29
TORSDOF 4
ENDMDL
MODEL 2
REMARK VINA RESULT:      -5.9      2.404      3.042
REMARK  Name = *****
REMARK                            x       y       z     vdW  Elec       q    Type
REMARK                         _______ _______ _______ _____ _____    ______ ____
ROOT
ATOM      1  C   LIG    1       24.567 -28.007   6.869  0.00  0.00    +0.073 C 
ATOM      2  C   LIG    1       24.860 -29.511   6.874  0.00  0.00    +0.166 C 
ATOM      3  O   LIG    1       25.759 -29.794   8.017  0.00  0.00    -0.332 OA
ATOM      4  C   LIG    1       25.129 -30.905   8.672  0.00  0.00    +0.164 C 
ATOM      5  C   LIG    1       23.683 -30.494   8.437  0.00  0.00    +0.162 C 
ATOM      6  C   LIG    1       22.860 -31.387   9.350  0.00  0.00    +0.039 C 
ATOM      7  C   LIG    1       23.636 -31.003  10.629  0.00  0.00    +0.004 C 
ATOM      8  C   LIG    1       23.329 -31.499  12.035  0.00  0.00    +0.002 C 
ATOM      9  C   LIG    1       24.135 -30.619  13.071  0.00  0.00    +0.031 C 
ATOM     10  C   LIG    1       25.614 -30.283  12.618  0.00  0.00    +0.119 C 
ATOM     11  C   LIG    1       25.888 -30.114  11.097  0.00  0.00    +0.042 C 
ATOM     12  C   LIG    1       23.382 -29.342  13.659  0.00  0.00    -0.002 C 
ATOM     13  C   LIG    1       21.868 -29.541  13.770  0.00  0.00    -0.027 C 
ATOM     14  C   LIG    1       21.118 -28.657  14.460  0.00  0.00    +0.049 C 
ATOM     15  C   LIG    1       21.279 -27.283  13.847  0.00  0.00    +0.156 C 
ATOM     16  C   LIG    1       22.651 -26.879  13.317  0.00  0.00    +0.080 C 
ATOM     17  O   LIG    1       20.353 -26.481  13.941  0.00  0.00    -0.293 OA
ATOM     18  C   LIG    1       21.193 -30.242  12.618  0.00  0.00    +0.193 C 
ATOM     19  F   LIG    1       21.276 -29.486  11.490  0.00  0.00    -0.241 F 
ATOM     20  C   LIG    1       23.993 -29.092  15.074  0.00  0.00    +0.016 C 
ATOM     21  C   LIG    1       23.535 -28.040  12.824  0.00  0.00    +0.019 C 
ATOM     22  C   LIG    1       21.835 -31.590  12.363  0.00  0.00    +0.045 C 
ATOM     23  C   LIG    1       25.152 -31.150  10.237  0.00  0.00    +0.012 C 
ATOM     24  C   LIG    1       25.675 -32.580  10.564  0.00  0.00    +0.015 C 
ATOM     25  O   LIG    1       23.626 -30.275   7.053  0.00  0.00    -0.343 OA
ATOM     26  C   LIG    1       25.494 -29.908   5.545  0.00  0.00    +0.073 C 
ENDROOT
BRANCH  10  27
ATOM     27  O   LIG    1       26.488 -31.307  13.107  0.00  0.00    -0.392 OA
ATOM     28  H   LIG    1       26.826 -31.027  13.975  0.00  0.00    +0.210 HD
ENDBRANCH  10  27
BRANCH   4  29
ATOM     29  C   LIG    1       25.574 -32.162   7.871  0.00  0.00    +0.193 C 
ATOM     30  O   LIG    1       24.786 -33.000   7.420  0.00  0.00    -0.292 OA
BRANCH  29  31
ATOM     31  C   LIG    1       27.081 -32.355   7.675  0.00  0.00    +0.233 C 
BRANCH  31  32
ATOM     32  O   LIG    1       27.395 -32.603   6.310  0.00  0.00    -0.387 OA
ATOM     33  H   LIG    1       28.360 -32.460   6.224  0.00  0.00    +0.210 HD
ENDBRANCH  31  32
ENDBRANCH  29  31
ENDBRANCH   4  29
TORSDOF 4
ENDMDL
MODEL 3
REMARK VINA RESULT:      -5.8      1.862      2.722
REMARK  Name = *****
REMARK                            x       y       z     vdW  Elec       q    Type
REMARK                         _______ _______ _______ _____ _____    ______ ____
ROOT
ATOM      1  C   LIG    1       24.389 -26.746   6.541  0.00  0.00    +0.073 C 
ATOM      2  C   LIG    1       24.576 -28.255   6.359  0.00  0.00    +0.166 C 
ATOM      3  O   LIG    1       25.847 -28.637   7.019  0.00  0.00    -0.332 OA
ATOM      4  C   LIG    1       25.480 -29.766   7.825  0.00  0.00    +0.164 C 
ATOM      5  C   LIG    1       24.089 -29.297   8.223  0.00  0.00    +0.162 C 
ATOM      6  C   LIG    1       23.664 -30.218   9.353  0.00  0.00    +0.039 C 
ATOM      7  C   LIG    1       24.913 -29.939  10.216  0.00  0.00    +0.004 C 
ATOM      8  C   LIG    1       25.181 -30.511  11.601  0.00  0.00    +0.002 C 
ATOM      9  C   LIG    1       26.386 -29.723  12.252  0.00  0.00    +0.031 C 
ATOM     10  C   LIG    1       27.567 -29.406  11.247  0.00  0.00    +0.119 C 
ATOM     11  C   LIG    1       27.205 -29.151   9.757  0.00  0.00    +0.042 C 
ATOM     12  C   LIG    1       26.009 -28.462  13.152  0.00  0.00    -0.002 C 
ATOM     13  C   LIG    1       24.663 -28.620  13.866  0.00  0.00    -0.027 C 
ATOM     14  C   LIG    1       24.310 -27.758  14.842  0.00  0.00    +0.049 C 
ATOM     15  C   LIG    1       24.280 -26.354  14.277  0.00  0.00    +0.156 C 
ATOM     16  C   LIG    1       25.336 -25.960  13.249  0.00  0.00    +0.080 C 
ATOM     17  O   LIG    1       23.518 -25.531  14.778  0.00  0.00    -0.293 OA
ATOM     18  C   LIG    1       23.541 -29.227  13.064  0.00  0.00    +0.193 C 
ATOM     19  F   LIG    1       23.196 -28.406  12.036  0.00  0.00    -0.241 F 
ATOM     20  C   LIG    1       27.157 -28.320  14.202  0.00  0.00    +0.016 C 
ATOM     21  C   LIG    1       25.878 -27.116  12.387  0.00  0.00    +0.019 C 
ATOM     22  C   LIG    1       23.948 -30.576  12.509  0.00  0.00    +0.045 C 
ATOM     23  C   LIG    1       26.127 -30.108   9.230  0.00  0.00    +0.012 C 
ATOM     24  C   LIG    1       26.659 -31.572   9.250  0.00  0.00    +0.015 C 
ATOM     25  O   LIG    1       23.484 -28.990   6.995  0.00  0.00    -0.343 OA
ATOM     26  C   LIG    1       24.590 -28.588   4.871  0.00  0.00    +0.073 C 
ENDROOT
BRANCH  10  27
ATOM     27  O   LIG    1       28.508 -30.485  11.288  0.00  0.00    -0.392 OA
ATOM     28  H   LIG    1       28.046 -31.276  11.616  0.00  0.00    +0.210 HD
ENDBRANCH  10  27
BRANCH   4  29
ATOM     29  C   LIG    1       25.491 -30.984   6.858  0.00  0.00    +0.193 C 
ATOM     30  O   LIG    1       26.414 -31.226   6.073  0.00  0.00    -0.292 OA
BRANCH  29  31
ATOM     31  C   LIG    1       24.261 -31.896   6.886  0.00  0.00    +0.233 C 
BRANCH  31  32
ATOM     32  O   LIG    1       23.395 -31.627   5.790  0.00  0.00    -0.387 OA
ATOM     33  H   LIG    1       23.287 -30.654   5.764  0.00  0.00    +0.210 HD
ENDBRANCH  31  32
ENDBRANCH  29  31
ENDBRANCH   4  29
TORSDOF 4
ENDMDL
MODEL 4
REMARK VINA RESULT:      -4.9      3.868      6.945
REMARK  Name = *****
REMARK                            x       y       z     vdW  Elec       q    Type
REMARK                         _______ _______ _______ _____ _____    ______ ____
ROOT
ATOM      1  C   LIG    1       19.007 -32.942   9.621  0.00  0.00    +0.073 C 
ATOM      2  C   LIG    1       19.465 -32.161  10.856  0.00  0.00    +0.166 C 
ATOM      3  O   LIG    1       20.613 -32.885  11.450  0.00  0.00    -0.332 OA
ATOM      4  C   LIG    1       21.595 -31.856  11.640  0.00  0.00    +0.164 C 
ATOM      5  C   LIG    1       21.287 -31.038  10.396  0.00  0.00    +0.162 C 
ATOM      6  C   LIG    1       22.452 -30.075  10.250  0.00  0.00    +0.039 C 
ATOM      7  C   LIG    1       23.529 -31.182  10.272  0.00  0.00    +0.004 C 
ATOM      8  C   LIG    1       25.028 -30.965  10.116  0.00  0.00    +0.002 C 
ATOM      9  C   LIG    1       25.720 -32.363   9.867  0.00  0.00    +0.031 C 
ATOM     10  C   LIG    1       25.145 -33.535  10.761  0.00  0.00    +0.119 C 
ATOM     11  C   LIG    1       23.638 -33.487  11.141  0.00  0.00    +0.042 C 
ATOM     12  C   LIG    1       25.909 -32.804   8.346  0.00  0.00    -0.002 C 
ATOM     13  C   LIG    1       26.118 -31.616   7.402  0.00  0.00    -0.027 C 
ATOM     14  C   LIG    1       26.525 -31.825   6.133  0.00  0.00    +0.049 C 
ATOM     15  C   LIG    1       25.516 -32.702   5.426  0.00  0.00    +0.156 C 
ATOM     16  C   LIG    1       24.848 -33.825   6.213  0.00  0.00    +0.080 C 
ATOM     17  O   LIG    1       25.385 -32.590   4.209  0.00  0.00    -0.293 OA
ATOM     18  C   LIG    1       25.257 -30.403   7.643  0.00  0.00    +0.193 C 
ATOM     19  F   LIG    1       23.950 -30.696   7.409  0.00  0.00    -0.241 F 
ATOM     20  C   LIG    1       27.161 -33.736   8.317  0.00  0.00    +0.016 C 
ATOM     21  C   LIG    1       24.711 -33.576   7.727  0.00  0.00    +0.019 C 
ATOM     22  C   LIG    1       25.410 -29.913   9.069  0.00  0.00    +0.045 C 
ATOM     23  C   LIG    1       23.158 -32.076  11.511  0.00  0.00    +0.012 C 
ATOM     24  C   LIG    1       23.894 -31.584  12.793  0.00  0.00    +0.015 C 
ATOM     25  O   LIG    1       19.904 -30.818  10.483  0.00  0.00    -0.343 OA
ATOM     26  C   LIG    1       18.304 -32.042  11.839  0.00  0.00    +0.073 C 
ENDROOT
BRANCH  10  27
ATOM     27  O   LIG    1       25.899 -33.600  11.977  0.00  0.00    -0.392 OA
ATOM     28  H   LIG    1       26.792 -33.921  11.762  0.00  0.00    +0.210 HD
ENDBRANCH  10  27
BRANCH   4  29
ATOM     29  C   LIG    1       21.206 -31.158  12.976  0.00  0.00    +0.193 C 
ATOM     30  O   LIG    1       20.874 -31.770  13.996  0.00  0.00    -0.292 OA
BRANCH  29  31
ATOM     31  C   LIG    1       21.219 -29.626  12.981  0.00  0.00    +0.233 C 
BRANCH  31  32
ATOM     32  O   LIG    1       19.899 -29.100  12.937  0.00  0.00    -0.387 OA
ATOM     33  H   LIG    1       19.631 -28.963  13.869  0.00  0.00    +0.210 HD
ENDBRANCH  31  32
ENDBRANCH  29  31
ENDBRANCH   4  29
TORSDOF 4
ENDMDL
MODEL 5
REMARK VINA RESULT:      -4.8      3.599      6.884
REMARK  Name = *****
REMARK                            x       y       z     vdW  Elec       q    Type
REMARK                         _______ _______ _______ _____ _____    ______ ____
ROOT
ATOM      1  C   LIG    1       20.759 -26.685  13.501  0.00  0.00    +0.073 C 
ATOM      2  C   LIG    1       20.058 -27.883  14.151  0.00  0.00    +0.166 C 
ATOM      3  O   LIG    1       19.567 -28.763  13.065  0.00  0.00    -0.332 OA
ATOM      4  C   LIG    1       20.028 -30.065  13.455  0.00  0.00    +0.164 C 
ATOM      5  C   LIG    1       21.356 -29.643  14.065  0.00  0.00    +0.162 C 
ATOM      6  C   LIG    1       22.143 -30.931  14.242  0.00  0.00    +0.039 C 
ATOM      7  C   LIG    1       22.004 -31.363  12.766  0.00  0.00    +0.004 C 
ATOM      8  C   LIG    1       22.617 -32.612  12.146  0.00  0.00    +0.002 C 
ATOM      9  C   LIG    1       22.514 -32.500  10.573  0.00  0.00    +0.031 C 
ATOM     10  C   LIG    1       21.138 -31.912  10.057  0.00  0.00    +0.119 C 
ATOM     11  C   LIG    1       20.419 -30.858  10.946  0.00  0.00    +0.042 C 
ATOM     12  C   LIG    1       23.763 -31.854   9.821  0.00  0.00    -0.002 C 
ATOM     13  C   LIG    1       25.093 -32.130  10.530  0.00  0.00    -0.027 C 
ATOM     14  C   LIG    1       26.259 -31.859   9.907  0.00  0.00    +0.049 C 
ATOM     15  C   LIG    1       26.308 -30.387   9.561  0.00  0.00    +0.156 C 
ATOM     16  C   LIG    1       25.021 -29.701   9.113  0.00  0.00    +0.080 C 
ATOM     17  O   LIG    1       27.402 -29.832   9.493  0.00  0.00    -0.293 OA
ATOM     18  C   LIG    1       25.091 -32.024  12.033  0.00  0.00    +0.193 C 
ATOM     19  F   LIG    1       24.851 -30.742  12.417  0.00  0.00    -0.241 F 
ATOM     20  C   LIG    1       23.780 -32.481   8.391  0.00  0.00    +0.016 C 
ATOM     21  C   LIG    1       23.722 -30.308   9.676  0.00  0.00    +0.019 C 
ATOM     22  C   LIG    1       24.035 -32.930  12.632  0.00  0.00    +0.045 C 
ATOM     23  C   LIG    1       20.475 -31.196  12.442  0.00  0.00    +0.012 C 
ATOM     24  C   LIG    1       19.701 -32.520  12.715  0.00  0.00    +0.015 C 
ATOM     25  O   LIG    1       20.995 -28.641  14.978  0.00  0.00    -0.343 OA
ATOM     26  C   LIG    1       18.918 -27.384  15.033  0.00  0.00    +0.073 C 
ENDROOT
BRANCH  10  27
ATOM     27  O   LIG    1       20.226 -32.995   9.843  0.00  0.00    -0.392 OA
ATOM     28  H   LIG    1       20.438 -33.699  10.481  0.00  0.00    +0.210 HD
ENDBRANCH  10  27
BRANCH   4  29
ATOM     29  C   LIG    1       18.985 -30.578  14.491  0.00  0.00    +0.193 C 
ATOM     30  O   LIG    1       19.282 -31.242  15.489  0.00  0.00    -0.292 OA
BRANCH  29  31
ATOM     31  C   LIG    1       17.516 -30.247  14.209  0.00  0.00    +0.233 C 
BRANCH  31  32
ATOM     32  O   LIG    1       17.263 -30.176  12.811  0.00  0.00    -0.387 OA
ATOM     33  H   LIG    1       16.731 -30.969  12.592  0.00  0.00    +0.210 HD
ENDBRANCH  31  32
ENDBRANCH  29  31
ENDBRANCH   4  29
TORSDOF 4
ENDMDL
MODEL 6
REMARK VINA RESULT:      -4.6      3.194      5.483
REMARK  Name = *****
REMARK                            x       y       z     vdW  Elec       q    Type
REMARK                         _______ _______ _______ _____ _____    ______ ____
ROOT
ATOM      1  C   LIG    1       19.338 -28.874  14.579  0.00  0.00    +0.073 C 
ATOM      2  C   LIG    1       19.070 -30.208  13.874  0.00  0.00    +0.166 C 
ATOM      3  O   LIG    1       19.520 -30.076  12.469  0.00  0.00    -0.332 OA
ATOM      4  C   LIG    1       20.326 -31.246  12.264  0.00  0.00    +0.164 C 
ATOM      5  C   LIG    1       20.941 -31.323  13.652  0.00  0.00    +0.162 C 
ATOM      6  C   LIG    1       22.083 -32.317  13.529  0.00  0.00    +0.039 C 
ATOM      7  C   LIG    1       22.764 -31.577  12.358  0.00  0.00    +0.004 C 
ATOM      8  C   LIG    1       24.071 -31.984  11.691  0.00  0.00    +0.002 C 
ATOM      9  C   LIG    1       24.570 -30.792  10.782  0.00  0.00    +0.031 C 
ATOM     10  C   LIG    1       23.417 -30.075   9.969  0.00  0.00    +0.119 C 
ATOM     11  C   LIG    1       22.007 -29.999  10.621  0.00  0.00    +0.042 C 
ATOM     12  C   LIG    1       25.566 -29.748  11.460  0.00  0.00    -0.002 C 
ATOM     13  C   LIG    1       26.463 -30.386  12.526  0.00  0.00    -0.027 C 
ATOM     14  C   LIG    1       27.513 -29.701  13.023  0.00  0.00    +0.049 C 
ATOM     15  C   LIG    1       27.017 -28.420  13.657  0.00  0.00    +0.156 C 
ATOM     16  C   LIG    1       25.862 -27.678  12.992  0.00  0.00    +0.080 C 
ATOM     17  O   LIG    1       27.657 -27.932  14.586  0.00  0.00    -0.293 OA
ATOM     18  C   LIG    1       25.809 -31.381  13.450  0.00  0.00    +0.193 C 
ATOM     19  F   LIG    1       24.877 -30.765  14.226  0.00  0.00    -0.241 F 
ATOM     20  C   LIG    1       26.442 -29.170  10.303  0.00  0.00    +0.016 C 
ATOM     21  C   LIG    1       24.884 -28.562  12.196  0.00  0.00    +0.019 C 
ATOM     22  C   LIG    1       25.146 -32.490  12.660  0.00  0.00    +0.045 C 
ATOM     23  C   LIG    1       21.605 -31.298  11.332  0.00  0.00    +0.012 C 
ATOM     24  C   LIG    1       21.488 -32.457  10.297  0.00  0.00    +0.015 C 
ATOM     25  O   LIG    1       19.828 -31.286  14.506  0.00  0.00    -0.343 OA
ATOM     26  C   LIG    1       17.583 -30.537  13.962  0.00  0.00    +0.073 C 
ENDROOT
BRANCH  10  27
ATOM     27  O   LIG    1       23.276 -30.724   8.700  0.00  0.00    -0.392 OA
ATOM     28  H   LIG    1       24.145 -30.723   8.262  0.00  0.00    +0.210 HD
ENDBRANCH  10  27
BRANCH   4  29
ATOM     29  C   LIG    1       19.318 -32.389  11.947  0.00  0.00    +0.193 C 
ATOM     30  O   LIG    1       19.400 -33.525  12.424  0.00  0.00    -0.292 OA
BRANCH  29  31
ATOM     31  C   LIG    1       18.191 -32.059  10.963  0.00  0.00    +0.233 C 
BRANCH  31  32
ATOM     32  O   LIG    1       18.515 -30.924  10.171  0.00  0.00    -0.387 OA
ATOM     33  H   LIG    1       19.489 -30.932  10.072  0.00  0.00    +0.210 HD
ENDBRANCH  31  32
ENDBRANCH  29  31
ENDBRANCH   4  29
TORSDOF 4
ENDMDL
MODEL 7
REMARK VINA RESULT:      -4.5      3.634      6.582
REMARK  Name = *****
REMARK                            x       y       z     vdW  Elec       q    Type
REMARK                         _______ _______ _______ _____ _____    ______ ____
ROOT
ATOM      1  C   LIG    1       24.909 -29.700   8.376  0.00  0.00    +0.073 C 
ATOM      2  C   LIG    1       25.605 -29.814   9.736  0.00  0.00    +0.166 C 
ATOM      3  O   LIG    1       24.797 -29.062  10.724  0.00  0.00    -0.332 OA
ATOM      4  C   LIG    1       24.655 -29.984  11.814  0.00  0.00    +0.164 C 
ATOM      5  C   LIG    1       24.550 -31.261  10.995  0.00  0.00    +0.162 C 
ATOM      6  C   LIG    1       24.064 -32.322  11.968  0.00  0.00    +0.039 C 
ATOM      7  C   LIG    1       22.825 -31.518  12.417  0.00  0.00    +0.004 C 
ATOM      8  C   LIG    1       21.769 -31.993  13.406  0.00  0.00    +0.002 C 
ATOM      9  C   LIG    1       20.526 -31.020  13.328  0.00  0.00    +0.031 C 
ATOM     10  C   LIG    1       20.912 -29.490  13.205  0.00  0.00    +0.119 C 
ATOM     11  C   LIG    1       22.213 -29.129  12.434  0.00  0.00    +0.042 C 
ATOM     12  C   LIG    1       19.363 -31.430  12.318  0.00  0.00    -0.002 C 
ATOM     13  C   LIG    1       19.217 -32.947  12.160  0.00  0.00    -0.027 C 
ATOM     14  C   LIG    1       18.139 -33.460  11.533  0.00  0.00    +0.049 C 
ATOM     15  C   LIG    1       18.082 -32.922  10.120  0.00  0.00    +0.156 C 
ATOM     16  C   LIG    1       18.496 -31.475   9.875  0.00  0.00    +0.080 C 
ATOM     17  O   LIG    1       17.555 -33.607   9.246  0.00  0.00    -0.293 OA
ATOM     18  C   LIG    1       20.494 -33.742  12.065  0.00  0.00    +0.193 C 
ATOM     19  F   LIG    1       21.166 -33.423  10.926  0.00  0.00    -0.241 F 
ATOM     20  C   LIG    1       18.047 -30.825  12.903  0.00  0.00    +0.016 C 
ATOM     21  C   LIG    1       19.535 -30.911  10.863  0.00  0.00    +0.019 C 
ATOM     22  C   LIG    1       21.384 -33.469  13.260  0.00  0.00    +0.045 C 
ATOM     23  C   LIG    1       23.377 -30.081  12.742  0.00  0.00    +0.012 C 
ATOM     24  C   LIG    1       23.775 -29.965  14.244  0.00  0.00    +0.015 C 
ATOM     25  O   LIG    1       25.677 -31.211  10.161  0.00  0.00    -0.343 OA
ATOM     26  C   LIG    1       27.022 -29.261   9.627  0.00  0.00    +0.073 C 
ENDROOT
BRANCH  10  27
ATOM     27  O   LIG    1       21.016 -28.934  14.520  0.00  0.00    -0.392 OA
ATOM     28  H   LIG    1       21.603 -28.160  14.475  0.00  0.00    +0.210 HD
ENDBRANCH  10  27
BRANCH   4  29
ATOM     29  C   LIG    1       25.972 -29.858  12.633  0.00  0.00    +0.193 C 
ATOM     30  O   LIG    1       26.669 -30.824  12.962  0.00  0.00    -0.292 OA
BRANCH  29  31
ATOM     31  C   LIG    1       26.382 -28.446  13.065  0.00  0.00    +0.233 C 
BRANCH  31  32
ATOM     32  O   LIG    1       27.775 -28.234  12.875  0.00  0.00    -0.387 OA
ATOM     33  H   LIG    1       27.952 -27.317  13.171  0.00  0.00    +0.210 HD
ENDBRANCH  31  32
ENDBRANCH  29  31
ENDBRANCH   4  29
TORSDOF 4
ENDMDL
MODEL 8
REMARK VINA RESULT:      -4.5      2.425      7.026
REMARK  Name = *****
REMARK                            x       y       z     vdW  Elec       q    Type
REMARK                         _______ _______ _______ _____ _____    ______ ____
ROOT
ATOM      1  C   LIG    1       26.660 -27.031  12.106  0.00  0.00    +0.073 C 
ATOM      2  C   LIG    1       25.787 -27.697  13.175  0.00  0.00    +0.166 C 
ATOM      3  O   LIG    1       24.463 -27.974  12.571  0.00  0.00    -0.332 OA
ATOM      4  C   LIG    1       24.220 -29.347  12.910  0.00  0.00    +0.164 C 
ATOM      5  C   LIG    1       25.651 -29.848  12.793  0.00  0.00    +0.162 C 
ATOM      6  C   LIG    1       25.546 -31.364  12.797  0.00  0.00    +0.039 C 
ATOM      7  C   LIG    1       24.545 -31.421  11.622  0.00  0.00    +0.004 C 
ATOM      8  C   LIG    1       23.985 -32.690  10.995  0.00  0.00    +0.002 C 
ATOM      9  C   LIG    1       23.273 -32.313   9.635  0.00  0.00    +0.031 C 
ATOM     10  C   LIG    1       22.423 -30.980   9.702  0.00  0.00    +0.119 C 
ATOM     11  C   LIG    1       22.919 -29.847  10.643  0.00  0.00    +0.042 C 
ATOM     12  C   LIG    1       24.168 -32.390   8.318  0.00  0.00    -0.002 C 
ATOM     13  C   LIG    1       25.250 -33.472   8.394  0.00  0.00    -0.027 C 
ATOM     14  C   LIG    1       25.932 -33.825   7.285  0.00  0.00    +0.049 C 
ATOM     15  C   LIG    1       26.644 -32.611   6.731  0.00  0.00    +0.156 C 
ATOM     16  C   LIG    1       25.941 -31.259   6.803  0.00  0.00    +0.080 C 
ATOM     17  O   LIG    1       27.686 -32.772   6.100  0.00  0.00    -0.293 OA
ATOM     18  C   LIG    1       25.981 -33.604   9.705  0.00  0.00    +0.193 C 
ATOM     19  F   LIG    1       26.712 -32.484   9.954  0.00  0.00    -0.241 F 
ATOM     20  C   LIG    1       23.185 -32.700   7.144  0.00  0.00    +0.016 C 
ATOM     21  C   LIG    1       24.950 -31.093   7.970  0.00  0.00    +0.019 C 
ATOM     22  C   LIG    1       25.005 -33.824  10.842  0.00  0.00    +0.045 C 
ATOM     23  C   LIG    1       23.435 -30.370  11.991  0.00  0.00    +0.012 C 
ATOM     24  C   LIG    1       22.272 -31.042  12.780  0.00  0.00    +0.015 C 
ATOM     25  O   LIG    1       26.376 -28.964  13.605  0.00  0.00    -0.343 OA
ATOM     26  C   LIG    1       25.674 -26.773  14.384  0.00  0.00    +0.073 C 
ENDROOT
BRANCH  10  27
ATOM     27  O   LIG    1       21.082 -31.308  10.085  0.00  0.00    -0.392 OA
ATOM     28  H   LIG    1       20.786 -30.651  10.739  0.00  0.00    +0.210 HD
ENDBRANCH  10  27
BRANCH   4  29
ATOM     29  C   LIG    1       23.670 -29.320  14.366  0.00  0.00    +0.193 C 
ATOM     30  O   LIG    1       23.997 -30.134  15.235  0.00  0.00    -0.292 OA
BRANCH  29  31
ATOM     31  C   LIG    1       22.648 -28.228  14.695  0.00  0.00    +0.233 C 
BRANCH  31  32
ATOM     32  O   LIG    1       21.934 -27.824  13.534  0.00  0.00    -0.387 OA
ATOM     33  H   LIG    1       21.018 -28.152  13.651  0.00  0.00    +0.210 HD
ENDBRANCH  31  32
ENDBRANCH  29  31
ENDBRANCH   4  29
TORSDOF 4
ENDMDL
MODEL 9
REMARK VINA RESULT:      -4.3      3.714      4.930
REMARK  Name = *****
REMARK                            x       y       z     vdW  Elec       q    Type
REMARK                         _______ _______ _______ _____ _____    ______ ____
ROOT
ATOM      1  C   LIG    1       24.386 -28.471   6.712  0.00  0.00    +0.073 C 
ATOM      2  C   LIG    1       24.841 -29.883   6.330  0.00  0.00    +0.166 C 
ATOM      3  O   LIG    1       25.649 -30.418   7.451  0.00  0.00    -0.332 OA
ATOM      4  C   LIG    1       25.084 -31.717   7.682  0.00  0.00    +0.164 C 
ATOM      5  C   LIG    1       23.632 -31.369   7.392  0.00  0.00    +0.162 C 
ATOM      6  C   LIG    1       22.827 -32.550   7.905  0.00  0.00    +0.039 C 
ATOM      7  C   LIG    1       23.426 -32.498   9.328  0.00  0.00    +0.004 C 
ATOM      8  C   LIG    1       23.039 -33.406  10.487  0.00  0.00    +0.002 C 
ATOM      9  C   LIG    1       23.638 -32.807  11.822  0.00  0.00    +0.031 C 
ATOM     10  C   LIG    1       25.107 -32.241  11.672  0.00  0.00    +0.119 C 
ATOM     11  C   LIG    1       25.509 -31.613  10.307  0.00  0.00    +0.042 C 
ATOM     12  C   LIG    1       22.694 -31.820  12.645  0.00  0.00    -0.002 C 
ATOM     13  C   LIG    1       21.207 -32.160  12.504  0.00  0.00    -0.027 C 
ATOM     14  C   LIG    1       20.301 -31.577  13.315  0.00  0.00    +0.049 C 
ATOM     15  C   LIG    1       20.368 -30.076  13.139  0.00  0.00    +0.156 C 
ATOM     16  C   LIG    1       21.732 -29.429  12.922  0.00  0.00    +0.080 C 
ATOM     17  O   LIG    1       19.354 -29.411  13.338  0.00  0.00    -0.293 OA
ATOM     18  C   LIG    1       20.731 -32.543  11.126  0.00  0.00    +0.193 C 
ATOM     19  F   LIG    1       20.840 -31.487  10.277  0.00  0.00    -0.241 F 
ATOM     20  C   LIG    1       23.131 -31.949  14.139  0.00  0.00    +0.016 C 
ATOM     21  C   LIG    1       22.783 -30.324  12.238  0.00  0.00    +0.019 C 
ATOM     22  C   LIG    1       21.539 -33.704  10.585  0.00  0.00    +0.045 C 
ATOM     23  C   LIG    1       24.980 -32.406   9.104  0.00  0.00    +0.012 C 
ATOM     24  C   LIG    1       25.623 -33.825   9.078  0.00  0.00    +0.015 C 
ATOM     25  O   LIG    1       23.687 -30.759   6.130  0.00  0.00    -0.343 OA
ATOM     26  C   LIG    1       25.643 -29.824   5.034  0.00  0.00    +0.073 C 
ENDROOT
BRANCH  10  27
ATOM     27  O   LIG    1       26.037 -33.292  11.958  0.00  0.00    -0.392 OA
ATOM     28  H   LIG    1       26.937 -32.932  11.867  0.00  0.00    +0.210 HD
ENDBRANCH  10  27
BRANCH   4  29
ATOM     29  C   LIG    1       25.742 -32.646   6.622  0.00  0.00    +0.193 C 
ATOM     30  O   LIG    1       26.952 -32.650   6.372  0.00  0.00    -0.292 OA
BRANCH  29  31
ATOM     31  C   LIG    1       24.804 -33.574   5.843  0.00  0.00    +0.233 C 
BRANCH  31  32
ATOM     32  O   LIG    1       24.549 -33.071   4.538  0.00  0.00    -0.387 OA
ATOM     33  H   LIG    1       23.617 -32.768   4.542  0.00  0.00    +0.210 HD
ENDBRANCH  31  32
ENDBRANCH  29  31
ENDBRANCH   4  29
TORSDOF 4
ENDMDL
