MODEL 1
REMARK VINA RESULT:       4.0      0.000      0.000
REMARK  Name = *****
REMARK                            x       y       z     vdW  Elec       q    Type
REMARK                         _______ _______ _______ _____ _____    ______ ____
ROOT
ATOM      1  C   LIG    1       24.413 -13.452   4.292  0.00  0.00    +0.132 C 
ATOM      2  C   LIG    1       23.910 -14.918   4.595  0.00  0.00    +0.017 C 
ATOM      3  C   LIG    1       25.164 -15.828   4.326  0.00  0.00    +0.003 C 
ATOM      4  C   LIG    1       24.920 -16.971   3.301  0.00  0.00    +0.001 C 
ATOM      5  C   LIG    1       23.644 -17.786   3.657  0.00  0.00    +0.025 C 
ATOM      6  C   LIG    1       22.441 -16.839   3.686  0.00  0.00    -0.072 C 
ATOM      7  C   LIG    1       21.171 -17.260   3.561  0.00  0.00    +0.008 C 
ATOM      8  C   LIG    1       23.872 -18.665   4.942  0.00  0.00    +0.022 C 
ATOM      9  C   LIG    1       25.157 -19.488   4.834  0.00  0.00    -0.070 C 
ATOM     10  C   LIG    1       25.220 -20.794   5.154  0.00  0.00    -0.027 C 
ATOM     11  C   LIG    1       24.071 -21.571   5.718  0.00  0.00    +0.027 C 
ATOM     12  C   LIG    1       22.973 -20.662   6.256  0.00  0.00    +0.005 C 
ATOM     13  C   LIG    1       26.393 -18.750   4.386  0.00  0.00    +0.031 C 
ATOM     14  C   LIG    1       22.651 -19.560   5.253  0.00  0.00    +0.009 C 
ATOM     15  C   LIG    1       26.129 -17.910   3.144  0.00  0.00    +0.009 C 
ATOM     16  C   LIG    1       26.296 -14.884   3.896  0.00  0.00    +0.008 C 
ATOM     17  C   LIG    1       22.732 -15.347   3.676  0.00  0.00    +0.041 C 
ATOM     18  C   LIG    1       25.931 -13.540   4.502  0.00  0.00    +0.049 C 
ENDROOT
BRANCH   1  20
ATOM     19  C   LIG    1       23.935 -12.546   1.812  0.00  0.00    +0.007 C 
ATOM     20  C   LIG    1       24.146 -12.968   2.917  0.00  0.00    -0.070 C 
ENDBRANCH   1  20
BRANCH   1  21
ATOM     21  O   LIG    1       23.855 -12.497   5.183  0.00  0.00    -0.376 OA
ATOM     22  H   LIG    1       24.252 -11.637   4.965  0.00  0.00    +0.211 HD
ENDBRANCH   1  21
BRANCH   2  23
ATOM     23  C   LIG    1       23.393 -15.069   6.074  0.00  0.00    +0.008 C 
ATOM     24  C   LIG    1       21.890 -15.178   6.310  0.00  0.00    +0.004 C 
ENDBRANCH   2  23
TORSDOF 3
ENDMDL
MODEL 2
REMARK VINA RESULT:       4.7      2.166      5.801
REMARK  Name = *****
REMARK                            x       y       z     vdW  Elec       q    Type
REMARK                         _______ _______ _______ _____ _____    ______ ____
ROOT
ATOM      1  C   LIG    1       22.896 -19.868   4.277  0.00  0.00    +0.132 C 
ATOM      2  C   LIG    1       22.926 -18.310   4.025  0.00  0.00    +0.017 C 
ATOM      3  C   LIG    1       24.412 -18.006   3.608  0.00  0.00    +0.003 C 
ATOM      4  C   LIG    1       25.116 -16.926   4.476  0.00  0.00    +0.001 C 
ATOM      5  C   LIG    1       24.245 -15.642   4.594  0.00  0.00    +0.025 C 
ATOM      6  C   LIG    1       22.892 -16.014   5.209  0.00  0.00    -0.072 C 
ATOM      7  C   LIG    1       22.086 -15.120   5.808  0.00  0.00    +0.008 C 
ATOM      8  C   LIG    1       24.200 -14.858   3.231  0.00  0.00    +0.022 C 
ATOM      9  C   LIG    1       25.605 -14.639   2.668  0.00  0.00    -0.070 C 
ATOM     10  C   LIG    1       26.023 -13.455   2.181  0.00  0.00    -0.027 C 
ATOM     11  C   LIG    1       25.148 -12.245   2.063  0.00  0.00    +0.027 C 
ATOM     12  C   LIG    1       23.669 -12.595   2.174  0.00  0.00    +0.005 C 
ATOM     13  C   LIG    1       26.515 -15.841   2.638  0.00  0.00    +0.031 C 
ATOM     14  C   LIG    1       23.425 -13.527   3.355  0.00  0.00    +0.009 C 
ATOM     15  C   LIG    1       26.526 -16.571   3.975  0.00  0.00    +0.009 C 
ATOM     16  C   LIG    1       25.149 -19.353   3.635  0.00  0.00    +0.008 C 
ATOM     17  C   LIG    1       22.550 -17.492   5.293  0.00  0.00    +0.041 C 
ATOM     18  C   LIG    1       24.062 -20.394   3.429  0.00  0.00    +0.049 C 
ENDROOT
BRANCH   1  20
ATOM     19  C   LIG    1       23.298 -20.627   6.819  0.00  0.00    +0.007 C 
ATOM     20  C   LIG    1       23.103 -20.281   5.685  0.00  0.00    -0.070 C 
ENDBRANCH   1  20
BRANCH   1  21
ATOM     21  O   LIG    1       21.678 -20.459   3.847  0.00  0.00    -0.376 OA
ATOM     22  H   LIG    1       21.901 -21.094   3.146  0.00  0.00    +0.211 HD
ENDBRANCH   1  21
BRANCH   2  23
ATOM     23  C   LIG    1       21.911 -17.874   2.904  0.00  0.00    +0.008 C 
ATOM     24  C   LIG    1       20.418 -18.010   3.184  0.00  0.00    +0.004 C 
ENDBRANCH   2  23
TORSDOF 3
ENDMDL
