MODEL 1
REMARK VINA RESULT:      -9.0      0.000      0.000
REMARK  Name = *****
REMARK                            x       y       z     vdW  Elec       q    Type
REMARK                         _______ _______ _______ _____ _____    ______ ____
ROOT
ATOM      1  C   LIG    1       30.306 -19.152   7.637  0.00  0.00    +0.057 A 
ATOM      2  C   LIG    1       29.771 -20.443   7.793  0.00  0.00    +0.048 A 
ATOM      3  C   LIG    1       28.813 -20.902   6.881  0.00  0.00    +0.047 A 
ATOM      4  C   LIG    1       28.247 -20.060   5.916  0.00  0.00    +0.029 A 
ATOM      5  C   LIG    1       28.780 -18.774   5.788  0.00  0.00    +0.025 A 
ATOM      6  C   LIG    1       29.807 -18.324   6.630  0.00  0.00    +0.027 A 
ENDROOT
BRANCH   1   8
ATOM      7  C   LIG    1       31.228 -18.242   9.770  0.00  0.00    +0.405 C 
ATOM      8  N   LIG    1       31.331 -18.777   8.515  0.00  0.00    -0.249 N 
ATOM      9  H   LIG    1       32.277 -18.838   8.181  0.00  0.00    +0.158 HD
ATOM     10  O   LIG    1       30.210 -17.983  10.388  0.00  0.00    -0.226 OA
BRANCH   7  11
ATOM     11  O   LIG    1       32.478 -18.030  10.252  0.00  0.00    -0.450 OA
BRANCH  11  13
ATOM     12  C   LIG    1       32.877 -15.693   9.834  0.00  0.00    +0.048 C 
ATOM     13  C   LIG    1       32.686 -16.764  10.892  0.00  0.00    +0.230 C 
ENDBRANCH  11  13
ENDBRANCH   7  11
ENDBRANCH   1   8
BRANCH   2  14
ATOM     14  N   LIG    1       30.277 -21.341   8.764  0.00  0.00    -0.356 N 
ATOM     15  H   LIG    1       30.824 -20.864   9.473  0.00  0.00    +0.142 HD
ATOM     16  H   LIG    1       29.543 -21.890   9.202  0.00  0.00    +0.142 HD
ENDBRANCH   2  14
BRANCH   4  17
ATOM     17  N   LIG    1       27.252 -20.468   5.019  0.00  0.00    -0.340 N 
ATOM     18  H   LIG    1       27.046 -19.739   4.338  0.00  0.00    +0.146 HD
BRANCH  17  19
ATOM     19  C   LIG    1       26.062 -21.124   5.539  0.00  0.00    +0.137 C 
BRANCH  19  20
ATOM     20  C   LIG    1       24.824 -20.364   5.138  0.00  0.00    -0.030 A 
ATOM     21  C   LIG    1       23.657 -20.434   5.915  0.00  0.00    +0.008 A 
ATOM     22  C   LIG    1       22.512 -19.736   5.528  0.00  0.00    +0.039 A 
ATOM     23  C   LIG    1       22.535 -18.967   4.370  0.00  0.00    +0.123 A 
ATOM     24  F   LIG    1       21.435 -18.298   4.002  0.00  0.00    -0.205 F 
ATOM     25  C   LIG    1       23.682 -18.878   3.592  0.00  0.00    +0.039 A 
ATOM     26  C   LIG    1       24.827 -19.574   3.976  0.00  0.00    +0.008 A 
ENDBRANCH  19  20
ENDBRANCH  17  19
ENDBRANCH   4  17
TORSDOF 7
ENDMDL
MODEL 2
REMARK VINA RESULT:      -8.8      3.949      8.087
REMARK  Name = *****
REMARK                            x       y       z     vdW  Elec       q    Type
REMARK                         _______ _______ _______ _____ _____    ______ ____
ROOT
ATOM      1  C   LIG    1       26.361 -21.074   6.547  0.00  0.00    +0.057 A 
ATOM      2  C   LIG    1       27.144 -20.246   5.723  0.00  0.00    +0.048 A 
ATOM      3  C   LIG    1       28.505 -20.086   6.010  0.00  0.00    +0.047 A 
ATOM      4  C   LIG    1       29.078 -20.587   7.185  0.00  0.00    +0.029 A 
ATOM      5  C   LIG    1       28.278 -21.392   8.001  0.00  0.00    +0.025 A 
ATOM      6  C   LIG    1       26.936 -21.646   7.683  0.00  0.00    +0.027 A 
ENDROOT
BRANCH   1   8
ATOM      7  C   LIG    1       23.887 -21.026   6.867  0.00  0.00    +0.405 C 
ATOM      8  N   LIG    1       25.030 -21.281   6.161  0.00  0.00    -0.249 N 
ATOM      9  H   LIG    1       24.866 -21.734   5.279  0.00  0.00    +0.158 HD
ATOM     10  O   LIG    1       23.792 -20.558   7.989  0.00  0.00    -0.226 OA
BRANCH   7  11
ATOM     11  O   LIG    1       22.822 -21.385   6.107  0.00  0.00    -0.450 OA
BRANCH  11  13
ATOM     12  C   LIG    1       22.376 -19.305   4.982  0.00  0.00    +0.048 C 
ATOM     13  C   LIG    1       22.749 -20.766   4.816  0.00  0.00    +0.230 C 
ENDBRANCH  11  13
ENDBRANCH   7  11
ENDBRANCH   1   8
BRANCH   2  14
ATOM     14  N   LIG    1       26.626 -19.685   4.530  0.00  0.00    -0.356 N 
ATOM     15  H   LIG    1       26.252 -18.753   4.682  0.00  0.00    +0.142 HD
ATOM     16  H   LIG    1       27.312 -19.667   3.781  0.00  0.00    +0.142 HD
ENDBRANCH   2  14
BRANCH   4  17
ATOM     17  N   LIG    1       30.422 -20.404   7.530  0.00  0.00    -0.340 N 
ATOM     18  H   LIG    1       30.614 -20.750   8.470  0.00  0.00    +0.146 HD
BRANCH  17  19
ATOM     19  C   LIG    1       31.054 -19.124   7.250  0.00  0.00    +0.137 C 
BRANCH  19  20
ATOM     20  C   LIG    1       31.127 -18.286   8.501  0.00  0.00    -0.030 A 
ATOM     21  C   LIG    1       30.042 -18.231   9.390  0.00  0.00    +0.008 A 
ATOM     22  C   LIG    1       30.116 -17.442  10.539  0.00  0.00    +0.039 A 
ATOM     23  C   LIG    1       31.272 -16.716  10.801  0.00  0.00    +0.123 A 
ATOM     24  F   LIG    1       31.340 -15.961  11.905  0.00  0.00    -0.205 F 
ATOM     25  C   LIG    1       32.359 -16.764   9.938  0.00  0.00    +0.039 A 
ATOM     26  C   LIG    1       32.289 -17.551   8.789  0.00  0.00    +0.008 A 
ENDBRANCH  19  20
ENDBRANCH  17  19
ENDBRANCH   4  17
TORSDOF 7
ENDMDL
MODEL 3
REMARK VINA RESULT:      -8.8      1.359      2.123
REMARK  Name = *****
REMARK                            x       y       z     vdW  Elec       q    Type
REMARK                         _______ _______ _______ _____ _____    ______ ____
ROOT
ATOM      1  C   LIG    1       29.534 -19.119   7.497  0.00  0.00    +0.057 A 
ATOM      2  C   LIG    1       29.125 -19.105   6.152  0.00  0.00    +0.048 A 
ATOM      3  C   LIG    1       28.109 -19.975   5.737  0.00  0.00    +0.047 A 
ATOM      4  C   LIG    1       27.602 -20.974   6.576  0.00  0.00    +0.029 A 
ATOM      5  C   LIG    1       28.034 -20.982   7.906  0.00  0.00    +0.025 A 
ATOM      6  C   LIG    1       28.982 -20.058   8.369  0.00  0.00    +0.027 A 
ENDROOT
BRANCH   1   8
ATOM      7  C   LIG    1       31.631 -18.343   8.604  0.00  0.00    +0.405 C 
ATOM      8  N   LIG    1       30.482 -18.162   7.884  0.00  0.00    -0.249 N 
ATOM      9  H   LIG    1       30.286 -17.200   7.673  0.00  0.00    +0.158 HD
ATOM     10  O   LIG    1       32.071 -19.385   9.058  0.00  0.00    -0.226 OA
BRANCH   7  11
ATOM     11  O   LIG    1       32.242 -17.139   8.749  0.00  0.00    -0.450 OA
BRANCH  11  13
ATOM     12  C   LIG    1       31.321 -16.494  10.877  0.00  0.00    +0.048 C 
ATOM     13  C   LIG    1       32.588 -16.782  10.093  0.00  0.00    +0.230 C 
ENDBRANCH  11  13
ENDBRANCH   7  11
ENDBRANCH   1   8
BRANCH   2  14
ATOM     14  N   LIG    1       29.614 -18.139   5.238  0.00  0.00    -0.356 N 
ATOM     15  H   LIG    1       29.031 -17.309   5.218  0.00  0.00    +0.142 HD
ATOM     16  H   LIG    1       30.579 -17.882   5.428  0.00  0.00    +0.142 HD
ENDBRANCH   2  14
BRANCH   4  17
ATOM     17  N   LIG    1       26.622 -21.893   6.181  0.00  0.00    -0.340 N 
ATOM     18  H   LIG    1       26.637 -22.041   5.173  0.00  0.00    +0.146 HD
BRANCH  17  19
ATOM     19  C   LIG    1       25.278 -21.766   6.724  0.00  0.00    +0.137 C 
BRANCH  19  20
ATOM     20  C   LIG    1       24.440 -20.866   5.851  0.00  0.00    -0.030 A 
ATOM     21  C   LIG    1       24.866 -20.523   4.559  0.00  0.00    +0.008 A 
ATOM     22  C   LIG    1       24.089 -19.679   3.764  0.00  0.00    +0.039 A 
ATOM     23  C   LIG    1       22.887 -19.185   4.258  0.00  0.00    +0.123 A 
ATOM     24  F   LIG    1       22.143 -18.376   3.492  0.00  0.00    -0.205 F 
ATOM     25  C   LIG    1       22.444 -19.519   5.531  0.00  0.00    +0.039 A 
ATOM     26  C   LIG    1       23.218 -20.362   6.327  0.00  0.00    +0.008 A 
ENDBRANCH  19  20
ENDBRANCH  17  19
ENDBRANCH   4  17
TORSDOF 7
ENDMDL
MODEL 4
REMARK VINA RESULT:      -8.7      3.204      4.083
REMARK  Name = *****
REMARK                            x       y       z     vdW  Elec       q    Type
REMARK                         _______ _______ _______ _____ _____    ______ ____
ROOT
ATOM      1  C   LIG    1       29.470 -19.057   7.512  0.00  0.00    +0.057 A 
ATOM      2  C   LIG    1       29.213 -19.049   6.129  0.00  0.00    +0.048 A 
ATOM      3  C   LIG    1       28.066 -19.687   5.643  0.00  0.00    +0.047 A 
ATOM      4  C   LIG    1       27.253 -20.476   6.465  0.00  0.00    +0.029 A 
ATOM      5  C   LIG    1       27.535 -20.486   7.834  0.00  0.00    +0.025 A 
ATOM      6  C   LIG    1       28.624 -19.776   8.359  0.00  0.00    +0.027 A 
ENDROOT
BRANCH   1   8
ATOM      7  C   LIG    1       31.651 -18.753   8.685  0.00  0.00    +0.405 C 
ATOM      8  N   LIG    1       30.575 -18.321   7.959  0.00  0.00    -0.249 N 
ATOM      9  H   LIG    1       30.573 -17.330   7.794  0.00  0.00    +0.158 HD
ATOM     10  O   LIG    1       31.872 -19.880   9.092  0.00  0.00    -0.226 OA
BRANCH   7  11
ATOM     11  O   LIG    1       32.478 -17.698   8.898  0.00  0.00    -0.450 OA
BRANCH  11  13
ATOM     12  C   LIG    1       31.569 -16.872  10.968  0.00  0.00    +0.048 C 
ATOM     13  C   LIG    1       31.872 -16.555   9.515  0.00  0.00    +0.230 C 
ENDBRANCH  11  13
ENDBRANCH   7  11
ENDBRANCH   1   8
BRANCH   2  14
ATOM     14  N   LIG    1       30.008 -18.293   5.233  0.00  0.00    -0.356 N 
ATOM     15  H   LIG    1       30.376 -18.864   4.480  0.00  0.00    +0.142 HD
ATOM     16  H   LIG    1       29.507 -17.495   4.852  0.00  0.00    +0.142 HD
ENDBRANCH   2  14
BRANCH   4  17
ATOM     17  N   LIG    1       26.127 -21.170   6.005  0.00  0.00    -0.340 N 
ATOM     18  H   LIG    1       25.690 -20.688   5.220  0.00  0.00    +0.146 HD
BRANCH  17  19
ATOM     19  C   LIG    1       25.167 -21.676   6.974  0.00  0.00    +0.137 C 
BRANCH  19  20
ATOM     20  C   LIG    1       24.952 -23.156   6.779  0.00  0.00    -0.030 A 
ATOM     21  C   LIG    1       26.038 -24.046   6.799  0.00  0.00    +0.008 A 
ATOM     22  C   LIG    1       25.829 -25.412   6.605  0.00  0.00    +0.039 A 
ATOM     23  C   LIG    1       24.539 -25.887   6.399  0.00  0.00    +0.123 A 
ATOM     24  F   LIG    1       24.342 -27.199   6.215  0.00  0.00    -0.205 F 
ATOM     25  C   LIG    1       23.451 -25.024   6.384  0.00  0.00    +0.039 A 
ATOM     26  C   LIG    1       23.656 -23.659   6.578  0.00  0.00    +0.008 A 
ENDBRANCH  19  20
ENDBRANCH  17  19
ENDBRANCH   4  17
TORSDOF 7
ENDMDL
MODEL 5
REMARK VINA RESULT:      -8.7      3.925      8.384
REMARK  Name = *****
REMARK                            x       y       z     vdW  Elec       q    Type
REMARK                         _______ _______ _______ _____ _____    ______ ____
ROOT
ATOM      1  C   LIG    1       28.110 -20.105   5.917  0.00  0.00    +0.057 A 
ATOM      2  C   LIG    1       28.880 -18.953   5.678  0.00  0.00    +0.048 A 
ATOM      3  C   LIG    1       30.062 -18.758   6.403  0.00  0.00    +0.047 A 
ATOM      4  C   LIG    1       30.417 -19.585   7.475  0.00  0.00    +0.029 A 
ATOM      5  C   LIG    1       29.628 -20.715   7.708  0.00  0.00    +0.025 A 
ATOM      6  C   LIG    1       28.492 -20.983   6.933  0.00  0.00    +0.027 A 
ENDROOT
BRANCH   1   8
ATOM      7  C   LIG    1       25.690 -20.511   5.465  0.00  0.00    +0.405 C 
ATOM      8  N   LIG    1       26.991 -20.305   5.097  0.00  0.00    -0.249 N 
ATOM      9  H   LIG    1       27.145 -20.373   4.107  0.00  0.00    +0.158 HD
ATOM     10  O   LIG    1       25.232 -20.560   6.594  0.00  0.00    -0.226 OA
BRANCH   7  11
ATOM     11  O   LIG    1       24.943 -20.660   4.341  0.00  0.00    -0.450 OA
BRANCH  11  13
ATOM     12  C   LIG    1       23.342 -18.919   3.893  0.00  0.00    +0.048 C 
ATOM     13  C   LIG    1       24.725 -19.463   3.583  0.00  0.00    +0.230 C 
ENDBRANCH  11  13
ENDBRANCH   7  11
ENDBRANCH   1   8
BRANCH   2  14
ATOM     14  N   LIG    1       28.567 -18.058   4.626  0.00  0.00    -0.356 N 
ATOM     15  H   LIG    1       27.938 -17.322   4.931  0.00  0.00    +0.142 HD
ATOM     16  H   LIG    1       29.397 -17.653   4.203  0.00  0.00    +0.142 HD
ENDBRANCH   2  14
BRANCH   4  17
ATOM     17  N   LIG    1       31.564 -19.392   8.255  0.00  0.00    -0.340 N 
ATOM     18  H   LIG    1       31.451 -19.790   9.186  0.00  0.00    +0.146 HD
BRANCH  17  19
ATOM     19  C   LIG    1       32.198 -18.082   8.263  0.00  0.00    +0.137 C 
BRANCH  19  20
ATOM     20  C   LIG    1       32.046 -17.431   9.614  0.00  0.00    -0.030 A 
ATOM     21  C   LIG    1       30.958 -17.747  10.443  0.00  0.00    +0.008 A 
ATOM     22  C   LIG    1       30.820 -17.128  11.687  0.00  0.00    +0.039 A 
ATOM     23  C   LIG    1       31.770 -16.203  12.103  0.00  0.00    +0.123 A 
ATOM     24  F   LIG    1       31.635 -15.612  13.297  0.00  0.00    -0.205 F 
ATOM     25  C   LIG    1       32.858 -15.882  11.301  0.00  0.00    +0.039 A 
ATOM     26  C   LIG    1       32.998 -16.499  10.058  0.00  0.00    +0.008 A 
ENDBRANCH  19  20
ENDBRANCH  17  19
ENDBRANCH   4  17
TORSDOF 7
ENDMDL
MODEL 6
REMARK VINA RESULT:      -8.6      2.014      2.556
REMARK  Name = *****
REMARK                            x       y       z     vdW  Elec       q    Type
REMARK                         _______ _______ _______ _____ _____    ______ ____
ROOT
ATOM      1  C   LIG    1       30.854 -19.086   8.570  0.00  0.00    +0.057 A 
ATOM      2  C   LIG    1       30.709 -20.484   8.632  0.00  0.00    +0.048 A 
ATOM      3  C   LIG    1       29.809 -21.117   7.766  0.00  0.00    +0.047 A 
ATOM      4  C   LIG    1       28.927 -20.393   6.956  0.00  0.00    +0.029 A 
ATOM      5  C   LIG    1       29.074 -19.003   6.922  0.00  0.00    +0.025 A 
ATOM      6  C   LIG    1       30.034 -18.353   7.709  0.00  0.00    +0.027 A 
ENDROOT
BRANCH   1   8
ATOM      7  C   LIG    1       31.680 -17.629  10.419  0.00  0.00    +0.405 C 
ATOM      8  N   LIG    1       31.837 -18.511   9.385  0.00  0.00    -0.249 N 
ATOM      9  H   LIG    1       32.798 -18.704   9.164  0.00  0.00    +0.158 HD
ATOM     10  O   LIG    1       30.639 -17.161  10.849  0.00  0.00    -0.226 OA
BRANCH   7  11
ATOM     11  O   LIG    1       32.904 -17.333  10.923  0.00  0.00    -0.450 OA
BRANCH  11  13
ATOM     12  C   LIG    1       33.025 -16.202  13.044  0.00  0.00    +0.048 C 
ATOM     13  C   LIG    1       33.024 -16.043  11.535  0.00  0.00    +0.230 C 
ENDBRANCH  11  13
ENDBRANCH   7  11
ENDBRANCH   1   8
BRANCH   2  14
ATOM     14  N   LIG    1       31.550 -21.279   9.447  0.00  0.00    -0.356 N 
ATOM     15  H   LIG    1       31.979 -22.036   8.923  0.00  0.00    +0.142 HD
ATOM     16  H   LIG    1       32.266 -20.730   9.915  0.00  0.00    +0.142 HD
ENDBRANCH   2  14
BRANCH   4  17
ATOM     17  N   LIG    1       27.979 -20.991   6.116  0.00  0.00    -0.340 N 
ATOM     18  H   LIG    1       28.412 -21.349   5.265  0.00  0.00    +0.146 HD
BRANCH  17  19
ATOM     19  C   LIG    1       26.720 -20.304   5.874  0.00  0.00    +0.137 C 
BRANCH  19  20
ATOM     20  C   LIG    1       25.557 -21.210   6.191  0.00  0.00    -0.030 A 
ATOM     21  C   LIG    1       25.770 -22.547   6.560  0.00  0.00    +0.008 A 
ATOM     22  C   LIG    1       24.686 -23.381   6.839  0.00  0.00    +0.039 A 
ATOM     23  C   LIG    1       23.393 -22.877   6.754  0.00  0.00    +0.123 A 
ATOM     24  F   LIG    1       22.355 -23.679   7.023  0.00  0.00    -0.205 F 
ATOM     25  C   LIG    1       23.161 -21.554   6.398  0.00  0.00    +0.039 A 
ATOM     26  C   LIG    1       24.242 -20.720   6.119  0.00  0.00    +0.008 A 
ENDBRANCH  19  20
ENDBRANCH  17  19
ENDBRANCH   4  17
TORSDOF 7
ENDMDL
MODEL 7
REMARK VINA RESULT:      -8.4      4.277      8.167
REMARK  Name = *****
REMARK                            x       y       z     vdW  Elec       q    Type
REMARK                         _______ _______ _______ _____ _____    ______ ____
ROOT
ATOM      1  C   LIG    1       26.176 -20.389   6.174  0.00  0.00    +0.057 A 
ATOM      2  C   LIG    1       26.413 -20.788   7.501  0.00  0.00    +0.048 A 
ATOM      3  C   LIG    1       27.713 -20.712   8.017  0.00  0.00    +0.047 A 
ATOM      4  C   LIG    1       28.814 -20.411   7.206  0.00  0.00    +0.029 A 
ATOM      5  C   LIG    1       28.559 -20.034   5.884  0.00  0.00    +0.025 A 
ATOM      6  C   LIG    1       27.254 -20.010   5.372  0.00  0.00    +0.027 A 
ENDROOT
BRANCH   1   8
ATOM      7  C   LIG    1       24.189 -21.334   4.997  0.00  0.00    +0.405 C 
ATOM      8  N   LIG    1       24.845 -20.389   5.737  0.00  0.00    -0.249 N 
ATOM      9  H   LIG    1       24.293 -19.570   5.923  0.00  0.00    +0.158 HD
ATOM     10  O   LIG    1       24.635 -22.383   4.564  0.00  0.00    -0.226 OA
BRANCH   7  11
ATOM     11  O   LIG    1       22.912 -20.919   4.802  0.00  0.00    -0.450 OA
BRANCH  11  13
ATOM     12  C   LIG    1       22.095 -18.702   4.345  0.00  0.00    +0.048 C 
ATOM     13  C   LIG    1       22.570 -19.669   5.414  0.00  0.00    +0.230 C 
ENDBRANCH  11  13
ENDBRANCH   7  11
ENDBRANCH   1   8
BRANCH   2  14
ATOM     14  N   LIG    1       25.350 -21.130   8.373  0.00  0.00    -0.356 N 
ATOM     15  H   LIG    1       24.713 -21.796   7.948  0.00  0.00    +0.142 HD
ATOM     16  H   LIG    1       25.682 -21.485   9.265  0.00  0.00    +0.142 HD
ENDBRANCH   2  14
BRANCH   4  17
ATOM     17  N   LIG    1       30.133 -20.374   7.675  0.00  0.00    -0.340 N 
ATOM     18  H   LIG    1       30.187 -20.658   8.652  0.00  0.00    +0.146 HD
BRANCH  17  19
ATOM     19  C   LIG    1       30.958 -19.217   7.365  0.00  0.00    +0.137 C 
BRANCH  19  20
ATOM     20  C   LIG    1       31.104 -18.334   8.578  0.00  0.00    -0.030 A 
ATOM     21  C   LIG    1       30.061 -18.219   9.510  0.00  0.00    +0.008 A 
ATOM     22  C   LIG    1       30.202 -17.388  10.623  0.00  0.00    +0.039 A 
ATOM     23  C   LIG    1       31.384 -16.680  10.806  0.00  0.00    +0.123 A 
ATOM     24  F   LIG    1       31.516 -15.885  11.875  0.00  0.00    -0.205 F 
ATOM     25  C   LIG    1       32.430 -16.786   9.899  0.00  0.00    +0.039 A 
ATOM     26  C   LIG    1       32.293 -17.615   8.787  0.00  0.00    +0.008 A 
ENDBRANCH  19  20
ENDBRANCH  17  19
ENDBRANCH   4  17
TORSDOF 7
ENDMDL
MODEL 8
REMARK VINA RESULT:      -8.4      4.216      8.284
REMARK  Name = *****
REMARK                            x       y       z     vdW  Elec       q    Type
REMARK                         _______ _______ _______ _____ _____    ______ ____
ROOT
ATOM      1  C   LIG    1       26.932 -21.266   6.663  0.00  0.00    +0.057 A 
ATOM      2  C   LIG    1       27.526 -20.254   5.889  0.00  0.00    +0.048 A 
ATOM      3  C   LIG    1       28.824 -19.830   6.198  0.00  0.00    +0.047 A 
ATOM      4  C   LIG    1       29.488 -20.260   7.353  0.00  0.00    +0.029 A 
ATOM      5  C   LIG    1       28.873 -21.254   8.119  0.00  0.00    +0.025 A 
ATOM      6  C   LIG    1       27.613 -21.763   7.776  0.00  0.00    +0.027 A 
ENDROOT
BRANCH   1   8
ATOM      7  C   LIG    1       24.451 -21.487   6.822  0.00  0.00    +0.405 C 
ATOM      8  N   LIG    1       25.673 -21.724   6.253  0.00  0.00    -0.249 N 
ATOM      9  H   LIG    1       25.639 -22.365   5.480  0.00  0.00    +0.158 HD
ATOM     10  O   LIG    1       24.207 -20.818   7.811  0.00  0.00    -0.226 OA
BRANCH   7  11
ATOM     11  O   LIG    1       23.505 -22.134   6.095  0.00  0.00    -0.450 OA
BRANCH  11  13
ATOM     12  C   LIG    1       23.625 -24.500   6.520  0.00  0.00    +0.048 C 
ATOM     13  C   LIG    1       22.849 -23.219   6.764  0.00  0.00    +0.230 C 
ENDBRANCH  11  13
ENDBRANCH   7  11
ENDBRANCH   1   8
BRANCH   2  14
ATOM     14  N   LIG    1       26.902 -19.752   4.721  0.00  0.00    -0.356 N 
ATOM     15  H   LIG    1       25.957 -19.431   4.905  0.00  0.00    +0.142 HD
ATOM     16  H   LIG    1       27.442 -19.011   4.283  0.00  0.00    +0.142 HD
ENDBRANCH   2  14
BRANCH   4  17
ATOM     17  N   LIG    1       30.766 -19.821   7.721  0.00  0.00    -0.340 N 
ATOM     18  H   LIG    1       31.037 -20.190   8.631  0.00  0.00    +0.146 HD
BRANCH  17  19
ATOM     19  C   LIG    1       31.105 -18.417   7.546  0.00  0.00    +0.137 C 
BRANCH  19  20
ATOM     20  C   LIG    1       31.203 -17.728   8.883  0.00  0.00    -0.030 A 
ATOM     21  C   LIG    1       30.221 -17.929   9.866  0.00  0.00    +0.008 A 
ATOM     22  C   LIG    1       30.314 -17.276  11.096  0.00  0.00    +0.039 A 
ATOM     23  C   LIG    1       31.389 -16.429  11.344  0.00  0.00    +0.123 A 
ATOM     24  F   LIG    1       31.476 -15.805  12.526  0.00  0.00    -0.205 F 
ATOM     25  C   LIG    1       32.375 -16.223  10.388  0.00  0.00    +0.039 A 
ATOM     26  C   LIG    1       32.284 -16.874   9.158  0.00  0.00    +0.008 A 
ENDBRANCH  19  20
ENDBRANCH  17  19
ENDBRANCH   4  17
TORSDOF 7
ENDMDL
MODEL 9
REMARK VINA RESULT:      -8.4      6.121      8.739
REMARK  Name = *****
REMARK                            x       y       z     vdW  Elec       q    Type
REMARK                         _______ _______ _______ _____ _____    ______ ____
ROOT
ATOM      1  C   LIG    1       24.427 -26.102   6.093  0.00  0.00    +0.057 A 
ATOM      2  C   LIG    1       25.791 -25.770   6.167  0.00  0.00    +0.048 A 
ATOM      3  C   LIG    1       26.162 -24.492   6.603  0.00  0.00    +0.047 A 
ATOM      4  C   LIG    1       25.219 -23.478   6.809  0.00  0.00    +0.029 A 
ATOM      5  C   LIG    1       23.867 -23.824   6.714  0.00  0.00    +0.025 A 
ATOM      6  C   LIG    1       23.470 -25.124   6.371  0.00  0.00    +0.027 A 
ENDROOT
BRANCH   1   8
ATOM      7  C   LIG    1       24.291 -28.563   6.481  0.00  0.00    +0.405 C 
ATOM      8  N   LIG    1       24.110 -27.422   5.748  0.00  0.00    -0.249 N 
ATOM      9  H   LIG    1       23.761 -27.591   4.821  0.00  0.00    +0.158 HD
ATOM     10  O   LIG    1       24.767 -28.664   7.598  0.00  0.00    -0.226 OA
BRANCH   7  11
ATOM     11  O   LIG    1       23.844 -29.618   5.753  0.00  0.00    -0.450 OA
BRANCH  11  13
ATOM     12  C   LIG    1       25.625 -31.191   5.370  0.00  0.00    +0.048 C 
ATOM     13  C   LIG    1       24.354 -30.898   6.146  0.00  0.00    +0.230 C 
ENDBRANCH  11  13
ENDBRANCH   7  11
ENDBRANCH   1   8
BRANCH   2  14
ATOM     14  N   LIG    1       26.802 -26.738   5.947  0.00  0.00    -0.356 N 
ATOM     15  H   LIG    1       26.481 -27.675   6.166  0.00  0.00    +0.142 HD
ATOM     16  H   LIG    1       27.165 -26.707   4.998  0.00  0.00    +0.142 HD
ENDBRANCH   2  14
BRANCH   4  17
ATOM     17  N   LIG    1       25.555 -22.175   7.196  0.00  0.00    -0.340 N 
ATOM     18  H   LIG    1       24.840 -21.772   7.801  0.00  0.00    +0.146 HD
BRANCH  17  19
ATOM     19  C   LIG    1       26.048 -21.247   6.191  0.00  0.00    +0.137 C 
BRANCH  19  20
ATOM     20  C   LIG    1       24.902 -20.516   5.540  0.00  0.00    -0.030 A 
ATOM     21  C   LIG    1       25.056 -19.919   4.279  0.00  0.00    +0.008 A 
ATOM     22  C   LIG    1       23.992 -19.234   3.691  0.00  0.00    +0.039 A 
ATOM     23  C   LIG    1       22.775 -19.151   4.359  0.00  0.00    +0.123 A 
ATOM     24  F   LIG    1       21.756 -18.494   3.792  0.00  0.00    -0.205 F 
ATOM     25  C   LIG    1       22.600 -19.741   5.604  0.00  0.00    +0.039 A 
ATOM     26  C   LIG    1       23.661 -20.427   6.194  0.00  0.00    +0.008 A 
ENDBRANCH  19  20
ENDBRANCH  17  19
ENDBRANCH   4  17
TORSDOF 7
ENDMDL
