MODEL 1
REMARK VINA RESULT:     -10.2      0.000      0.000
REMARK  Name = *****
REMARK                            x       y       z     vdW  Elec       q    Type
REMARK                         _______ _______ _______ _____ _____    ______ ____
ROOT
ATOM      1  O   LIG    1       24.223 -23.401   4.686  0.00  0.00    -0.273 OA
ATOM      2  C   LIG    1       24.837 -22.837   5.582  0.00  0.00    +0.249 C 
ATOM      3  N   LIG    1       25.322 -21.520   5.623  0.00  0.00    -0.180 N 
ATOM      4  N   LIG    1       26.081 -21.324   6.809  0.00  0.00    -0.180 N 
ATOM      5  C   LIG    1       25.897 -22.403   7.683  0.00  0.00    +0.249 C 
ATOM      6  O   LIG    1       26.325 -22.574   8.817  0.00  0.00    -0.273 OA
ATOM      7  C   LIG    1       25.116 -23.447   6.929  0.00  0.00    +0.166 C 
ENDROOT
BRANCH   3   8
ATOM      8  C   LIG    1       24.490 -20.488   5.097  0.00  0.00    +0.057 A 
ATOM      9  C   LIG    1       24.889 -19.731   3.985  0.00  0.00    +0.025 A 
ATOM     10  C   LIG    1       24.073 -18.711   3.492  0.00  0.00    +0.002 A 
ATOM     11  C   LIG    1       22.838 -18.457   4.084  0.00  0.00    +0.000 A 
ATOM     12  C   LIG    1       22.423 -19.213   5.178  0.00  0.00    +0.002 A 
ATOM     13  C   LIG    1       23.251 -20.215   5.691  0.00  0.00    +0.025 A 
ENDBRANCH   3   8
BRANCH   4  14
ATOM     14  C   LIG    1       27.241 -20.476   6.826  0.00  0.00    +0.057 A 
ATOM     15  C   LIG    1       27.772 -19.944   5.637  0.00  0.00    +0.025 A 
ATOM     16  C   LIG    1       28.928 -19.155   5.641  0.00  0.00    +0.002 A 
ATOM     17  C   LIG    1       29.586 -18.884   6.836  0.00  0.00    +0.000 A 
ATOM     18  C   LIG    1       29.079 -19.396   8.024  0.00  0.00    +0.002 A 
ATOM     19  C   LIG    1       27.917 -20.177   8.018  0.00  0.00    +0.025 A 
ENDBRANCH   4  14
BRANCH   7  20
ATOM     20  C   LIG    1       25.850 -24.786   6.837  0.00  0.00    +0.036 C 
BRANCH  20  21
ATOM     21  C   LIG    1       24.919 -25.954   6.500  0.00  0.00    +0.110 C 
BRANCH  21  22
ATOM     22  S   LIG    1       25.869 -27.438   6.028  0.00  0.00    +0.054 S 
ATOM     23  O   LIG    1       25.126 -28.099   4.904  0.00  0.00    -0.252 OA
BRANCH  22  24
ATOM     24  C   LIG    1       25.508 -28.421   7.508  0.00  0.00    +0.039 A 
ATOM     25  C   LIG    1       26.321 -28.305   8.642  0.00  0.00    +0.017 A 
ATOM     26  C   LIG    1       26.060 -29.075   9.778  0.00  0.00    +0.001 A 
ATOM     27  C   LIG    1       24.988 -29.967   9.786  0.00  0.00    +0.000 A 
ATOM     28  C   LIG    1       24.179 -30.092   8.658  0.00  0.00    +0.001 A 
ATOM     29  C   LIG    1       24.441 -29.325   7.522  0.00  0.00    +0.017 A 
ENDBRANCH  22  24
ENDBRANCH  21  22
ENDBRANCH  20  21
ENDBRANCH   7  20
TORSDOF 6
ENDMDL
MODEL 2
REMARK VINA RESULT:      -9.9      0.939      4.131
REMARK  Name = *****
REMARK                            x       y       z     vdW  Elec       q    Type
REMARK                         _______ _______ _______ _____ _____    ______ ____
ROOT
ATOM      1  O   LIG    1       26.345 -23.143   8.267  0.00  0.00    -0.273 OA
ATOM      2  C   LIG    1       25.892 -22.789   7.187  0.00  0.00    +0.249 C 
ATOM      3  N   LIG    1       25.864 -21.505   6.621  0.00  0.00    -0.180 N 
ATOM      4  N   LIG    1       25.135 -21.533   5.402  0.00  0.00    -0.180 N 
ATOM      5  C   LIG    1       24.896 -22.857   5.012  0.00  0.00    +0.249 C 
ATOM      6  O   LIG    1       24.363 -23.291   3.999  0.00  0.00    -0.273 OA
ATOM      7  C   LIG    1       25.340 -23.733   6.152  0.00  0.00    +0.166 C 
ENDROOT
BRANCH   3   8
ATOM      8  C   LIG    1       27.021 -20.685   6.774  0.00  0.00    +0.057 A 
ATOM      9  C   LIG    1       27.695 -20.166   5.659  0.00  0.00    +0.025 A 
ATOM     10  C   LIG    1       28.837 -19.380   5.823  0.00  0.00    +0.002 A 
ATOM     11  C   LIG    1       29.299 -19.079   7.102  0.00  0.00    +0.000 A 
ATOM     12  C   LIG    1       28.628 -19.573   8.218  0.00  0.00    +0.002 A 
ATOM     13  C   LIG    1       27.502 -20.384   8.056  0.00  0.00    +0.025 A 
ENDBRANCH   3   8
BRANCH   4  14
ATOM     14  C   LIG    1       24.318 -20.424   4.990  0.00  0.00    +0.057 A 
ATOM     15  C   LIG    1       23.082 -20.161   5.609  0.00  0.00    +0.025 A 
ATOM     16  C   LIG    1       22.260 -19.111   5.183  0.00  0.00    +0.002 A 
ATOM     17  C   LIG    1       22.652 -18.302   4.122  0.00  0.00    +0.000 A 
ATOM     18  C   LIG    1       23.869 -18.540   3.497  0.00  0.00    +0.002 A 
ATOM     19  C   LIG    1       24.694 -19.585   3.930  0.00  0.00    +0.025 A 
ENDBRANCH   4  14
BRANCH   7  20
ATOM     20  C   LIG    1       24.217 -24.620   6.693  0.00  0.00    +0.036 C 
BRANCH  20  21
ATOM     21  C   LIG    1       24.211 -26.020   6.075  0.00  0.00    +0.110 C 
BRANCH  21  22
ATOM     22  S   LIG    1       25.868 -26.778   6.148  0.00  0.00    +0.054 S 
ATOM     23  O   LIG    1       26.399 -26.816   4.745  0.00  0.00    -0.252 OA
BRANCH  22  24
ATOM     24  C   LIG    1       25.331 -28.469   6.523  0.00  0.00    +0.039 A 
ATOM     25  C   LIG    1       25.144 -29.391   5.485  0.00  0.00    +0.017 A 
ATOM     26  C   LIG    1       24.710 -30.689   5.767  0.00  0.00    +0.001 A 
ATOM     27  C   LIG    1       24.458 -31.071   7.084  0.00  0.00    +0.000 A 
ATOM     28  C   LIG    1       24.636 -30.156   8.120  0.00  0.00    +0.001 A 
ATOM     29  C   LIG    1       25.067 -28.858   7.840  0.00  0.00    +0.017 A 
ENDBRANCH  22  24
ENDBRANCH  21  22
ENDBRANCH  20  21
ENDBRANCH   7  20
TORSDOF 6
ENDMDL
MODEL 3
REMARK VINA RESULT:      -8.7      3.467     10.031
REMARK  Name = *****
REMARK                            x       y       z     vdW  Elec       q    Type
REMARK                         _______ _______ _______ _____ _____    ______ ____
ROOT
ATOM      1  O   LIG    1       26.442 -28.252   9.105  0.00  0.00    -0.273 OA
ATOM      2  C   LIG    1       25.755 -28.684   8.189  0.00  0.00    +0.249 C 
ATOM      3  N   LIG    1       25.246 -29.980   8.004  0.00  0.00    -0.180 N 
ATOM      4  N   LIG    1       24.601 -30.068   6.741  0.00  0.00    -0.180 N 
ATOM      5  C   LIG    1       24.443 -28.790   6.190  0.00  0.00    +0.249 C 
ATOM      6  O   LIG    1       23.883 -28.447   5.157  0.00  0.00    -0.273 OA
ATOM      7  C   LIG    1       25.203 -27.837   7.073  0.00  0.00    +0.166 C 
ENDROOT
BRANCH   3   8
ATOM      8  C   LIG    1       24.735 -30.663   9.147  0.00  0.00    +0.057 A 
ATOM      9  C   LIG    1       25.483 -31.658   9.793  0.00  0.00    +0.025 A 
ATOM     10  C   LIG    1       24.962 -32.332  10.899  0.00  0.00    +0.002 A 
ATOM     11  C   LIG    1       23.702 -31.998  11.390  0.00  0.00    +0.000 A 
ATOM     12  C   LIG    1       22.956 -30.999  10.769  0.00  0.00    +0.002 A 
ATOM     13  C   LIG    1       23.464 -30.343   9.644  0.00  0.00    +0.025 A 
ENDBRANCH   3   8
BRANCH   4  14
ATOM     14  C   LIG    1       24.648 -31.271   5.957  0.00  0.00    +0.057 A 
ATOM     15  C   LIG    1       25.722 -31.531   5.085  0.00  0.00    +0.025 A 
ATOM     16  C   LIG    1       25.752 -32.679   4.284  0.00  0.00    +0.002 A 
ATOM     17  C   LIG    1       24.705 -33.591   4.330  0.00  0.00    +0.000 A 
ATOM     18  C   LIG    1       23.635 -33.358   5.185  0.00  0.00    +0.002 A 
ATOM     19  C   LIG    1       23.611 -32.215   5.992  0.00  0.00    +0.025 A 
ENDBRANCH   4  14
BRANCH   7  20
ATOM     20  C   LIG    1       26.287 -27.065   6.319  0.00  0.00    +0.036 C 
BRANCH  20  21
ATOM     21  C   LIG    1       26.223 -25.555   6.563  0.00  0.00    +0.110 C 
BRANCH  21  22
ATOM     22  S   LIG    1       24.653 -24.856   5.952  0.00  0.00    +0.054 S 
ATOM     23  O   LIG    1       24.825 -24.600   4.483  0.00  0.00    -0.252 OA
BRANCH  22  24
ATOM     24  C   LIG    1       24.792 -23.239   6.759  0.00  0.00    +0.039 A 
ATOM     25  C   LIG    1       23.761 -22.300   6.631  0.00  0.00    +0.017 A 
ATOM     26  C   LIG    1       23.873 -21.044   7.234  0.00  0.00    +0.001 A 
ATOM     27  C   LIG    1       25.015 -20.719   7.964  0.00  0.00    +0.000 A 
ATOM     28  C   LIG    1       26.048 -21.647   8.090  0.00  0.00    +0.001 A 
ATOM     29  C   LIG    1       25.938 -22.901   7.486  0.00  0.00    +0.017 A 
ENDBRANCH  22  24
ENDBRANCH  21  22
ENDBRANCH  20  21
ENDBRANCH   7  20
TORSDOF 6
ENDMDL
MODEL 4
REMARK VINA RESULT:      -8.7      3.157      8.223
REMARK  Name = *****
REMARK                            x       y       z     vdW  Elec       q    Type
REMARK                         _______ _______ _______ _____ _____    ______ ____
ROOT
ATOM      1  O   LIG    1       28.346 -22.662   6.779  0.00  0.00    -0.273 OA
ATOM      2  C   LIG    1       27.252 -22.175   7.032  0.00  0.00    +0.249 C 
ATOM      3  N   LIG    1       25.999 -22.491   6.485  0.00  0.00    -0.180 N 
ATOM      4  N   LIG    1       25.016 -21.593   6.983  0.00  0.00    -0.180 N 
ATOM      5  C   LIG    1       25.539 -20.847   8.047  0.00  0.00    +0.249 C 
ATOM      6  O   LIG    1       24.991 -20.026   8.771  0.00  0.00    -0.273 OA
ATOM      7  C   LIG    1       27.011 -21.157   8.115  0.00  0.00    +0.166 C 
ENDROOT
BRANCH   3   8
ATOM      8  C   LIG    1       25.699 -23.867   6.261  0.00  0.00    +0.057 A 
ATOM      9  C   LIG    1       25.932 -24.831   7.253  0.00  0.00    +0.025 A 
ATOM     10  C   LIG    1       25.652 -26.178   7.013  0.00  0.00    +0.002 A 
ATOM     11  C   LIG    1       25.107 -26.571   5.792  0.00  0.00    +0.000 A 
ATOM     12  C   LIG    1       24.854 -25.621   4.806  0.00  0.00    +0.002 A 
ATOM     13  C   LIG    1       25.161 -24.277   5.033  0.00  0.00    +0.025 A 
ENDBRANCH   3   8
BRANCH   4  14
ATOM     14  C   LIG    1       23.922 -21.149   6.164  0.00  0.00    +0.057 A 
ATOM     15  C   LIG    1       22.738 -21.903   6.060  0.00  0.00    +0.025 A 
ATOM     16  C   LIG    1       21.685 -21.501   5.229  0.00  0.00    +0.002 A 
ATOM     17  C   LIG    1       21.794 -20.337   4.477  0.00  0.00    +0.000 A 
ATOM     18  C   LIG    1       22.952 -19.574   4.565  0.00  0.00    +0.002 A 
ATOM     19  C   LIG    1       23.999 -19.974   5.403  0.00  0.00    +0.025 A 
ENDBRANCH   4  14
BRANCH   7  20
ATOM     20  C   LIG    1       27.887 -19.911   7.968  0.00  0.00    +0.036 C 
BRANCH  20  21
ATOM     21  C   LIG    1       29.373 -20.196   8.201  0.00  0.00    +0.110 C 
BRANCH  21  22
ATOM     22  S   LIG    1       30.420 -18.968   7.352  0.00  0.00    +0.054 S 
ATOM     23  O   LIG    1       31.650 -19.687   6.880  0.00  0.00    -0.252 OA
BRANCH  22  24
ATOM     24  C   LIG    1       30.922 -18.037   8.824  0.00  0.00    +0.039 A 
ATOM     25  C   LIG    1       30.041 -17.907   9.906  0.00  0.00    +0.017 A 
ATOM     26  C   LIG    1       30.416 -17.173  11.035  0.00  0.00    +0.001 A 
ATOM     27  C   LIG    1       31.669 -16.565  11.088  0.00  0.00    +0.000 A 
ATOM     28  C   LIG    1       32.548 -16.686  10.013  0.00  0.00    +0.001 A 
ATOM     29  C   LIG    1       32.173 -17.416   8.883  0.00  0.00    +0.017 A 
ENDBRANCH  22  24
ENDBRANCH  21  22
ENDBRANCH  20  21
ENDBRANCH   7  20
TORSDOF 6
ENDMDL
MODEL 5
REMARK VINA RESULT:      -8.3      3.432      9.593
REMARK  Name = *****
REMARK                            x       y       z     vdW  Elec       q    Type
REMARK                         _______ _______ _______ _____ _____    ______ ____
ROOT
ATOM      1  O   LIG    1       23.712 -28.577   4.617  0.00  0.00    -0.273 OA
ATOM      2  C   LIG    1       24.332 -28.649   5.669  0.00  0.00    +0.249 C 
ATOM      3  N   LIG    1       24.508 -29.756   6.515  0.00  0.00    -0.180 N 
ATOM      4  N   LIG    1       25.201 -29.357   7.690  0.00  0.00    -0.180 N 
ATOM      5  C   LIG    1       25.718 -28.065   7.531  0.00  0.00    +0.249 C 
ATOM      6  O   LIG    1       26.421 -27.405   8.285  0.00  0.00    -0.273 OA
ATOM      7  C   LIG    1       25.161 -27.529   6.239  0.00  0.00    +0.166 C 
ENDROOT
BRANCH   3   8
ATOM      8  C   LIG    1       24.745 -31.025   5.909  0.00  0.00    +0.057 A 
ATOM      9  C   LIG    1       25.915 -31.271   5.176  0.00  0.00    +0.025 A 
ATOM     10  C   LIG    1       26.125 -32.513   4.572  0.00  0.00    +0.002 A 
ATOM     11  C   LIG    1       25.184 -33.529   4.720  0.00  0.00    +0.000 A 
ATOM     12  C   LIG    1       24.027 -33.303   5.461  0.00  0.00    +0.002 A 
ATOM     13  C   LIG    1       23.801 -32.052   6.042  0.00  0.00    +0.025 A 
ENDBRANCH   3   8
BRANCH   4  14
ATOM     14  C   LIG    1       24.909 -29.944   8.969  0.00  0.00    +0.057 A 
ATOM     15  C   LIG    1       23.586 -30.057   9.433  0.00  0.00    +0.025 A 
ATOM     16  C   LIG    1       23.297 -30.586  10.697  0.00  0.00    +0.002 A 
ATOM     17  C   LIG    1       24.326 -31.008  11.530  0.00  0.00    +0.000 A 
ATOM     18  C   LIG    1       25.641 -30.911  11.092  0.00  0.00    +0.002 A 
ATOM     19  C   LIG    1       25.927 -30.390   9.825  0.00  0.00    +0.025 A 
ENDBRANCH   4  14
BRANCH   7  20
ATOM     20  C   LIG    1       24.366 -26.235   6.427  0.00  0.00    +0.036 C 
BRANCH  20  21
ATOM     21  C   LIG    1       24.762 -25.142   5.432  0.00  0.00    +0.110 C 
BRANCH  21  22
ATOM     22  S   LIG    1       25.838 -23.896   6.216  0.00  0.00    +0.054 S 
ATOM     23  O   LIG    1       25.890 -24.217   7.682  0.00  0.00    -0.252 OA
BRANCH  22  24
ATOM     24  C   LIG    1       24.710 -22.485   6.056  0.00  0.00    +0.039 A 
ATOM     25  C   LIG    1       24.464 -21.924   4.796  0.00  0.00    +0.017 A 
ATOM     26  C   LIG    1       23.611 -20.824   4.670  0.00  0.00    +0.001 A 
ATOM     27  C   LIG    1       23.004 -20.278   5.800  0.00  0.00    +0.000 A 
ATOM     28  C   LIG    1       23.250 -20.828   7.057  0.00  0.00    +0.001 A 
ATOM     29  C   LIG    1       24.104 -21.925   7.184  0.00  0.00    +0.017 A 
ENDBRANCH  22  24
ENDBRANCH  21  22
ENDBRANCH  20  21
ENDBRANCH   7  20
TORSDOF 6
ENDMDL
MODEL 6
REMARK VINA RESULT:      -8.2      0.923      1.715
REMARK  Name = *****
REMARK                            x       y       z     vdW  Elec       q    Type
REMARK                         _______ _______ _______ _____ _____    ______ ____
ROOT
ATOM      1  O   LIG    1       23.952 -22.814   3.691  0.00  0.00    -0.273 OA
ATOM      2  C   LIG    1       24.561 -22.504   4.706  0.00  0.00    +0.249 C 
ATOM      3  N   LIG    1       25.085 -21.254   5.073  0.00  0.00    -0.180 N 
ATOM      4  N   LIG    1       25.820 -21.377   6.282  0.00  0.00    -0.180 N 
ATOM      5  C   LIG    1       25.583 -22.627   6.867  0.00  0.00    +0.249 C 
ATOM      6  O   LIG    1       25.977 -23.080   7.933  0.00  0.00    -0.273 OA
ATOM      7  C   LIG    1       24.789 -23.430   5.871  0.00  0.00    +0.166 C 
ENDROOT
BRANCH   3   8
ATOM      8  C   LIG    1       24.299 -20.096   4.797  0.00  0.00    +0.057 A 
ATOM      9  C   LIG    1       23.047 -19.911   5.401  0.00  0.00    +0.025 A 
ATOM     10  C   LIG    1       22.278 -18.782   5.107  0.00  0.00    +0.002 A 
ATOM     11  C   LIG    1       22.767 -17.813   4.234  0.00  0.00    +0.000 A 
ATOM     12  C   LIG    1       24.017 -17.977   3.642  0.00  0.00    +0.002 A 
ATOM     13  C   LIG    1       24.775 -19.120   3.912  0.00  0.00    +0.025 A 
ENDBRANCH   3   8
BRANCH   4  14
ATOM     14  C   LIG    1       27.005 -20.600   6.523  0.00  0.00    +0.057 A 
ATOM     15  C   LIG    1       27.471 -20.368   7.830  0.00  0.00    +0.025 A 
ATOM     16  C   LIG    1       28.599 -19.574   8.075  0.00  0.00    +0.002 A 
ATOM     17  C   LIG    1       29.284 -18.988   7.017  0.00  0.00    +0.000 A 
ATOM     18  C   LIG    1       28.845 -19.205   5.717  0.00  0.00    +0.002 A 
ATOM     19  C   LIG    1       27.723 -20.006   5.474  0.00  0.00    +0.025 A 
ENDBRANCH   4  14
BRANCH   7  20
ATOM     20  C   LIG    1       25.482 -24.733   5.470  0.00  0.00    +0.036 C 
BRANCH  20  21
ATOM     21  C   LIG    1       25.189 -25.886   6.434  0.00  0.00    +0.110 C 
BRANCH  21  22
ATOM     22  S   LIG    1       26.506 -27.146   6.374  0.00  0.00    +0.054 S 
ATOM     23  O   LIG    1       26.881 -27.325   4.931  0.00  0.00    -0.252 OA
BRANCH  22  24
ATOM     24  C   LIG    1       25.477 -28.575   6.802  0.00  0.00    +0.039 A 
ATOM     25  C   LIG    1       25.339 -28.965   8.140  0.00  0.00    +0.017 A 
ATOM     26  C   LIG    1       24.562 -30.078   8.473  0.00  0.00    +0.001 A 
ATOM     27  C   LIG    1       23.923 -30.809   7.472  0.00  0.00    +0.000 A 
ATOM     28  C   LIG    1       24.061 -30.430   6.138  0.00  0.00    +0.001 A 
ATOM     29  C   LIG    1       24.839 -29.319   5.804  0.00  0.00    +0.017 A 
ENDBRANCH  22  24
ENDBRANCH  21  22
ENDBRANCH  20  21
ENDBRANCH   7  20
TORSDOF 6
ENDMDL
MODEL 7
REMARK VINA RESULT:      -8.0      6.384      9.666
REMARK  Name = *****
REMARK                            x       y       z     vdW  Elec       q    Type
REMARK                         _______ _______ _______ _____ _____    ______ ____
ROOT
ATOM      1  O   LIG    1       26.681 -32.993   9.540  0.00  0.00    -0.273 OA
ATOM      2  C   LIG    1       25.876 -32.163   9.141  0.00  0.00    +0.249 C 
ATOM      3  N   LIG    1       25.866 -31.458   7.926  0.00  0.00    -0.180 N 
ATOM      4  N   LIG    1       24.810 -30.507   7.932  0.00  0.00    -0.180 N 
ATOM      5  C   LIG    1       23.956 -30.739   9.017  0.00  0.00    +0.249 C 
ATOM      6  O   LIG    1       22.911 -30.181   9.325  0.00  0.00    -0.273 OA
ATOM      7  C   LIG    1       24.612 -31.793   9.870  0.00  0.00    +0.166 C 
ENDROOT
BRANCH   3   8
ATOM      8  C   LIG    1       26.216 -32.170   6.741  0.00  0.00    +0.057 A 
ATOM      9  C   LIG    1       27.511 -32.676   6.556  0.00  0.00    +0.025 A 
ATOM     10  C   LIG    1       27.846 -33.354   5.382  0.00  0.00    +0.002 A 
ATOM     11  C   LIG    1       26.884 -33.560   4.396  0.00  0.00    +0.000 A 
ATOM     12  C   LIG    1       25.590 -33.078   4.576  0.00  0.00    +0.002 A 
ATOM     13  C   LIG    1       25.260 -32.374   5.737  0.00  0.00    +0.025 A 
ENDBRANCH   3   8
BRANCH   4  14
ATOM     14  C   LIG    1       24.948 -29.229   7.289  0.00  0.00    +0.057 A 
ATOM     15  C   LIG    1       24.261 -28.936   6.096  0.00  0.00    +0.025 A 
ATOM     16  C   LIG    1       24.425 -27.710   5.440  0.00  0.00    +0.002 A 
ATOM     17  C   LIG    1       25.287 -26.750   5.957  0.00  0.00    +0.000 A 
ATOM     18  C   LIG    1       25.973 -27.015   7.135  0.00  0.00    +0.002 A 
ATOM     19  C   LIG    1       25.801 -28.238   7.795  0.00  0.00    +0.025 A 
ENDBRANCH   4  14
BRANCH   7  20
ATOM     20  C   LIG    1       24.866 -31.324  11.304  0.00  0.00    +0.036 C 
BRANCH  20  21
ATOM     21  C   LIG    1       25.471 -29.919  11.374  0.00  0.00    +0.110 C 
BRANCH  21  22
ATOM     22  S   LIG    1       25.616 -29.350  13.100  0.00  0.00    +0.054 S 
ATOM     23  O   LIG    1       25.286 -30.521  13.980  0.00  0.00    -0.252 OA
BRANCH  22  24
ATOM     24  C   LIG    1       24.147 -28.287  13.116  0.00  0.00    +0.039 A 
ATOM     25  C   LIG    1       24.248 -26.958  13.545  0.00  0.00    +0.017 A 
ATOM     26  C   LIG    1       23.115 -26.141  13.577  0.00  0.00    +0.001 A 
ATOM     27  C   LIG    1       21.876 -26.647  13.185  0.00  0.00    +0.000 A 
ATOM     28  C   LIG    1       21.768 -27.971  12.762  0.00  0.00    +0.001 A 
ATOM     29  C   LIG    1       22.899 -28.789  12.732  0.00  0.00    +0.017 A 
ENDBRANCH  22  24
ENDBRANCH  21  22
ENDBRANCH  20  21
ENDBRANCH   7  20
TORSDOF 6
ENDMDL
MODEL 8
REMARK VINA RESULT:      -7.8      3.425      9.734
REMARK  Name = *****
REMARK                            x       y       z     vdW  Elec       q    Type
REMARK                         _______ _______ _______ _____ _____    ______ ____
ROOT
ATOM      1  O   LIG    1       24.420 -28.352   5.064  0.00  0.00    -0.273 OA
ATOM      2  C   LIG    1       24.868 -28.708   6.146  0.00  0.00    +0.249 C 
ATOM      3  N   LIG    1       24.681 -29.927   6.819  0.00  0.00    -0.180 N 
ATOM      4  N   LIG    1       25.288 -29.865   8.102  0.00  0.00    -0.180 N 
ATOM      5  C   LIG    1       26.096 -28.725   8.200  0.00  0.00    +0.249 C 
ATOM      6  O   LIG    1       26.825 -28.358   9.113  0.00  0.00    -0.273 OA
ATOM      7  C   LIG    1       25.844 -27.905   6.963  0.00  0.00    +0.166 C 
ENDROOT
BRANCH   3   8
ATOM      8  C   LIG    1       24.705 -31.124   6.045  0.00  0.00    +0.057 A 
ATOM      9  C   LIG    1       23.610 -32.000   6.030  0.00  0.00    +0.025 A 
ATOM     10  C   LIG    1       23.654 -33.179   5.283  0.00  0.00    +0.002 A 
ATOM     11  C   LIG    1       24.780 -33.479   4.519  0.00  0.00    +0.000 A 
ATOM     12  C   LIG    1       25.868 -32.609   4.512  0.00  0.00    +0.002 A 
ATOM     13  C   LIG    1       25.837 -31.443   5.282  0.00  0.00    +0.025 A 
ENDBRANCH   3   8
BRANCH   4  14
ATOM     14  C   LIG    1       24.709 -30.528   9.238  0.00  0.00    +0.057 A 
ATOM     15  C   LIG    1       25.419 -31.519   9.942  0.00  0.00    +0.025 A 
ATOM     16  C   LIG    1       24.845 -32.201  11.022  0.00  0.00    +0.002 A 
ATOM     17  C   LIG    1       23.544 -31.913  11.419  0.00  0.00    +0.000 A 
ATOM     18  C   LIG    1       22.825 -30.937  10.742  0.00  0.00    +0.002 A 
ATOM     19  C   LIG    1       23.404 -30.250   9.669  0.00  0.00    +0.025 A 
ENDBRANCH   4  14
BRANCH   7  20
ATOM     20  C   LIG    1       25.340 -26.495   7.277  0.00  0.00    +0.036 C 
BRANCH  20  21
ATOM     21  C   LIG    1       25.877 -25.439   6.306  0.00  0.00    +0.110 C 
BRANCH  21  22
ATOM     22  S   LIG    1       24.557 -24.293   5.785  0.00  0.00    +0.054 S 
ATOM     23  O   LIG    1       24.820 -23.940   4.350  0.00  0.00    -0.252 OA
BRANCH  22  24
ATOM     24  C   LIG    1       25.101 -22.862   6.757  0.00  0.00    +0.039 A 
ATOM     25  C   LIG    1       26.411 -22.805   7.248  0.00  0.00    +0.017 A 
ATOM     26  C   LIG    1       26.829 -21.713   8.014  0.00  0.00    +0.001 A 
ATOM     27  C   LIG    1       25.940 -20.676   8.296  0.00  0.00    +0.000 A 
ATOM     28  C   LIG    1       24.633 -20.730   7.814  0.00  0.00    +0.001 A 
ATOM     29  C   LIG    1       24.214 -21.821   7.051  0.00  0.00    +0.017 A 
ENDBRANCH  22  24
ENDBRANCH  21  22
ENDBRANCH  20  21
ENDBRANCH   7  20
TORSDOF 6
ENDMDL
MODEL 9
REMARK VINA RESULT:      -7.8      1.662      2.182
REMARK  Name = *****
REMARK                            x       y       z     vdW  Elec       q    Type
REMARK                         _______ _______ _______ _____ _____    ______ ____
ROOT
ATOM      1  O   LIG    1       24.578 -23.907   3.806  0.00  0.00    -0.273 OA
ATOM      2  C   LIG    1       24.999 -23.612   4.917  0.00  0.00    +0.249 C 
ATOM      3  N   LIG    1       25.332 -22.347   5.426  0.00  0.00    -0.180 N 
ATOM      4  N   LIG    1       25.893 -22.483   6.724  0.00  0.00    -0.180 N 
ATOM      5  C   LIG    1       25.704 -23.788   7.197  0.00  0.00    +0.249 C 
ATOM      6  O   LIG    1       25.984 -24.274   8.285  0.00  0.00    -0.273 OA
ATOM      7  C   LIG    1       25.150 -24.591   6.050  0.00  0.00    +0.166 C 
ENDROOT
BRANCH   3   8
ATOM      8  C   LIG    1       24.478 -21.252   5.098  0.00  0.00    +0.057 A 
ATOM      9  C   LIG    1       24.735 -20.440   3.984  0.00  0.00    +0.025 A 
ATOM     10  C   LIG    1       23.901 -19.360   3.686  0.00  0.00    +0.002 A 
ATOM     11  C   LIG    1       22.786 -19.100   4.479  0.00  0.00    +0.000 A 
ATOM     12  C   LIG    1       22.510 -19.910   5.578  0.00  0.00    +0.002 A 
ATOM     13  C   LIG    1       23.359 -20.973   5.895  0.00  0.00    +0.025 A 
ENDBRANCH   3   8
BRANCH   4  14
ATOM     14  C   LIG    1       26.943 -21.616   7.182  0.00  0.00    +0.057 A 
ATOM     15  C   LIG    1       26.667 -20.509   8.006  0.00  0.00    +0.025 A 
ATOM     16  C   LIG    1       27.679 -19.634   8.419  0.00  0.00    +0.002 A 
ATOM     17  C   LIG    1       28.992 -19.842   8.012  0.00  0.00    +0.000 A 
ATOM     18  C   LIG    1       29.291 -20.930   7.202  0.00  0.00    +0.002 A 
ATOM     19  C   LIG    1       28.278 -21.809   6.797  0.00  0.00    +0.025 A 
ENDBRANCH   4  14
BRANCH   7  20
ATOM     20  C   LIG    1       26.025 -25.792   5.689  0.00  0.00    +0.036 C 
BRANCH  20  21
ATOM     21  C   LIG    1       25.223 -27.085   5.516  0.00  0.00    +0.110 C 
BRANCH  21  22
ATOM     22  S   LIG    1       24.911 -27.885   7.125  0.00  0.00    +0.054 S 
ATOM     23  O   LIG    1       26.171 -27.762   7.932  0.00  0.00    -0.252 OA
BRANCH  22  24
ATOM     24  C   LIG    1       24.869 -29.596   6.526  0.00  0.00    +0.039 A 
ATOM     25  C   LIG    1       25.593 -29.956   5.383  0.00  0.00    +0.017 A 
ATOM     26  C   LIG    1       25.548 -31.269   4.905  0.00  0.00    +0.001 A 
ATOM     27  C   LIG    1       24.778 -32.226   5.565  0.00  0.00    +0.000 A 
ATOM     28  C   LIG    1       24.051 -31.872   6.700  0.00  0.00    +0.001 A 
ATOM     29  C   LIG    1       24.093 -30.560   7.176  0.00  0.00    +0.017 A 
ENDBRANCH  22  24
ENDBRANCH  21  22
ENDBRANCH  20  21
ENDBRANCH   7  20
TORSDOF 6
ENDMDL
