MODEL 1
REMARK VINA RESULT:      -4.6      0.000      0.000
REMARK  Name = *****
REMARK                            x       y       z     vdW  Elec       q    Type
REMARK                         _______ _______ _______ _____ _____    ______ ____
ROOT
ATOM      1  CA  ASP A  1       26.408 -14.325   4.244  0.00  0.00    +0.171 C 
ENDROOT
BRANCH   1   2
ATOM      2  N   ASP A  1       26.806 -13.273   5.230  0.00  0.00    -0.318 NA
ATOM      3  H1  ASP A  1       25.965 -12.763   5.531  0.00  0.00    +0.119 HD
ATOM      4  H2  ASP A  1       27.138 -13.726   6.087  0.00  0.00    +0.119 HD
ENDBRANCH   1   2
BRANCH   1   5
ATOM      5  C   ASP A  1       27.108 -13.957   2.922  0.00  0.00    +0.322 C 
ATOM      6  O   ASP A  1       26.672 -14.194   1.814  0.00  0.00    -0.249 OA
BRANCH   5   7
ATOM      7  OXT ASP A  1       28.285 -13.324   3.144  0.00  0.00    -0.479 OA
ATOM      8  HXT ASP A  1       28.824 -13.898   3.742  0.00  0.00    +0.295 HD
ENDBRANCH   5   7
ENDBRANCH   1   5
BRANCH   1   9
ATOM      9  CB  ASP A  1       24.889 -14.416   4.102  0.00  0.00    +0.150 C 
BRANCH   9  10
ATOM     10  CG  ASP A  1       24.164 -13.130   3.752  0.00  0.00    +0.307 C 
ATOM     11  OD1 ASP A  1       24.008 -12.235   4.576  0.00  0.00    -0.251 OA
BRANCH  10  12
ATOM     12  OD2 ASP A  1       23.780 -12.964   2.478  0.00  0.00    -0.481 OA
ATOM     13  HD2 ASP A  1       24.472 -12.729   1.811  0.00  0.00    +0.295 HD
ENDBRANCH  10  12
ENDBRANCH   9  10
ENDBRANCH   1   9
TORSDOF 6
ENDMDL
MODEL 2
REMARK VINA RESULT:      -4.4      1.785      2.071
REMARK  Name = *****
REMARK                            x       y       z     vdW  Elec       q    Type
REMARK                         _______ _______ _______ _____ _____    ______ ____
ROOT
ATOM      1  CA  ASP A  1       26.616 -13.386   3.206  0.00  0.00    +0.171 C 
ENDROOT
BRANCH   1   2
ATOM      2  N   ASP A  1       26.352 -14.181   1.967  0.00  0.00    -0.318 NA
ATOM      3  H1  ASP A  1       26.403 -15.182   2.196  0.00  0.00    +0.119 HD
ATOM      4  H2  ASP A  1       25.376 -14.044   1.683  0.00  0.00    +0.119 HD
ENDBRANCH   1   2
BRANCH   1   5
ATOM      5  C   ASP A  1       27.999 -13.836   3.714  0.00  0.00    +0.322 C 
ATOM      6  O   ASP A  1       28.981 -13.126   3.780  0.00  0.00    -0.249 OA
BRANCH   5   7
ATOM      7  OXT ASP A  1       27.991 -15.139   4.086  0.00  0.00    -0.479 OA
ATOM      8  HXT ASP A  1       28.589 -15.229   4.868  0.00  0.00    +0.295 HD
ENDBRANCH   5   7
ENDBRANCH   1   5
BRANCH   1   9
ATOM      9  CB  ASP A  1       25.514 -13.583   4.246  0.00  0.00    +0.150 C 
BRANCH   9  10
ATOM     10  CG  ASP A  1       24.137 -13.933   3.714  0.00  0.00    +0.307 C 
ATOM     11  OD1 ASP A  1       23.445 -14.799   4.240  0.00  0.00    -0.251 OA
BRANCH  10  12
ATOM     12  OD2 ASP A  1       23.659 -13.195   2.701  0.00  0.00    -0.481 OA
ATOM     13  HD2 ASP A  1       24.109 -13.265   1.823  0.00  0.00    +0.295 HD
ENDBRANCH  10  12
ENDBRANCH   9  10
ENDBRANCH   1   9
TORSDOF 6
ENDMDL
MODEL 3
REMARK VINA RESULT:      -4.2      2.241      3.429
REMARK  Name = *****
REMARK                            x       y       z     vdW  Elec       q    Type
REMARK                         _______ _______ _______ _____ _____    ______ ____
ROOT
ATOM      1  CA  ASP A  1       26.026 -13.494   3.942  0.00  0.00    +0.171 C 
ENDROOT
BRANCH   1   2
ATOM      2  N   ASP A  1       24.643 -13.768   4.442  0.00  0.00    -0.318 NA
ATOM      3  H1  ASP A  1       23.984 -13.688   3.657  0.00  0.00    +0.119 HD
ATOM      4  H2  ASP A  1       24.577 -14.752   4.718  0.00  0.00    +0.119 HD
ENDBRANCH   1   2
BRANCH   1   5
ATOM      5  C   ASP A  1       26.367 -14.646   2.978  0.00  0.00    +0.322 C 
ATOM      6  O   ASP A  1       26.201 -15.825   3.217  0.00  0.00    -0.249 OA
BRANCH   5   7
ATOM      7  OXT ASP A  1       26.879 -14.184   1.812  0.00  0.00    -0.479 OA
ATOM      8  HXT ASP A  1       27.853 -14.356   1.825  0.00  0.00    +0.295 HD
ENDBRANCH   5   7
ENDBRANCH   1   5
BRANCH   1   9
ATOM      9  CB  ASP A  1       27.025 -13.372   5.091  0.00  0.00    +0.150 C 
BRANCH   9  10
ATOM     10  CG  ASP A  1       28.395 -12.822   4.742  0.00  0.00    +0.307 C 
ATOM     11  OD1 ASP A  1       28.952 -13.103   3.687  0.00  0.00    -0.251 OA
BRANCH  10  12
ATOM     12  OD2 ASP A  1       28.939 -11.936   5.590  0.00  0.00    -0.481 OA
ATOM     13  HD2 ASP A  1       29.233 -12.262   6.478  0.00  0.00    +0.295 HD
ENDBRANCH  10  12
ENDBRANCH   9  10
ENDBRANCH   1   9
TORSDOF 6
ENDMDL
MODEL 4
REMARK VINA RESULT:      -4.2      6.646      6.974
REMARK  Name = *****
REMARK                            x       y       z     vdW  Elec       q    Type
REMARK                         _______ _______ _______ _____ _____    ______ ____
ROOT
ATOM      1  CA  ASP A  1       24.698 -20.321   3.834  0.00  0.00    +0.171 C 
ENDROOT
BRANCH   1   2
ATOM      2  N   ASP A  1       23.806 -21.511   3.991  0.00  0.00    -0.318 NA
ATOM      3  H1  ASP A  1       24.079 -22.023   4.840  0.00  0.00    +0.119 HD
ATOM      4  H2  ASP A  1       22.854 -21.190   4.194  0.00  0.00    +0.119 HD
ENDBRANCH   1   2
BRANCH   1   5
ATOM      5  C   ASP A  1       25.664 -20.353   5.034  0.00  0.00    +0.322 C 
ATOM      6  O   ASP A  1       25.341 -20.574   6.182  0.00  0.00    -0.249 OA
BRANCH   5   7
ATOM      7  OXT ASP A  1       26.940 -20.103   4.650  0.00  0.00    -0.479 OA
ATOM      8  HXT ASP A  1       26.956 -19.206   4.233  0.00  0.00    +0.295 HD
ENDBRANCH   5   7
ENDBRANCH   1   5
BRANCH   1   9
ATOM      9  CB  ASP A  1       23.896 -19.023   3.757  0.00  0.00    +0.150 C 
BRANCH   9  10
ATOM     10  CG  ASP A  1       22.588 -18.990   4.524  0.00  0.00    +0.307 C 
ATOM     11  OD1 ASP A  1       21.581 -18.467   4.058  0.00  0.00    -0.251 OA
BRANCH  10  12
ATOM     12  OD2 ASP A  1       22.542 -19.638   5.697  0.00  0.00    -0.481 OA
ATOM     13  HD2 ASP A  1       21.654 -19.822   6.093  0.00  0.00    +0.295 HD
ENDBRANCH  10  12
ENDBRANCH   9  10
ENDBRANCH   1   9
TORSDOF 6
ENDMDL
MODEL 5
REMARK VINA RESULT:      -4.1      1.491      3.574
REMARK  Name = *****
REMARK                            x       y       z     vdW  Elec       q    Type
REMARK                         _______ _______ _______ _____ _____    ______ ____
ROOT
ATOM      1  CA  ASP A  1       24.777 -13.664   4.472  0.00  0.00    +0.171 C 
ENDROOT
BRANCH   1   2
ATOM      2  N   ASP A  1       24.095 -14.940   4.090  0.00  0.00    -0.318 NA
ATOM      3  H1  ASP A  1       24.395 -15.208   3.144  0.00  0.00    +0.119 HD
ATOM      4  H2  ASP A  1       24.448 -15.697   4.683  0.00  0.00    +0.119 HD
ENDBRANCH   1   2
BRANCH   1   5
ATOM      5  C   ASP A  1       24.040 -12.544   3.712  0.00  0.00    +0.322 C 
ATOM      6  O   ASP A  1       23.686 -11.490   4.199  0.00  0.00    -0.249 OA
BRANCH   5   7
ATOM      7  OXT ASP A  1       23.833 -12.877   2.416  0.00  0.00    -0.479 OA
ATOM      8  HXT ASP A  1       22.874 -12.735   2.221  0.00  0.00    +0.295 HD
ENDBRANCH   5   7
ENDBRANCH   1   5
BRANCH   1   9
ATOM      9  CB  ASP A  1       26.271 -13.708   4.154  0.00  0.00    +0.150 C 
BRANCH   9  10
ATOM     10  CG  ASP A  1       26.708 -14.706   3.099  0.00  0.00    +0.307 C 
ATOM     11  OD1 ASP A  1       27.045 -15.848   3.392  0.00  0.00    -0.251 OA
BRANCH  10  12
ATOM     12  OD2 ASP A  1       26.625 -14.325   1.815  0.00  0.00    -0.481 OA
ATOM     13  HD2 ASP A  1       26.267 -14.974   1.160  0.00  0.00    +0.295 HD
ENDBRANCH  10  12
ENDBRANCH   9  10
ENDBRANCH   1   9
TORSDOF 6
ENDMDL
MODEL 6
REMARK VINA RESULT:      -4.0      2.091      2.215
REMARK  Name = *****
REMARK                            x       y       z     vdW  Elec       q    Type
REMARK                         _______ _______ _______ _____ _____    ______ ____
ROOT
ATOM      1  CA  ASP A  1       26.905 -14.266   3.415  0.00  0.00    +0.171 C 
ENDROOT
BRANCH   1   2
ATOM      2  N   ASP A  1       26.658 -14.012   1.961  0.00  0.00    -0.318 NA
ATOM      3  H1  ASP A  1       27.510 -13.615   1.543  0.00  0.00    +0.119 HD
ATOM      4  H2  ASP A  1       26.545 -14.910   1.480  0.00  0.00    +0.119 HD
ENDBRANCH   1   2
BRANCH   1   5
ATOM      5  C   ASP A  1       26.954 -15.797   3.577  0.00  0.00    +0.322 C 
ATOM      6  O   ASP A  1       26.114 -16.568   3.163  0.00  0.00    -0.249 OA
BRANCH   5   7
ATOM      7  OXT ASP A  1       28.067 -16.190   4.244  0.00  0.00    -0.479 OA
ATOM      8  HXT ASP A  1       27.813 -16.947   4.827  0.00  0.00    +0.295 HD
ENDBRANCH   5   7
ENDBRANCH   1   5
BRANCH   1   9
ATOM      9  CB  ASP A  1       25.834 -13.615   4.288  0.00  0.00    +0.150 C 
BRANCH   9  10
ATOM     10  CG  ASP A  1       24.406 -13.698   3.783  0.00  0.00    +0.307 C 
ATOM     11  OD1 ASP A  1       23.950 -12.871   3.002  0.00  0.00    -0.251 OA
BRANCH  10  12
ATOM     12  OD2 ASP A  1       23.683 -14.767   4.148  0.00  0.00    -0.481 OA
ATOM     13  HD2 ASP A  1       24.050 -15.666   3.953  0.00  0.00    +0.295 HD
ENDBRANCH  10  12
ENDBRANCH   9  10
ENDBRANCH   1   9
TORSDOF 6
ENDMDL
MODEL 7
REMARK VINA RESULT:      -3.9      7.358      7.653
REMARK  Name = *****
REMARK                            x       y       z     vdW  Elec       q    Type
REMARK                         _______ _______ _______ _____ _____    ______ ____
ROOT
ATOM      1  CA  ASP A  1       25.000 -21.335   5.744  0.00  0.00    +0.171 C 
ENDROOT
BRANCH   1   2
ATOM      2  N   ASP A  1       24.286 -21.322   7.059  0.00  0.00    -0.318 NA
ATOM      3  H1  ASP A  1       24.043 -20.351   7.297  0.00  0.00    +0.119 HD
ATOM      4  H2  ASP A  1       23.377 -21.782   6.950  0.00  0.00    +0.119 HD
ENDBRANCH   1   2
BRANCH   1   5
ATOM      5  C   ASP A  1       26.280 -20.503   5.947  0.00  0.00    +0.322 C 
ATOM      6  O   ASP A  1       26.772 -20.234   7.023  0.00  0.00    -0.249 OA
BRANCH   5   7
ATOM      7  OXT ASP A  1       26.804 -20.101   4.764  0.00  0.00    -0.479 OA
ATOM      8  HXT ASP A  1       27.598 -20.662   4.583  0.00  0.00    +0.295 HD
ENDBRANCH   5   7
ENDBRANCH   1   5
BRANCH   1   9
ATOM      9  CB  ASP A  1       24.117 -20.794   4.620  0.00  0.00    +0.150 C 
BRANCH   9  10
ATOM     10  CG  ASP A  1       22.694 -20.425   4.995  0.00  0.00    +0.307 C 
ATOM     11  OD1 ASP A  1       22.379 -19.272   5.270  0.00  0.00    -0.251 OA
BRANCH  10  12
ATOM     12  OD2 ASP A  1       21.766 -21.391   4.924  0.00  0.00    -0.481 OA
ATOM     13  HD2 ASP A  1       22.031 -22.261   4.534  0.00  0.00    +0.295 HD
ENDBRANCH  10  12
ENDBRANCH   9  10
ENDBRANCH   1   9
TORSDOF 6
ENDMDL
MODEL 8
REMARK VINA RESULT:      -3.9      1.779      3.650
REMARK  Name = *****
REMARK                            x       y       z     vdW  Elec       q    Type
REMARK                         _______ _______ _______ _____ _____    ______ ____
ROOT
ATOM      1  CA  ASP A  1       25.270 -13.769   3.170  0.00  0.00    +0.171 C 
ENDROOT
BRANCH   1   2
ATOM      2  N   ASP A  1       26.022 -14.024   1.902  0.00  0.00    -0.318 NA
ATOM      3  H1  ASP A  1       25.705 -14.916   1.500  0.00  0.00    +0.119 HD
ATOM      4  H2  ASP A  1       25.745 -13.328   1.203  0.00  0.00    +0.119 HD
ENDBRANCH   1   2
BRANCH   1   5
ATOM      5  C   ASP A  1       24.469 -12.474   2.936  0.00  0.00    +0.322 C 
ATOM      6  O   ASP A  1       24.388 -11.888   1.877  0.00  0.00    -0.249 OA
BRANCH   5   7
ATOM      7  OXT ASP A  1       23.854 -12.060   4.070  0.00  0.00    -0.479 OA
ATOM      8  HXT ASP A  1       23.142 -11.425   3.808  0.00  0.00    +0.295 HD
ENDBRANCH   5   7
ENDBRANCH   1   5
BRANCH   1   9
ATOM      9  CB  ASP A  1       26.210 -13.673   4.370  0.00  0.00    +0.150 C 
BRANCH   9  10
ATOM     10  CG  ASP A  1       27.667 -14.008   4.118  0.00  0.00    +0.307 C 
ATOM     11  OD1 ASP A  1       28.518 -13.133   4.002  0.00  0.00    -0.251 OA
BRANCH  10  12
ATOM     12  OD2 ASP A  1       28.012 -15.305   4.120  0.00  0.00    -0.481 OA
ATOM     13  HD2 ASP A  1       27.298 -15.976   3.985  0.00  0.00    +0.295 HD
ENDBRANCH  10  12
ENDBRANCH   9  10
ENDBRANCH   1   9
TORSDOF 6
ENDMDL
MODEL 9
REMARK VINA RESULT:      -3.8      7.101      7.996
REMARK  Name = *****
REMARK                            x       y       z     vdW  Elec       q    Type
REMARK                         _______ _______ _______ _____ _____    ______ ____
ROOT
ATOM      1  CA  ASP A  1       23.942 -20.593   4.154  0.00  0.00    +0.171 C 
ENDROOT
BRANCH   1   2
ATOM      2  N   ASP A  1       24.477 -19.263   3.727  0.00  0.00    -0.318 NA
ATOM      3  H1  ASP A  1       25.263 -19.412   3.081  0.00  0.00    +0.119 HD
ATOM      4  H2  ASP A  1       23.774 -18.788   3.152  0.00  0.00    +0.119 HD
ENDBRANCH   1   2
BRANCH   1   5
ATOM      5  C   ASP A  1       22.649 -20.299   4.938  0.00  0.00    +0.322 C 
ATOM      6  O   ASP A  1       22.386 -19.244   5.477  0.00  0.00    -0.249 OA
BRANCH   5   7
ATOM      7  OXT ASP A  1       21.823 -21.373   4.954  0.00  0.00    -0.479 OA
ATOM      8  HXT ASP A  1       22.360 -22.165   4.704  0.00  0.00    +0.295 HD
ENDBRANCH   5   7
ENDBRANCH   1   5
BRANCH   1   9
ATOM      9  CB  ASP A  1       24.966 -21.373   4.977  0.00  0.00    +0.150 C 
BRANCH   9  10
ATOM     10  CG  ASP A  1       26.029 -20.555   5.685  0.00  0.00    +0.307 C 
ATOM     11  OD1 ASP A  1       25.985 -20.351   6.894  0.00  0.00    -0.251 OA
BRANCH  10  12
ATOM     12  OD2 ASP A  1       27.076 -20.140   4.958  0.00  0.00    -0.481 OA
ATOM     13  HD2 ASP A  1       26.983 -19.297   4.448  0.00  0.00    +0.295 HD
ENDBRANCH  10  12
ENDBRANCH   9  10
ENDBRANCH   1   9
TORSDOF 6
ENDMDL
