MODEL 1
REMARK VINA RESULT:      -7.9      0.000      0.000
REMARK  Name = *****
REMARK                            x       y       z     vdW  Elec       q    Type
REMARK                         _______ _______ _______ _____ _____    ______ ____
ROOT
ATOM      1  C   LIG    1       25.557 -29.936   8.860  0.00  0.00    +0.142 C 
ATOM      2  C   LIG    1       24.293 -29.922   9.719  0.00  0.00    +0.237 C 
ATOM      3  O   LIG    1       23.213 -30.140   9.141  0.00  0.00    -0.274 OA
ATOM      4  N   LIG    1       24.256 -29.740  11.105  0.00  0.00    -0.259 N 
ATOM      5  C   LIG    1       25.097 -28.882  11.931  0.00  0.00    +0.040 A 
ATOM      6  C   LIG    1       26.257 -28.218  11.496  0.00  0.00    -0.026 A 
ATOM      7  C   LIG    1       26.818 -27.173  12.280  0.00  0.00    +0.005 A 
ATOM      8  C   LIG    1       26.352 -26.877  13.552  0.00  0.00    +0.000 A 
ATOM      9  C   LIG    1       25.337 -27.649  14.075  0.00  0.00    +0.002 A 
ATOM     10  C   LIG    1       27.094 -28.586  10.301  0.00  0.00    +0.039 C 
ATOM     11  C   LIG    1       24.720 -28.621  13.274  0.00  0.00    +0.024 A 
ATOM     12  C   LIG    1       26.801 -29.962   9.736  0.00  0.00    +0.033 C 
ENDROOT
BRANCH   1  13
ATOM     13  N   LIG    1       25.611 -28.866   7.819  0.00  0.00    -0.293 NA
ATOM     14  H   LIG    1       26.510 -28.939   7.345  0.00  0.00    +0.123 HD
BRANCH  13  15
ATOM     15  C   LIG    1       24.531 -28.818   6.778  0.00  0.00    +0.164 C 
BRANCH  15  16
ATOM     16  C   LIG    1       24.384 -30.099   5.949  0.00  0.00    +0.324 C 
ATOM     17  O   LIG    1       23.355 -30.793   5.886  0.00  0.00    -0.249 OA
BRANCH  16  18
ATOM     18  O   LIG    1       25.557 -30.377   5.288  0.00  0.00    -0.464 OA
BRANCH  18  20
ATOM     19  C   LIG    1       26.737 -32.325   6.161  0.00  0.00    +0.048 C 
ATOM     20  C   LIG    1       25.892 -31.762   5.031  0.00  0.00    +0.229 C 
ENDBRANCH  18  20
ENDBRANCH  16  18
ENDBRANCH  15  16
BRANCH  15  21
ATOM     21  C   LIG    1       24.744 -27.591   5.818  0.00  0.00    +0.035 C 
BRANCH  21  22
ATOM     22  C   LIG    1       25.701 -26.482   6.319  0.00  0.00    +0.037 C 
BRANCH  22  23
ATOM     23  C   LIG    1       25.101 -25.097   6.531  0.00  0.00    -0.047 A 
ATOM     24  C   LIG    1       23.722 -24.877   6.392  0.00  0.00    +0.003 A 
ATOM     25  C   LIG    1       23.153 -23.638   6.716  0.00  0.00    +0.000 A 
ATOM     26  C   LIG    1       23.952 -22.593   7.173  0.00  0.00    +0.000 A 
ATOM     27  C   LIG    1       25.323 -22.788   7.309  0.00  0.00    +0.000 A 
ATOM     28  C   LIG    1       25.892 -24.032   7.000  0.00  0.00    +0.003 A 
ENDBRANCH  22  23
ENDBRANCH  21  22
ENDBRANCH  15  21
ENDBRANCH  13  15
ENDBRANCH   1  13
BRANCH   4  29
ATOM     29  C   LIG    1       23.025 -30.300  11.718  0.00  0.00    +0.234 C 
BRANCH  29  30
ATOM     30  C   LIG    1       23.104 -31.767  12.107  0.00  0.00    +0.323 C 
ATOM     31  O   LIG    1       24.130 -32.219  12.635  0.00  0.00    -0.249 OA
BRANCH  30  32
ATOM     32  O   LIG    1       22.072 -32.550  11.769  0.00  0.00    -0.479 OA
ATOM     33  H   LIG    1       22.079 -33.387  12.304  0.00  0.00    +0.295 HD
ENDBRANCH  30  32
ENDBRANCH  29  30
ENDBRANCH   4  29
TORSDOF 11
ENDMDL
MODEL 2
REMARK VINA RESULT:      -7.8      0.906      1.010
REMARK  Name = *****
REMARK                            x       y       z     vdW  Elec       q    Type
REMARK                         _______ _______ _______ _____ _____    ______ ____
ROOT
ATOM      1  C   LIG    1       25.562 -29.971   8.863  0.00  0.00    +0.142 C 
ATOM      2  C   LIG    1       24.319 -30.060   9.749  0.00  0.00    +0.237 C 
ATOM      3  O   LIG    1       23.241 -30.319   9.186  0.00  0.00    -0.274 OA
ATOM      4  N   LIG    1       24.305 -29.928  11.140  0.00  0.00    -0.259 N 
ATOM      5  C   LIG    1       25.114 -29.053  11.979  0.00  0.00    +0.040 A 
ATOM      6  C   LIG    1       26.224 -28.308  11.543  0.00  0.00    -0.026 A 
ATOM      7  C   LIG    1       26.743 -27.260  12.352  0.00  0.00    +0.005 A 
ATOM      8  C   LIG    1       26.291 -27.036  13.643  0.00  0.00    +0.000 A 
ATOM      9  C   LIG    1       25.334 -27.882  14.160  0.00  0.00    +0.002 A 
ATOM     10  C   LIG    1       27.053 -28.586  10.318  0.00  0.00    +0.039 C 
ATOM     11  C   LIG    1       24.754 -28.859  13.338  0.00  0.00    +0.024 A 
ATOM     12  C   LIG    1       26.826 -29.956   9.711  0.00  0.00    +0.033 C 
ENDROOT
BRANCH   1  13
ATOM     13  N   LIG    1       25.531 -28.865   7.859  0.00  0.00    -0.293 NA
ATOM     14  H   LIG    1       26.432 -28.851   7.385  0.00  0.00    +0.123 HD
BRANCH  13  15
ATOM     15  C   LIG    1       24.450 -28.866   6.819  0.00  0.00    +0.164 C 
BRANCH  15  16
ATOM     16  C   LIG    1       24.368 -30.148   5.982  0.00  0.00    +0.324 C 
ATOM     17  O   LIG    1       23.353 -30.856   5.862  0.00  0.00    -0.249 OA
BRANCH  16  18
ATOM     18  O   LIG    1       25.580 -30.409   5.390  0.00  0.00    -0.464 OA
BRANCH  18  20
ATOM     19  C   LIG    1       26.852 -32.331   6.190  0.00  0.00    +0.048 C 
ATOM     20  C   LIG    1       25.928 -31.787   5.112  0.00  0.00    +0.229 C 
ENDBRANCH  18  20
ENDBRANCH  16  18
ENDBRANCH  15  16
BRANCH  15  21
ATOM     21  C   LIG    1       24.601 -27.625   5.865  0.00  0.00    +0.035 C 
BRANCH  21  22
ATOM     22  C   LIG    1       25.611 -26.536   6.305  0.00  0.00    +0.037 C 
BRANCH  22  23
ATOM     23  C   LIG    1       25.061 -25.130   6.518  0.00  0.00    -0.047 A 
ATOM     24  C   LIG    1       23.685 -24.870   6.420  0.00  0.00    +0.003 A 
ATOM     25  C   LIG    1       23.166 -23.610   6.746  0.00  0.00    +0.000 A 
ATOM     26  C   LIG    1       24.010 -22.585   7.164  0.00  0.00    +0.000 A 
ATOM     27  C   LIG    1       25.379 -22.821   7.260  0.00  0.00    +0.000 A 
ATOM     28  C   LIG    1       25.899 -24.085   6.948  0.00  0.00    +0.003 A 
ENDBRANCH  22  23
ENDBRANCH  21  22
ENDBRANCH  15  21
ENDBRANCH  13  15
ENDBRANCH   1  13
BRANCH   4  29
ATOM     29  C   LIG    1       23.122 -30.578  11.760  0.00  0.00    +0.234 C 
BRANCH  29  30
ATOM     30  C   LIG    1       21.809 -29.830  11.591  0.00  0.00    +0.323 C 
ATOM     31  O   LIG    1       21.589 -28.800  12.246  0.00  0.00    -0.249 OA
BRANCH  30  32
ATOM     32  O   LIG    1       20.886 -30.377  10.793  0.00  0.00    -0.479 OA
ATOM     33  H   LIG    1       21.009 -31.362  10.738  0.00  0.00    +0.295 HD
ENDBRANCH  30  32
ENDBRANCH  29  30
ENDBRANCH   4  29
TORSDOF 11
ENDMDL
MODEL 3
REMARK VINA RESULT:      -7.8      6.951     10.043
REMARK  Name = *****
REMARK                            x       y       z     vdW  Elec       q    Type
REMARK                         _______ _______ _______ _____ _____    ______ ____
ROOT
ATOM      1  C   LIG    1       28.856 -20.322   5.806  0.00  0.00    +0.142 C 
ATOM      2  C   LIG    1       28.988 -21.035   7.152  0.00  0.00    +0.237 C 
ATOM      3  O   LIG    1       28.328 -22.077   7.307  0.00  0.00    -0.274 OA
ATOM      4  N   LIG    1       29.830 -20.643   8.197  0.00  0.00    -0.259 N 
ATOM      5  C   LIG    1       30.181 -19.294   8.624  0.00  0.00    +0.040 A 
ATOM      6  C   LIG    1       29.888 -18.115   7.916  0.00  0.00    -0.026 A 
ATOM      7  C   LIG    1       29.993 -16.851   8.560  0.00  0.00    +0.005 A 
ATOM      8  C   LIG    1       30.529 -16.716   9.831  0.00  0.00    +0.000 A 
ATOM      9  C   LIG    1       31.002 -17.844  10.467  0.00  0.00    +0.002 A 
ATOM     10  C   LIG    1       29.585 -18.015   6.446  0.00  0.00    +0.039 C 
ATOM     11  C   LIG    1       30.820 -19.103   9.877  0.00  0.00    +0.024 A 
ATOM     12  C   LIG    1       29.934 -19.259   5.653  0.00  0.00    +0.033 C 
ENDROOT
BRANCH   1  13
ATOM     13  N   LIG    1       27.488 -19.797   5.514  0.00  0.00    -0.293 NA
ATOM     14  H   LIG    1       27.464 -19.521   4.534  0.00  0.00    +0.123 HD
BRANCH  13  15
ATOM     15  C   LIG    1       26.304 -20.679   5.785  0.00  0.00    +0.164 C 
BRANCH  15  16
ATOM     16  C   LIG    1       25.252 -20.697   4.670  0.00  0.00    +0.324 C 
ATOM     17  O   LIG    1       24.719 -21.722   4.210  0.00  0.00    -0.249 OA
BRANCH  16  18
ATOM     18  O   LIG    1       24.985 -19.418   4.244  0.00  0.00    -0.464 OA
BRANCH  18  20
ATOM     19  C   LIG    1       22.644 -19.185   4.886  0.00  0.00    +0.048 C 
ATOM     20  C   LIG    1       23.656 -19.118   3.754  0.00  0.00    +0.229 C 
ENDBRANCH  18  20
ENDBRANCH  16  18
ENDBRANCH  15  16
BRANCH  15  21
ATOM     21  C   LIG    1       25.622 -20.285   7.145  0.00  0.00    +0.035 C 
BRANCH  21  22
ATOM     22  C   LIG    1       25.359 -21.439   8.144  0.00  0.00    +0.037 C 
BRANCH  22  23
ATOM     23  C   LIG    1       24.823 -22.743   7.565  0.00  0.00    -0.047 A 
ATOM     24  C   LIG    1       23.473 -22.875   7.208  0.00  0.00    +0.003 A 
ATOM     25  C   LIG    1       23.010 -24.024   6.553  0.00  0.00    +0.000 A 
ATOM     26  C   LIG    1       23.883 -25.067   6.255  0.00  0.00    +0.000 A 
ATOM     27  C   LIG    1       25.225 -24.959   6.609  0.00  0.00    +0.000 A 
ATOM     28  C   LIG    1       25.693 -23.804   7.250  0.00  0.00    +0.003 A 
ENDBRANCH  22  23
ENDBRANCH  21  22
ENDBRANCH  15  21
ENDBRANCH  13  15
ENDBRANCH   1  13
BRANCH   4  29
ATOM     29  C   LIG    1       30.157 -21.765   9.113  0.00  0.00    +0.234 C 
BRANCH  29  30
ATOM     30  C   LIG    1       31.595 -22.252   9.054  0.00  0.00    +0.323 C 
ATOM     31  O   LIG    1       32.516 -21.531   9.464  0.00  0.00    -0.249 OA
BRANCH  30  32
ATOM     32  O   LIG    1       31.823 -23.429   8.460  0.00  0.00    -0.479 OA
ATOM     33  H   LIG    1       31.338 -23.485   7.595  0.00  0.00    +0.295 HD
ENDBRANCH  30  32
ENDBRANCH  29  30
ENDBRANCH   4  29
TORSDOF 11
ENDMDL
MODEL 4
REMARK VINA RESULT:      -7.4      8.972     11.877
REMARK  Name = *****
REMARK                            x       y       z     vdW  Elec       q    Type
REMARK                         _______ _______ _______ _____ _____    ______ ____
ROOT
ATOM      1  C   LIG    1       28.506 -20.506   6.708  0.00  0.00    +0.142 C 
ATOM      2  C   LIG    1       27.694 -19.867   5.581  0.00  0.00    +0.237 C 
ATOM      3  O   LIG    1       28.219 -18.916   4.975  0.00  0.00    -0.274 OA
ATOM      4  N   LIG    1       26.439 -20.297   5.142  0.00  0.00    -0.259 N 
ATOM      5  C   LIG    1       25.338 -20.842   5.929  0.00  0.00    +0.040 A 
ATOM      6  C   LIG    1       25.417 -21.229   7.278  0.00  0.00    -0.026 A 
ATOM      7  C   LIG    1       24.229 -21.448   8.029  0.00  0.00    +0.005 A 
ATOM      8  C   LIG    1       22.975 -21.445   7.437  0.00  0.00    +0.000 A 
ATOM      9  C   LIG    1       22.893 -21.259   6.074  0.00  0.00    +0.002 A 
ATOM     10  C   LIG    1       26.673 -21.583   8.027  0.00  0.00    +0.039 C 
ATOM     11  C   LIG    1       24.050 -20.953   5.343  0.00  0.00    +0.024 A 
ATOM     12  C   LIG    1       27.880 -21.823   7.141  0.00  0.00    +0.033 C 
ENDROOT
BRANCH   1  13
ATOM     13  N   LIG    1       28.788 -19.599   7.861  0.00  0.00    -0.293 NA
ATOM     14  H   LIG    1       28.882 -20.176   8.695  0.00  0.00    +0.123 HD
BRANCH  13  15
ATOM     15  C   LIG    1       29.975 -18.684   7.785  0.00  0.00    +0.164 C 
BRANCH  15  16
ATOM     16  C   LIG    1       31.330 -19.397   7.719  0.00  0.00    +0.324 C 
ATOM     17  O   LIG    1       32.086 -19.401   6.732  0.00  0.00    -0.249 OA
BRANCH  16  18
ATOM     18  O   LIG    1       31.588 -20.042   8.905  0.00  0.00    -0.464 OA
BRANCH  18  20
ATOM     19  C   LIG    1       30.642 -22.159   9.663  0.00  0.00    +0.048 C 
ATOM     20  C   LIG    1       31.757 -21.480   8.885  0.00  0.00    +0.229 C 
ENDBRANCH  18  20
ENDBRANCH  16  18
ENDBRANCH  15  16
BRANCH  15  21
ATOM     21  C   LIG    1       29.971 -17.673   8.990  0.00  0.00    +0.035 C 
BRANCH  21  22
ATOM     22  C   LIG    1       31.293 -16.910   9.254  0.00  0.00    +0.037 C 
BRANCH  22  23
ATOM     23  C   LIG    1       31.651 -16.633  10.709  0.00  0.00    -0.047 A 
ATOM     24  C   LIG    1       31.147 -17.436  11.743  0.00  0.00    +0.003 A 
ATOM     25  C   LIG    1       31.581 -17.265  13.065  0.00  0.00    +0.000 A 
ATOM     26  C   LIG    1       32.516 -16.283  13.379  0.00  0.00    +0.000 A 
ATOM     27  C   LIG    1       33.022 -15.471  12.368  0.00  0.00    +0.000 A 
ATOM     28  C   LIG    1       32.601 -15.650  11.043  0.00  0.00    +0.003 A 
ENDBRANCH  22  23
ENDBRANCH  21  22
ENDBRANCH  15  21
ENDBRANCH  13  15
ENDBRANCH   1  13
BRANCH   4  29
ATOM     29  C   LIG    1       26.149 -19.873   3.749  0.00  0.00    +0.234 C 
BRANCH  29  30
ATOM     30  C   LIG    1       25.481 -18.515   3.611  0.00  0.00    +0.323 C 
ATOM     31  O   LIG    1       24.289 -18.371   3.917  0.00  0.00    -0.249 OA
BRANCH  30  32
ATOM     32  O   LIG    1       26.201 -17.528   3.063  0.00  0.00    -0.479 OA
ATOM     33  H   LIG    1       25.908 -16.645   3.413  0.00  0.00    +0.295 HD
ENDBRANCH  30  32
ENDBRANCH  29  30
ENDBRANCH   4  29
TORSDOF 11
ENDMDL
MODEL 5
REMARK VINA RESULT:      -7.0      6.055     10.072
REMARK  Name = *****
REMARK                            x       y       z     vdW  Elec       q    Type
REMARK                         _______ _______ _______ _____ _____    ______ ____
ROOT
ATOM      1  C   LIG    1       26.776 -21.950   7.473  0.00  0.00    +0.142 C 
ATOM      2  C   LIG    1       25.995 -23.150   6.939  0.00  0.00    +0.237 C 
ATOM      3  O   LIG    1       26.633 -24.201   6.747  0.00  0.00    -0.274 OA
ATOM      4  N   LIG    1       24.617 -23.180   6.702  0.00  0.00    -0.259 N 
ATOM      5  C   LIG    1       23.758 -22.114   6.202  0.00  0.00    +0.040 A 
ATOM      6  C   LIG    1       24.135 -20.768   6.055  0.00  0.00    -0.026 A 
ATOM      7  C   LIG    1       23.337 -19.884   5.276  0.00  0.00    +0.005 A 
ATOM      8  C   LIG    1       22.101 -20.261   4.773  0.00  0.00    +0.000 A 
ATOM      9  C   LIG    1       21.626 -21.519   5.073  0.00  0.00    +0.002 A 
ATOM     10  C   LIG    1       25.270 -20.082   6.763  0.00  0.00    +0.039 C 
ATOM     11  C   LIG    1       22.444 -22.425   5.762  0.00  0.00    +0.024 A 
ATOM     12  C   LIG    1       25.827 -20.857   7.942  0.00  0.00    +0.033 C 
ENDROOT
BRANCH   1  13
ATOM     13  N   LIG    1       27.832 -21.435   6.549  0.00  0.00    -0.293 NA
ATOM     14  H   LIG    1       27.390 -21.237   5.653  0.00  0.00    +0.123 HD
BRANCH  13  15
ATOM     15  C   LIG    1       28.625 -20.230   6.961  0.00  0.00    +0.164 C 
BRANCH  15  16
ATOM     16  C   LIG    1       28.791 -19.169   5.867  0.00  0.00    +0.324 C 
ATOM     17  O   LIG    1       29.753 -18.388   5.772  0.00  0.00    -0.249 OA
BRANCH  16  18
ATOM     18  O   LIG    1       27.718 -19.198   5.008  0.00  0.00    -0.464 OA
BRANCH  18  20
ATOM     19  C   LIG    1       26.115 -18.183   3.475  0.00  0.00    +0.048 C 
ATOM     20  C   LIG    1       27.406 -18.000   4.256  0.00  0.00    +0.229 C 
ENDBRANCH  18  20
ENDBRANCH  16  18
ENDBRANCH  15  16
BRANCH  15  21
ATOM     21  C   LIG    1       30.040 -20.657   7.498  0.00  0.00    +0.035 C 
BRANCH  21  22
ATOM     22  C   LIG    1       30.359 -20.286   8.967  0.00  0.00    +0.037 C 
BRANCH  22  23
ATOM     23  C   LIG    1       30.769 -18.844   9.241  0.00  0.00    -0.047 A 
ATOM     24  C   LIG    1       30.150 -18.097  10.255  0.00  0.00    +0.003 A 
ATOM     25  C   LIG    1       30.616 -16.820  10.596  0.00  0.00    +0.000 A 
ATOM     26  C   LIG    1       31.699 -16.261   9.923  0.00  0.00    +0.000 A 
ATOM     27  C   LIG    1       32.321 -16.983   8.908  0.00  0.00    +0.000 A 
ATOM     28  C   LIG    1       31.866 -18.267   8.576  0.00  0.00    +0.003 A 
ENDBRANCH  22  23
ENDBRANCH  21  22
ENDBRANCH  15  21
ENDBRANCH  13  15
ENDBRANCH   1  13
BRANCH   4  29
ATOM     29  C   LIG    1       24.069 -24.560   6.719  0.00  0.00    +0.234 C 
BRANCH  29  30
ATOM     30  C   LIG    1       24.329 -25.376   5.463  0.00  0.00    +0.323 C 
ATOM     31  O   LIG    1       24.194 -26.608   5.480  0.00  0.00    -0.249 OA
BRANCH  30  32
ATOM     32  O   LIG    1       24.794 -24.725   4.391  0.00  0.00    -0.479 OA
ATOM     33  H   LIG    1       24.631 -23.748   4.475  0.00  0.00    +0.295 HD
ENDBRANCH  30  32
ENDBRANCH  29  30
ENDBRANCH   4  29
TORSDOF 11
ENDMDL
MODEL 6
REMARK VINA RESULT:      -7.0      6.057     10.350
REMARK  Name = *****
REMARK                            x       y       z     vdW  Elec       q    Type
REMARK                         _______ _______ _______ _____ _____    ______ ____
ROOT
ATOM      1  C   LIG    1       25.859 -20.706   6.300  0.00  0.00    +0.142 C 
ATOM      2  C   LIG    1       26.782 -20.112   5.236  0.00  0.00    +0.237 C 
ATOM      3  O   LIG    1       26.417 -20.212   4.051  0.00  0.00    -0.274 OA
ATOM      4  N   LIG    1       27.971 -19.420   5.488  0.00  0.00    -0.259 N 
ATOM      5  C   LIG    1       28.960 -19.664   6.531  0.00  0.00    +0.040 A 
ATOM      6  C   LIG    1       28.794 -20.535   7.622  0.00  0.00    -0.026 A 
ATOM      7  C   LIG    1       29.919 -20.934   8.395  0.00  0.00    +0.005 A 
ATOM      8  C   LIG    1       31.173 -20.372   8.212  0.00  0.00    +0.000 A 
ATOM      9  C   LIG    1       31.313 -19.373   7.274  0.00  0.00    +0.002 A 
ATOM     10  C   LIG    1       27.482 -21.020   8.178  0.00  0.00    +0.039 C 
ATOM     11  C   LIG    1       30.232 -19.038   6.447  0.00  0.00    +0.024 A 
ATOM     12  C   LIG    1       26.275 -20.244   7.689  0.00  0.00    +0.033 C 
ENDROOT
BRANCH   1  13
ATOM     13  N   LIG    1       25.687 -22.187   6.215  0.00  0.00    -0.293 NA
ATOM     14  H   LIG    1       26.082 -22.594   7.061  0.00  0.00    +0.123 HD
BRANCH  13  15
ATOM     15  C   LIG    1       24.306 -22.743   6.026  0.00  0.00    +0.164 C 
BRANCH  15  16
ATOM     16  C   LIG    1       23.185 -21.895   6.639  0.00  0.00    +0.324 C 
ATOM     17  O   LIG    1       23.082 -21.617   7.846  0.00  0.00    -0.249 OA
BRANCH  16  18
ATOM     18  O   LIG    1       22.304 -21.492   5.664  0.00  0.00    -0.464 OA
BRANCH  18  20
ATOM     19  C   LIG    1       22.497 -19.169   4.947  0.00  0.00    +0.048 C 
ATOM     20  C   LIG    1       22.790 -20.622   4.613  0.00  0.00    +0.229 C 
ENDBRANCH  18  20
ENDBRANCH  16  18
ENDBRANCH  15  16
BRANCH  15  21
ATOM     21  C   LIG    1       24.220 -24.211   6.583  0.00  0.00    +0.035 C 
BRANCH  21  22
ATOM     22  C   LIG    1       25.492 -25.080   6.433  0.00  0.00    +0.037 C 
BRANCH  22  23
ATOM     23  C   LIG    1       25.308 -26.591   6.503  0.00  0.00    -0.047 A 
ATOM     24  C   LIG    1       25.904 -27.346   7.525  0.00  0.00    +0.003 A 
ATOM     25  C   LIG    1       25.626 -28.712   7.668  0.00  0.00    +0.000 A 
ATOM     26  C   LIG    1       24.759 -29.352   6.787  0.00  0.00    +0.000 A 
ATOM     27  C   LIG    1       24.163 -28.623   5.762  0.00  0.00    +0.000 A 
ATOM     28  C   LIG    1       24.428 -27.252   5.626  0.00  0.00    +0.003 A 
ENDBRANCH  22  23
ENDBRANCH  21  22
ENDBRANCH  15  21
ENDBRANCH  13  15
ENDBRANCH   1  13
BRANCH   4  29
ATOM     29  C   LIG    1       28.353 -18.521   4.370  0.00  0.00    +0.234 C 
BRANCH  29  30
ATOM     30  C   LIG    1       27.420 -17.343   4.139  0.00  0.00    +0.323 C 
ATOM     31  O   LIG    1       27.679 -16.236   4.632  0.00  0.00    -0.249 OA
BRANCH  30  32
ATOM     32  O   LIG    1       26.283 -17.579   3.474  0.00  0.00    -0.479 OA
ATOM     33  H   LIG    1       26.455 -18.143   2.674  0.00  0.00    +0.295 HD
ENDBRANCH  30  32
ENDBRANCH  29  30
ENDBRANCH   4  29
TORSDOF 11
ENDMDL
MODEL 7
REMARK VINA RESULT:      -6.8      5.351      9.879
REMARK  Name = *****
REMARK                            x       y       z     vdW  Elec       q    Type
REMARK                         _______ _______ _______ _____ _____    ______ ____
ROOT
ATOM      1  C   LIG    1       25.293 -21.347   7.025  0.00  0.00    +0.142 C 
ATOM      2  C   LIG    1       25.697 -21.014   5.589  0.00  0.00    +0.237 C 
ATOM      3  O   LIG    1       25.128 -21.644   4.680  0.00  0.00    -0.274 OA
ATOM      4  N   LIG    1       26.610 -20.024   5.212  0.00  0.00    -0.259 N 
ATOM      5  C   LIG    1       27.833 -19.611   5.890  0.00  0.00    +0.040 A 
ATOM      6  C   LIG    1       28.220 -20.007   7.182  0.00  0.00    -0.026 A 
ATOM      7  C   LIG    1       29.558 -19.804   7.620  0.00  0.00    +0.005 A 
ATOM      8  C   LIG    1       30.475 -19.083   6.871  0.00  0.00    +0.000 A 
ATOM      9  C   LIG    1       30.056 -18.519   5.686  0.00  0.00    +0.002 A 
ATOM     10  C   LIG    1       27.310 -20.528   8.260  0.00  0.00    +0.039 C 
ATOM     11  C   LIG    1       28.767 -18.790   5.205  0.00  0.00    +0.024 A 
ATOM     12  C   LIG    1       25.834 -20.304   7.991  0.00  0.00    +0.033 C 
ENDROOT
BRANCH   1  13
ATOM     13  N   LIG    1       25.613 -22.743   7.451  0.00  0.00    -0.293 NA
ATOM     14  H   LIG    1       25.237 -22.876   8.388  0.00  0.00    +0.123 HD
BRANCH  13  15
ATOM     15  C   LIG    1       25.151 -23.883   6.591  0.00  0.00    +0.164 C 
BRANCH  15  16
ATOM     16  C   LIG    1       23.639 -24.135   6.621  0.00  0.00    +0.324 C 
ATOM     17  O   LIG    1       23.099 -25.246   6.481  0.00  0.00    -0.249 OA
BRANCH  16  18
ATOM     18  O   LIG    1       22.963 -22.954   6.816  0.00  0.00    -0.464 OA
BRANCH  18  20
ATOM     19  C   LIG    1       22.128 -21.152   5.400  0.00  0.00    +0.048 C 
ATOM     20  C   LIG    1       21.934 -22.585   5.866  0.00  0.00    +0.229 C 
ENDBRANCH  18  20
ENDBRANCH  16  18
ENDBRANCH  15  16
BRANCH  15  21
ATOM     21  C   LIG    1       25.912 -25.205   6.972  0.00  0.00    +0.035 C 
BRANCH  21  22
ATOM     22  C   LIG    1       25.946 -26.316   5.893  0.00  0.00    +0.037 C 
BRANCH  22  23
ATOM     23  C   LIG    1       25.453 -27.697   6.308  0.00  0.00    -0.047 A 
ATOM     24  C   LIG    1       25.683 -28.188   7.602  0.00  0.00    +0.003 A 
ATOM     25  C   LIG    1       25.116 -29.397   8.025  0.00  0.00    +0.000 A 
ATOM     26  C   LIG    1       24.320 -30.144   7.161  0.00  0.00    +0.000 A 
ATOM     27  C   LIG    1       24.087 -29.678   5.870  0.00  0.00    +0.000 A 
ATOM     28  C   LIG    1       24.641 -28.461   5.450  0.00  0.00    +0.003 A 
ENDBRANCH  22  23
ENDBRANCH  21  22
ENDBRANCH  15  21
ENDBRANCH  13  15
ENDBRANCH   1  13
BRANCH   4  29
ATOM     29  C   LIG    1       26.404 -19.563   3.816  0.00  0.00    +0.234 C 
BRANCH  29  30
ATOM     30  C   LIG    1       25.419 -18.417   3.650  0.00  0.00    +0.323 C 
ATOM     31  O   LIG    1       24.205 -18.609   3.810  0.00  0.00    -0.249 OA
BRANCH  30  32
ATOM     32  O   LIG    1       25.906 -17.241   3.238  0.00  0.00    -0.479 OA
ATOM     33  H   LIG    1       26.421 -17.351   2.395  0.00  0.00    +0.295 HD
ENDBRANCH  30  32
ENDBRANCH  29  30
ENDBRANCH   4  29
TORSDOF 11
ENDMDL
MODEL 8
REMARK VINA RESULT:      -6.7      2.370      3.897
REMARK  Name = *****
REMARK                            x       y       z     vdW  Elec       q    Type
REMARK                         _______ _______ _______ _____ _____    ______ ____
ROOT
ATOM      1  C   LIG    1       23.462 -30.857  10.809  0.00  0.00    +0.142 C 
ATOM      2  C   LIG    1       21.934 -30.816  10.768  0.00  0.00    +0.237 C 
ATOM      3  O   LIG    1       21.379 -31.377   9.807  0.00  0.00    -0.274 OA
ATOM      4  N   LIG    1       21.112 -30.248  11.746  0.00  0.00    -0.259 N 
ATOM      5  C   LIG    1       21.346 -29.055  12.550  0.00  0.00    +0.040 A 
ATOM      6  C   LIG    1       22.562 -28.354  12.629  0.00  0.00    -0.026 A 
ATOM      7  C   LIG    1       22.596 -27.044  13.183  0.00  0.00    +0.005 A 
ATOM      8  C   LIG    1       21.491 -26.478  13.800  0.00  0.00    +0.000 A 
ATOM      9  C   LIG    1       20.341 -27.230  13.904  0.00  0.00    +0.002 A 
ATOM     10  C   LIG    1       23.924 -28.900  12.298  0.00  0.00    +0.039 C 
ATOM     11  C   LIG    1       20.272 -28.484  13.281  0.00  0.00    +0.024 A 
ATOM     12  C   LIG    1       23.975 -30.410  12.170  0.00  0.00    +0.033 C 
ENDROOT
BRANCH   1  13
ATOM     13  N   LIG    1       24.133 -30.143   9.681  0.00  0.00    -0.293 NA
ATOM     14  H   LIG    1       24.556 -29.296  10.057  0.00  0.00    +0.123 HD
BRANCH  13  15
ATOM     15  C   LIG    1       25.171 -30.874   8.882  0.00  0.00    +0.164 C 
BRANCH  15  16
ATOM     16  C   LIG    1       26.442 -31.235   9.660  0.00  0.00    +0.324 C 
ATOM     17  O   LIG    1       26.630 -32.308  10.259  0.00  0.00    -0.249 OA
BRANCH  16  18
ATOM     18  O   LIG    1       27.343 -30.198   9.610  0.00  0.00    -0.464 OA
BRANCH  18  20
ATOM     19  C   LIG    1       27.034 -28.134  10.873  0.00  0.00    +0.048 C 
ATOM     20  C   LIG    1       27.674 -29.512  10.841  0.00  0.00    +0.229 C 
ENDBRANCH  18  20
ENDBRANCH  16  18
ENDBRANCH  15  16
BRANCH  15  21
ATOM     21  C   LIG    1       25.557 -30.054   7.597  0.00  0.00    +0.035 C 
BRANCH  21  22
ATOM     22  C   LIG    1       24.452 -29.149   7.000  0.00  0.00    +0.037 C 
BRANCH  22  23
ATOM     23  C   LIG    1       24.872 -27.757   6.541  0.00  0.00    -0.047 A 
ATOM     24  C   LIG    1       24.155 -27.076   5.546  0.00  0.00    +0.003 A 
ATOM     25  C   LIG    1       24.459 -25.748   5.219  0.00  0.00    +0.000 A 
ATOM     26  C   LIG    1       25.493 -25.080   5.871  0.00  0.00    +0.000 A 
ATOM     27  C   LIG    1       26.222 -25.741   6.855  0.00  0.00    +0.000 A 
ATOM     28  C   LIG    1       25.909 -27.065   7.194  0.00  0.00    +0.003 A 
ENDBRANCH  22  23
ENDBRANCH  21  22
ENDBRANCH  15  21
ENDBRANCH  13  15
ENDBRANCH   1  13
BRANCH   4  29
ATOM     29  C   LIG    1       19.738 -30.811  11.729  0.00  0.00    +0.234 C 
BRANCH  29  30
ATOM     30  C   LIG    1       19.583 -32.163  12.406  0.00  0.00    +0.323 C 
ATOM     31  O   LIG    1       19.625 -32.251  13.642  0.00  0.00    -0.249 OA
BRANCH  30  32
ATOM     32  O   LIG    1       19.499 -33.241  11.618  0.00  0.00    -0.479 OA
ATOM     33  H   LIG    1       19.116 -33.000  10.733  0.00  0.00    +0.295 HD
ENDBRANCH  30  32
ENDBRANCH  29  30
ENDBRANCH   4  29
TORSDOF 11
ENDMDL
MODEL 9
REMARK VINA RESULT:      -6.6      6.079      9.818
REMARK  Name = *****
REMARK                            x       y       z     vdW  Elec       q    Type
REMARK                         _______ _______ _______ _____ _____    ______ ____
ROOT
ATOM      1  C   LIG    1       26.173 -20.780   6.432  0.00  0.00    +0.142 C 
ATOM      2  C   LIG    1       27.120 -20.158   5.405  0.00  0.00    +0.237 C 
ATOM      3  O   LIG    1       26.798 -20.255   4.207  0.00  0.00    -0.274 OA
ATOM      4  N   LIG    1       28.284 -19.444   5.704  0.00  0.00    -0.259 N 
ATOM      5  C   LIG    1       29.242 -19.676   6.778  0.00  0.00    +0.040 A 
ATOM      6  C   LIG    1       29.056 -20.560   7.856  0.00  0.00    -0.026 A 
ATOM      7  C   LIG    1       30.162 -20.942   8.664  0.00  0.00    +0.005 A 
ATOM      8  C   LIG    1       31.410 -20.353   8.530  0.00  0.00    +0.000 A 
ATOM      9  C   LIG    1       31.561 -19.343   7.604  0.00  0.00    +0.002 A 
ATOM     10  C   LIG    1       27.737 -21.076   8.362  0.00  0.00    +0.039 C 
ATOM     11  C   LIG    1       30.502 -19.024   6.743  0.00  0.00    +0.024 A 
ATOM     12  C   LIG    1       26.531 -20.322   7.838  0.00  0.00    +0.033 C 
ENDROOT
BRANCH   1  13
ATOM     13  N   LIG    1       26.035 -22.264   6.330  0.00  0.00    -0.293 NA
ATOM     14  H   LIG    1       26.908 -22.680   6.650  0.00  0.00    +0.123 HD
BRANCH  13  15
ATOM     15  C   LIG    1       24.902 -22.934   7.050  0.00  0.00    +0.164 C 
BRANCH  15  16
ATOM     16  C   LIG    1       24.330 -24.165   6.338  0.00  0.00    +0.324 C 
ATOM     17  O   LIG    1       23.344 -24.817   6.723  0.00  0.00    -0.249 OA
BRANCH  16  18
ATOM     18  O   LIG    1       25.068 -24.452   5.215  0.00  0.00    -0.464 OA
BRANCH  18  20
ATOM     19  C   LIG    1       26.368 -26.335   6.061  0.00  0.00    +0.048 C 
ATOM     20  C   LIG    1       25.439 -25.830   4.968  0.00  0.00    +0.229 C 
ENDBRANCH  18  20
ENDBRANCH  16  18
ENDBRANCH  15  16
BRANCH  15  21
ATOM     21  C   LIG    1       23.746 -21.907   7.335  0.00  0.00    +0.035 C 
BRANCH  21  22
ATOM     22  C   LIG    1       22.643 -21.792   6.253  0.00  0.00    +0.037 C 
BRANCH  22  23
ATOM     23  C   LIG    1       22.808 -20.689   5.214  0.00  0.00    -0.047 A 
ATOM     24  C   LIG    1       22.325 -19.394   5.452  0.00  0.00    +0.003 A 
ATOM     25  C   LIG    1       22.593 -18.349   4.558  0.00  0.00    +0.000 A 
ATOM     26  C   LIG    1       23.337 -18.581   3.404  0.00  0.00    +0.000 A 
ATOM     27  C   LIG    1       23.818 -19.861   3.146  0.00  0.00    +0.000 A 
ATOM     28  C   LIG    1       23.564 -20.905   4.047  0.00  0.00    +0.003 A 
ENDBRANCH  22  23
ENDBRANCH  21  22
ENDBRANCH  15  21
ENDBRANCH  13  15
ENDBRANCH   1  13
BRANCH   4  29
ATOM     29  C   LIG    1       28.685 -18.528   4.607  0.00  0.00    +0.234 C 
BRANCH  29  30
ATOM     30  C   LIG    1       27.728 -17.377   4.341  0.00  0.00    +0.323 C 
ATOM     31  O   LIG    1       27.935 -16.264   4.845  0.00  0.00    -0.249 OA
BRANCH  30  32
ATOM     32  O   LIG    1       26.624 -17.645   3.633  0.00  0.00    -0.479 OA
ATOM     33  H   LIG    1       25.857 -17.109   3.965  0.00  0.00    +0.295 HD
ENDBRANCH  30  32
ENDBRANCH  29  30
ENDBRANCH   4  29
TORSDOF 11
ENDMDL
