MODEL 1
REMARK VINA RESULT:      -8.2      0.000      0.000
REMARK  Name = *****
REMARK                            x       y       z     vdW  Elec       q    Type
REMARK                         _______ _______ _______ _____ _____    ______ ____
ROOT
ATOM      1  C   LIG    1       27.005 -21.356   6.438  0.00  0.00    -0.000 C 
ATOM      2  C   LIG    1       25.743 -21.789   6.608  0.00  0.00    -0.066 C 
ATOM      3  C   LIG    1       24.702 -21.880   5.496  0.00  0.00    +0.021 C 
ATOM      4  C   LIG    1       25.037 -21.211   4.162  0.00  0.00    +0.009 C 
ATOM      5  C   LIG    1       23.679 -21.017   3.515  0.00  0.00    +0.005 C 
ATOM      6  C   LIG    1       22.802 -20.457   4.658  0.00  0.00    +0.002 C 
ATOM      7  C   LIG    1       23.286 -21.320   5.899  0.00  0.00    -0.022 C 
ATOM      8  C   LIG    1       22.303 -22.512   6.060  0.00  0.00    +0.012 C 
ATOM      9  C   LIG    1       23.357 -20.577   7.247  0.00  0.00    +0.008 C 
ATOM     10  C   LIG    1       24.011 -21.365   8.383  0.00  0.00    +0.005 C 
ATOM     11  C   LIG    1       25.170 -22.245   7.934  0.00  0.00    +0.031 C 
ENDROOT
BRANCH   1  19
ATOM     12  C   LIG    1       30.485 -21.860   9.128  0.00  0.00    +0.015 C 
ATOM     13  C   LIG    1       30.239 -20.754   8.410  0.00  0.00    -0.023 C 
ATOM     14  C   LIG    1       30.938 -19.418   8.624  0.00  0.00    +0.147 C 
ATOM     15  C   LIG    1       31.503 -18.842   7.320  0.00  0.00    +0.067 C 
ATOM     16  C   LIG    1       30.465 -18.813   6.204  0.00  0.00    +0.122 C 
ATOM     17  C   LIG    1       29.810 -20.182   6.009  0.00  0.00    +0.067 C 
ATOM     18  C   LIG    1       29.269 -20.770   7.304  0.00  0.00    -0.040 C 
ATOM     19  C   LIG    1       28.026 -21.254   7.462  0.00  0.00    +0.004 C 
BRANCH  14  20
ATOM     20  O   LIG    1       32.005 -19.532   9.561  0.00  0.00    -0.387 OA
ATOM     21  H   LIG    1       32.628 -18.810   9.374  0.00  0.00    +0.210 HD
ENDBRANCH  14  20
BRANCH  16  22
ATOM     22  O   LIG    1       29.486 -17.808   6.463  0.00  0.00    -0.391 OA
ATOM     23  H   LIG    1       28.766 -18.206   6.984  0.00  0.00    +0.210 HD
ENDBRANCH  16  22
ENDBRANCH   1  19
BRANCH   6  24
ATOM     24  C   LIG    1       22.882 -18.891   4.741  0.00  0.00    +0.012 C 
ATOM     25  C   LIG    1       21.736 -18.175   4.002  0.00  0.00    +0.012 C 
BRANCH  24  26
ATOM     26  C   LIG    1       24.175 -18.355   4.132  0.00  0.00    -0.027 C 
ATOM     27  C   LIG    1       24.433 -17.050   3.933  0.00  0.00    -0.027 C 
BRANCH  27  28
ATOM     28  C   LIG    1       25.633 -16.518   3.167  0.00  0.00    +0.011 C 
ATOM     29  C   LIG    1       26.913 -17.262   3.572  0.00  0.00    +0.012 C 
BRANCH  28  30
ATOM     30  C   LIG    1       25.799 -14.973   3.311  0.00  0.00    -0.011 C 
ATOM     31  C   LIG    1       27.159 -14.546   3.880  0.00  0.00    +0.008 C 
ATOM     32  C   LIG    1       24.677 -14.353   4.154  0.00  0.00    +0.008 C 
ENDBRANCH  28  30
ENDBRANCH  27  28
ENDBRANCH  24  26
ENDBRANCH   6  24
TORSDOF 7
ENDMDL
MODEL 2
REMARK VINA RESULT:      -7.1      9.392     12.555
REMARK  Name = *****
REMARK                            x       y       z     vdW  Elec       q    Type
REMARK                         _______ _______ _______ _____ _____    ______ ____
ROOT
ATOM      1  C   LIG    1       22.294 -29.975  12.111  0.00  0.00    -0.000 C 
ATOM      2  C   LIG    1       23.013 -30.971  11.563  0.00  0.00    -0.066 C 
ATOM      3  C   LIG    1       24.371 -30.788  10.892  0.00  0.00    +0.021 C 
ATOM      4  C   LIG    1       24.828 -29.356  10.607  0.00  0.00    +0.009 C 
ATOM      5  C   LIG    1       25.872 -29.530   9.519  0.00  0.00    +0.005 C 
ATOM      6  C   LIG    1       25.217 -30.526   8.536  0.00  0.00    +0.002 C 
ATOM      7  C   LIG    1       24.513 -31.551   9.521  0.00  0.00    -0.022 C 
ATOM      8  C   LIG    1       25.474 -32.757   9.717  0.00  0.00    +0.012 C 
ATOM      9  C   LIG    1       23.150 -32.100   9.059  0.00  0.00    +0.008 C 
ATOM     10  C   LIG    1       22.400 -32.926  10.105  0.00  0.00    +0.005 C 
ATOM     11  C   LIG    1       22.575 -32.420  11.531  0.00  0.00    +0.031 C 
ENDROOT
BRANCH   1  19
ATOM     12  C   LIG    1       18.898 -30.648  14.871  0.00  0.00    +0.015 C 
ATOM     13  C   LIG    1       19.151 -29.484  14.255  0.00  0.00    -0.023 C 
ATOM     14  C   LIG    1       18.169 -28.323  14.176  0.00  0.00    +0.147 C 
ATOM     15  C   LIG    1       18.801 -26.997  14.614  0.00  0.00    +0.067 C 
ATOM     16  C   LIG    1       20.123 -26.725  13.905  0.00  0.00    +0.122 C 
ATOM     17  C   LIG    1       21.085 -27.907  14.034  0.00  0.00    +0.067 C 
ATOM     18  C   LIG    1       20.455 -29.230  13.624  0.00  0.00    -0.040 C 
ATOM     19  C   LIG    1       21.003 -30.101  12.760  0.00  0.00    +0.004 C 
BRANCH  14  20
ATOM     20  O   LIG    1       17.018 -28.557  14.984  0.00  0.00    -0.387 OA
ATOM     21  H   LIG    1       16.277 -28.730  14.380  0.00  0.00    +0.210 HD
ENDBRANCH  14  20
BRANCH  16  22
ATOM     22  O   LIG    1       19.892 -26.397  12.535  0.00  0.00    -0.391 OA
ATOM     23  H   LIG    1       20.093 -25.454  12.406  0.00  0.00    +0.210 HD
ENDBRANCH  16  22
ENDBRANCH   1  19
BRANCH   6  24
ATOM     24  C   LIG    1       24.348 -29.791   7.454  0.00  0.00    +0.012 C 
ATOM     25  C   LIG    1       24.220 -30.571   6.131  0.00  0.00    +0.012 C 
BRANCH  24  26
ATOM     26  C   LIG    1       24.933 -28.430   7.084  0.00  0.00    -0.027 C 
ATOM     27  C   LIG    1       24.306 -27.520   6.316  0.00  0.00    -0.027 C 
BRANCH  27  28
ATOM     28  C   LIG    1       24.949 -26.245   5.796  0.00  0.00    +0.011 C 
ATOM     29  C   LIG    1       26.433 -26.472   5.480  0.00  0.00    +0.012 C 
BRANCH  28  30
ATOM     30  C   LIG    1       24.747 -25.036   6.762  0.00  0.00    -0.011 C 
ATOM     31  C   LIG    1       23.410 -24.308   6.573  0.00  0.00    +0.008 C 
ATOM     32  C   LIG    1       25.897 -24.025   6.659  0.00  0.00    +0.008 C 
ENDBRANCH  28  30
ENDBRANCH  27  28
ENDBRANCH  24  26
ENDBRANCH   6  24
TORSDOF 7
ENDMDL
MODEL 3
REMARK VINA RESULT:      -7.0      9.811     13.072
REMARK  Name = *****
REMARK                            x       y       z     vdW  Elec       q    Type
REMARK                         _______ _______ _______ _____ _____    ______ ____
ROOT
ATOM      1  C   LIG    1       22.945 -30.084  11.965  0.00  0.00    -0.000 C 
ATOM      2  C   LIG    1       23.765 -31.007  11.431  0.00  0.00    -0.066 C 
ATOM      3  C   LIG    1       25.041 -30.686  10.657  0.00  0.00    +0.021 C 
ATOM      4  C   LIG    1       25.271 -29.229  10.253  0.00  0.00    +0.009 C 
ATOM      5  C   LIG    1       26.262 -29.334   9.109  0.00  0.00    +0.005 C 
ATOM      6  C   LIG    1       25.698 -30.478   8.237  0.00  0.00    +0.002 C 
ATOM      7  C   LIG    1       25.208 -31.518   9.330  0.00  0.00    -0.022 C 
ATOM      8  C   LIG    1       26.340 -32.562   9.533  0.00  0.00    +0.012 C 
ATOM      9  C   LIG    1       23.911 -32.282   8.998  0.00  0.00    +0.008 C 
ATOM     10  C   LIG    1       23.350 -33.127  10.142  0.00  0.00    +0.005 C 
ATOM     11  C   LIG    1       23.537 -32.502  11.519  0.00  0.00    +0.031 C 
ENDROOT
BRANCH   1  19
ATOM     12  C   LIG    1       19.070 -29.898  14.098  0.00  0.00    +0.015 C 
ATOM     13  C   LIG    1       19.319 -30.702  13.053  0.00  0.00    -0.023 C 
ATOM     14  C   LIG    1       18.428 -31.861  12.629  0.00  0.00    +0.147 C 
ATOM     15  C   LIG    1       18.081 -31.812  11.137  0.00  0.00    +0.067 C 
ATOM     16  C   LIG    1       19.318 -31.645  10.262  0.00  0.00    +0.122 C 
ATOM     17  C   LIG    1       20.167 -30.453  10.709  0.00  0.00    +0.067 C 
ATOM     18  C   LIG    1       20.494 -30.483  12.194  0.00  0.00    -0.040 C 
ATOM     19  C   LIG    1       21.727 -30.341  12.708  0.00  0.00    +0.004 C 
BRANCH  14  20
ATOM     20  O   LIG    1       17.210 -31.881  13.370  0.00  0.00    -0.387 OA
ATOM     21  H   LIG    1       16.517 -32.205  12.771  0.00  0.00    +0.210 HD
ENDBRANCH  14  20
BRANCH  16  22
ATOM     22  O   LIG    1       20.086 -32.848  10.253  0.00  0.00    -0.391 OA
ATOM     23  H   LIG    1       20.898 -32.691   9.740  0.00  0.00    +0.210 HD
ENDBRANCH  16  22
ENDBRANCH   1  19
BRANCH   6  24
ATOM     24  C   LIG    1       24.670 -29.948   7.174  0.00  0.00    +0.012 C 
ATOM     25  C   LIG    1       24.713 -30.715   5.838  0.00  0.00    +0.012 C 
BRANCH  24  26
ATOM     26  C   LIG    1       24.917 -28.483   6.825  0.00  0.00    -0.027 C 
ATOM     27  C   LIG    1       24.177 -27.778   5.950  0.00  0.00    -0.027 C 
BRANCH  27  28
ATOM     28  C   LIG    1       24.521 -26.380   5.463  0.00  0.00    +0.011 C 
ATOM     29  C   LIG    1       25.833 -26.388   4.667  0.00  0.00    +0.012 C 
BRANCH  28  30
ATOM     30  C   LIG    1       24.561 -25.335   6.622  0.00  0.00    -0.011 C 
ATOM     31  C   LIG    1       23.388 -24.347   6.606  0.00  0.00    +0.008 C 
ATOM     32  C   LIG    1       25.883 -24.556   6.644  0.00  0.00    +0.008 C 
ENDBRANCH  28  30
ENDBRANCH  27  28
ENDBRANCH  24  26
ENDBRANCH   6  24
TORSDOF 7
ENDMDL
MODEL 4
REMARK VINA RESULT:      -7.0     10.059     12.962
REMARK  Name = *****
REMARK                            x       y       z     vdW  Elec       q    Type
REMARK                         _______ _______ _______ _____ _____    ______ ____
ROOT
ATOM      1  C   LIG    1       24.963 -31.198  10.696  0.00  0.00    -0.000 C 
ATOM      2  C   LIG    1       25.942 -30.543  11.345  0.00  0.00    -0.066 C 
ATOM      3  C   LIG    1       25.852 -30.067  12.792  0.00  0.00    +0.021 C 
ATOM      4  C   LIG    1       24.481 -30.119  13.466  0.00  0.00    +0.009 C 
ATOM      5  C   LIG    1       24.615 -29.134  14.613  0.00  0.00    +0.005 C 
ATOM      6  C   LIG    1       25.305 -27.911  13.969  0.00  0.00    +0.002 C 
ATOM      7  C   LIG    1       26.370 -28.596  13.013  0.00  0.00    -0.022 C 
ATOM      8  C   LIG    1       27.724 -28.650  13.773  0.00  0.00    +0.012 C 
ATOM      9  C   LIG    1       26.611 -27.894  11.662  0.00  0.00    +0.008 C 
ATOM     10  C   LIG    1       27.487 -28.673  10.679  0.00  0.00    +0.005 C 
ATOM     11  C   LIG    1       27.278 -30.181  10.730  0.00  0.00    +0.031 C 
ENDROOT
BRANCH   1  19
ATOM     12  C   LIG    1       24.115 -32.785   6.651  0.00  0.00    +0.015 C 
ATOM     13  C   LIG    1       24.667 -31.586   6.891  0.00  0.00    -0.023 C 
ATOM     14  C   LIG    1       25.344 -30.724   5.835  0.00  0.00    +0.147 C 
ATOM     15  C   LIG    1       24.816 -29.285   5.833  0.00  0.00    +0.067 C 
ATOM     16  C   LIG    1       24.830 -28.663   7.225  0.00  0.00    +0.122 C 
ATOM     17  C   LIG    1       24.116 -29.552   8.245  0.00  0.00    +0.067 C 
ATOM     18  C   LIG    1       24.619 -30.987   8.235  0.00  0.00    -0.040 C 
ATOM     19  C   LIG    1       25.004 -31.670   9.326  0.00  0.00    +0.004 C 
BRANCH  14  20
ATOM     20  O   LIG    1       25.167 -31.266   4.528  0.00  0.00    -0.387 OA
ATOM     21  H   LIG    1       26.034 -31.594   4.236  0.00  0.00    +0.210 HD
ENDBRANCH  14  20
BRANCH  16  22
ATOM     22  O   LIG    1       26.170 -28.389   7.632  0.00  0.00    -0.391 OA
ATOM     23  H   LIG    1       26.667 -28.065   6.859  0.00  0.00    +0.210 HD
ENDBRANCH  16  22
ENDBRANCH   1  19
BRANCH   6  24
ATOM     24  C   LIG    1       24.263 -26.909  13.354  0.00  0.00    +0.012 C 
ATOM     25  C   LIG    1       24.543 -25.435  13.703  0.00  0.00    +0.012 C 
BRANCH  24  26
ATOM     26  C   LIG    1       22.845 -27.194  13.842  0.00  0.00    -0.027 C 
ATOM     27  C   LIG    1       21.788 -27.377  13.030  0.00  0.00    -0.027 C 
BRANCH  27  28
ATOM     28  C   LIG    1       20.348 -27.482  13.505  0.00  0.00    +0.011 C 
ATOM     29  C   LIG    1       20.123 -26.628  14.759  0.00  0.00    +0.012 C 
BRANCH  28  30
ATOM     30  C   LIG    1       19.897 -28.959  13.730  0.00  0.00    -0.011 C 
ATOM     31  C   LIG    1       20.160 -29.478  15.150  0.00  0.00    +0.008 C 
ATOM     32  C   LIG    1       20.536 -29.913  12.712  0.00  0.00    +0.008 C 
ENDBRANCH  28  30
ENDBRANCH  27  28
ENDBRANCH  24  26
ENDBRANCH   6  24
TORSDOF 7
ENDMDL
MODEL 5
REMARK VINA RESULT:      -6.9      8.047     10.779
REMARK  Name = *****
REMARK                            x       y       z     vdW  Elec       q    Type
REMARK                         _______ _______ _______ _____ _____    ______ ____
ROOT
ATOM      1  C   LIG    1       26.578 -28.987  10.812  0.00  0.00    -0.000 C 
ATOM      2  C   LIG    1       25.644 -29.954  10.774  0.00  0.00    -0.066 C 
ATOM      3  C   LIG    1       25.724 -31.199   9.896  0.00  0.00    +0.021 C 
ATOM      4  C   LIG    1       26.806 -31.231   8.816  0.00  0.00    +0.009 C 
ATOM      5  C   LIG    1       26.297 -32.272   7.837  0.00  0.00    +0.005 C 
ATOM      6  C   LIG    1       24.803 -31.917   7.666  0.00  0.00    +0.002 C 
ATOM      7  C   LIG    1       24.379 -31.540   9.148  0.00  0.00    -0.022 C 
ATOM      8  C   LIG    1       23.751 -32.803   9.798  0.00  0.00    +0.012 C 
ATOM      9  C   LIG    1       23.371 -30.384   9.286  0.00  0.00    +0.008 C 
ATOM     10  C   LIG    1       23.129 -29.906  10.718  0.00  0.00    +0.005 C 
ATOM     11  C   LIG    1       24.373 -29.944  11.597  0.00  0.00    +0.031 C 
ENDROOT
BRANCH   1  19
ATOM     12  C   LIG    1       25.580 -25.667  13.566  0.00  0.00    +0.015 C 
ATOM     13  C   LIG    1       26.660 -26.452  13.690  0.00  0.00    -0.023 C 
ATOM     14  C   LIG    1       27.842 -26.150  14.601  0.00  0.00    +0.147 C 
ATOM     15  C   LIG    1       28.202 -27.339  15.500  0.00  0.00    +0.067 C 
ATOM     16  C   LIG    1       28.359 -28.633  14.710  0.00  0.00    +0.122 C 
ATOM     17  C   LIG    1       27.137 -28.908  13.831  0.00  0.00    +0.067 C 
ATOM     18  C   LIG    1       26.761 -27.723  12.954  0.00  0.00    -0.040 C 
ATOM     19  C   LIG    1       26.546 -27.790  11.630  0.00  0.00    +0.004 C 
BRANCH  14  20
ATOM     20  O   LIG    1       27.583 -25.023  15.434  0.00  0.00    -0.387 OA
ATOM     21  H   LIG    1       26.683 -24.718  15.230  0.00  0.00    +0.210 HD
ENDBRANCH  14  20
BRANCH  16  22
ATOM     22  O   LIG    1       29.554 -28.598  13.932  0.00  0.00    -0.391 OA
ATOM     23  H   LIG    1       30.314 -28.723  14.528  0.00  0.00    +0.210 HD
ENDBRANCH  16  22
ENDBRANCH   1  19
BRANCH   6  24
ATOM     24  C   LIG    1       24.580 -30.867   6.520  0.00  0.00    +0.012 C 
ATOM     25  C   LIG    1       25.305 -31.223   5.207  0.00  0.00    +0.012 C 
BRANCH  24  26
ATOM     26  C   LIG    1       25.083 -29.480   6.914  0.00  0.00    -0.027 C 
ATOM     27  C   LIG    1       25.239 -28.459   6.053  0.00  0.00    -0.027 C 
BRANCH  27  28
ATOM     28  C   LIG    1       25.905 -27.137   6.399  0.00  0.00    +0.011 C 
ATOM     29  C   LIG    1       26.375 -27.129   7.859  0.00  0.00    +0.012 C 
BRANCH  28  30
ATOM     30  C   LIG    1       24.997 -25.908   6.083  0.00  0.00    -0.011 C 
ATOM     31  C   LIG    1       24.980 -25.515   4.600  0.00  0.00    +0.008 C 
ATOM     32  C   LIG    1       25.375 -24.685   6.929  0.00  0.00    +0.008 C 
ENDBRANCH  28  30
ENDBRANCH  27  28
ENDBRANCH  24  26
ENDBRANCH   6  24
TORSDOF 7
ENDMDL
MODEL 6
REMARK VINA RESULT:      -6.8      9.162     12.858
REMARK  Name = *****
REMARK                            x       y       z     vdW  Elec       q    Type
REMARK                         _______ _______ _______ _____ _____    ______ ____
ROOT
ATOM      1  C   LIG    1       23.570 -27.267  13.090  0.00  0.00    -0.000 C 
ATOM      2  C   LIG    1       24.514 -28.151  13.461  0.00  0.00    -0.066 C 
ATOM      3  C   LIG    1       25.901 -28.249  12.833  0.00  0.00    +0.021 C 
ATOM      4  C   LIG    1       26.148 -27.462  11.545  0.00  0.00    +0.009 C 
ATOM      5  C   LIG    1       27.344 -28.162  10.928  0.00  0.00    +0.005 C 
ATOM      6  C   LIG    1       27.006 -29.663  11.068  0.00  0.00    +0.002 C 
ATOM      7  C   LIG    1       26.355 -29.723  12.514  0.00  0.00    -0.022 C 
ATOM      8  C   LIG    1       27.467 -30.133  13.519  0.00  0.00    +0.012 C 
ATOM      9  C   LIG    1       25.179 -30.704  12.682  0.00  0.00    +0.008 C 
ATOM     10  C   LIG    1       24.441 -30.603  14.018  0.00  0.00    +0.005 C 
ATOM     11  C   LIG    1       24.333 -29.182  14.556  0.00  0.00    +0.031 C 
ENDROOT
BRANCH   1  19
ATOM     12  C   LIG    1       19.325 -26.379  13.981  0.00  0.00    +0.015 C 
ATOM     13  C   LIG    1       19.847 -27.614  13.949  0.00  0.00    -0.023 C 
ATOM     14  C   LIG    1       19.151 -28.856  14.489  0.00  0.00    +0.147 C 
ATOM     15  C   LIG    1       19.129 -30.000  13.469  0.00  0.00    +0.067 C 
ATOM     16  C   LIG    1       20.509 -30.281  12.887  0.00  0.00    +0.122 C 
ATOM     17  C   LIG    1       21.158 -29.011  12.334  0.00  0.00    +0.067 C 
ATOM     18  C   LIG    1       21.160 -27.864  13.333  0.00  0.00    -0.040 C 
ATOM     19  C   LIG    1       22.242 -27.137  13.658  0.00  0.00    +0.004 C 
BRANCH  14  20
ATOM     20  O   LIG    1       17.808 -28.574  14.873  0.00  0.00    -0.387 OA
ATOM     21  H   LIG    1       17.506 -27.827  14.330  0.00  0.00    +0.210 HD
ENDBRANCH  14  20
BRANCH  16  22
ATOM     22  O   LIG    1       21.344 -30.898  13.867  0.00  0.00    -0.391 OA
ATOM     23  H   LIG    1       21.568 -30.234  14.542  0.00  0.00    +0.210 HD
ENDBRANCH  16  22
ENDBRANCH   1  19
BRANCH   6  24
ATOM     24  C   LIG    1       26.182 -30.192   9.840  0.00  0.00    +0.012 C 
ATOM     25  C   LIG    1       26.924 -31.261   9.014  0.00  0.00    +0.012 C 
BRANCH  24  26
ATOM     26  C   LIG    1       25.836 -29.072   8.862  0.00  0.00    -0.027 C 
ATOM     27  C   LIG    1       24.935 -29.185   7.871  0.00  0.00    -0.027 C 
BRANCH  27  28
ATOM     28  C   LIG    1       24.714 -28.142   6.787  0.00  0.00    +0.011 C 
ATOM     29  C   LIG    1       24.256 -28.803   5.480  0.00  0.00    +0.012 C 
BRANCH  28  30
ATOM     30  C   LIG    1       25.967 -27.238   6.562  0.00  0.00    -0.011 C 
ATOM     31  C   LIG    1       25.771 -25.785   7.015  0.00  0.00    +0.008 C 
ATOM     32  C   LIG    1       26.431 -27.258   5.100  0.00  0.00    +0.008 C 
ENDBRANCH  28  30
ENDBRANCH  27  28
ENDBRANCH  24  26
ENDBRANCH   6  24
TORSDOF 7
ENDMDL
MODEL 7
REMARK VINA RESULT:      -6.7      9.104     12.084
REMARK  Name = *****
REMARK                            x       y       z     vdW  Elec       q    Type
REMARK                         _______ _______ _______ _____ _____    ______ ____
ROOT
ATOM      1  C   LIG    1       22.781 -30.588  10.371  0.00  0.00    -0.000 C 
ATOM      2  C   LIG    1       23.651 -31.105   9.485  0.00  0.00    -0.066 C 
ATOM      3  C   LIG    1       24.953 -30.432   9.059  0.00  0.00    +0.021 C 
ATOM      4  C   LIG    1       25.162 -28.975   9.477  0.00  0.00    +0.009 C 
ATOM      5  C   LIG    1       26.209 -28.476   8.500  0.00  0.00    +0.005 C 
ATOM      6  C   LIG    1       25.720 -29.005   7.133  0.00  0.00    +0.002 C 
ATOM      7  C   LIG    1       25.207 -30.459   7.505  0.00  0.00    -0.022 C 
ATOM      8  C   LIG    1       26.357 -31.460   7.204  0.00  0.00    +0.012 C 
ATOM      9  C   LIG    1       23.950 -30.941   6.755  0.00  0.00    +0.008 C 
ATOM     10  C   LIG    1       23.358 -32.256   7.267  0.00  0.00    +0.005 C 
ATOM     11  C   LIG    1       23.461 -32.430   8.777  0.00  0.00    +0.031 C 
ENDROOT
BRANCH   1  19
ATOM     12  C   LIG    1       19.581 -33.069  12.163  0.00  0.00    +0.015 C 
ATOM     13  C   LIG    1       19.712 -31.749  12.359  0.00  0.00    -0.023 C 
ATOM     14  C   LIG    1       18.639 -30.861  12.974  0.00  0.00    +0.147 C 
ATOM     15  C   LIG    1       19.183 -29.999  14.119  0.00  0.00    +0.067 C 
ATOM     16  C   LIG    1       20.445 -29.241  13.721  0.00  0.00    +0.122 C 
ATOM     17  C   LIG    1       21.503 -30.178  13.133  0.00  0.00    +0.067 C 
ATOM     18  C   LIG    1       20.962 -31.053  12.013  0.00  0.00    -0.040 C 
ATOM     19  C   LIG    1       21.536 -31.191  10.806  0.00  0.00    +0.004 C 
BRANCH  14  20
ATOM     20  O   LIG    1       17.549 -31.632  13.475  0.00  0.00    -0.387 OA
ATOM     21  H   LIG    1       17.928 -32.347  14.012  0.00  0.00    +0.210 HD
ENDBRANCH  14  20
BRANCH  16  22
ATOM     22  O   LIG    1       20.126 -28.191  12.809  0.00  0.00    -0.391 OA
ATOM     23  H   LIG    1       20.565 -27.376  13.112  0.00  0.00    +0.210 HD
ENDBRANCH  16  22
ENDBRANCH   1  19
BRANCH   6  24
ATOM     24  C   LIG    1       24.730 -28.002   6.439  0.00  0.00    +0.012 C 
ATOM     25  C   LIG    1       24.585 -28.228   4.922  0.00  0.00    +0.012 C 
BRANCH  24  26
ATOM     26  C   LIG    1       25.178 -26.553   6.607  0.00  0.00    -0.027 C 
ATOM     27  C   LIG    1       24.460 -25.487   6.209  0.00  0.00    -0.027 C 
BRANCH  27  28
ATOM     28  C   LIG    1       24.973 -24.057   6.207  0.00  0.00    +0.011 C 
ATOM     29  C   LIG    1       26.046 -23.861   7.286  0.00  0.00    +0.012 C 
BRANCH  28  30
ATOM     30  C   LIG    1       23.825 -23.008   6.345  0.00  0.00    -0.011 C 
ATOM     31  C   LIG    1       24.141 -21.868   7.321  0.00  0.00    +0.008 C 
ATOM     32  C   LIG    1       22.496 -23.665   6.741  0.00  0.00    +0.008 C 
ENDBRANCH  28  30
ENDBRANCH  27  28
ENDBRANCH  24  26
ENDBRANCH   6  24
TORSDOF 7
ENDMDL
MODEL 8
REMARK VINA RESULT:      -6.7      8.705     11.823
REMARK  Name = *****
REMARK                            x       y       z     vdW  Elec       q    Type
REMARK                         _______ _______ _______ _____ _____    ______ ____
ROOT
ATOM      1  C   LIG    1       25.288 -28.965  12.405  0.00  0.00    -0.000 C 
ATOM      2  C   LIG    1       24.166 -29.638  12.715  0.00  0.00    -0.066 C 
ATOM      3  C   LIG    1       23.951 -31.126  12.454  0.00  0.00    +0.021 C 
ATOM      4  C   LIG    1       24.972 -31.840  11.567  0.00  0.00    +0.009 C 
ATOM      5  C   LIG    1       24.223 -33.070  11.088  0.00  0.00    +0.005 C 
ATOM      6  C   LIG    1       22.838 -32.522  10.679  0.00  0.00    +0.002 C 
ATOM      7  C   LIG    1       22.546 -31.468  11.829  0.00  0.00    -0.022 C 
ATOM      8  C   LIG    1       21.676 -32.171  12.908  0.00  0.00    +0.012 C 
ATOM      9  C   LIG    1       21.815 -30.183  11.395  0.00  0.00    +0.008 C 
ATOM     10  C   LIG    1       21.721 -29.100  12.470  0.00  0.00    +0.005 C 
ATOM     11  C   LIG    1       22.950 -29.014  13.366  0.00  0.00    +0.031 C 
ENDROOT
BRANCH   1  19
ATOM     12  C   LIG    1       25.234 -24.722  13.671  0.00  0.00    +0.015 C 
ATOM     13  C   LIG    1       26.265 -25.557  13.870  0.00  0.00    -0.023 C 
ATOM     14  C   LIG    1       27.660 -25.114  14.290  0.00  0.00    +0.147 C 
ATOM     15  C   LIG    1       28.180 -25.900  15.499  0.00  0.00    +0.067 C 
ATOM     16  C   LIG    1       28.053 -27.407  15.306  0.00  0.00    +0.122 C 
ATOM     17  C   LIG    1       26.630 -27.806  14.913  0.00  0.00    +0.067 C 
ATOM     18  C   LIG    1       26.099 -27.012  13.728  0.00  0.00    -0.040 C 
ATOM     19  C   LIG    1       25.538 -27.555  12.635  0.00  0.00    +0.004 C 
BRANCH  14  20
ATOM     20  O   LIG    1       27.692 -23.726  14.612  0.00  0.00    -0.387 OA
ATOM     21  H   LIG    1       28.491 -23.356  14.202  0.00  0.00    +0.210 HD
ENDBRANCH  14  20
BRANCH  16  22
ATOM     22  O   LIG    1       29.000 -27.866  14.342  0.00  0.00    -0.391 OA
ATOM     23  H   LIG    1       28.784 -27.463  13.482  0.00  0.00    +0.210 HD
ENDBRANCH  16  22
ENDBRANCH   1  19
BRANCH   6  24
ATOM     24  C   LIG    1       22.817 -32.042   9.184  0.00  0.00    +0.012 C 
ATOM     25  C   LIG    1       22.675 -33.192   8.169  0.00  0.00    +0.012 C 
BRANCH  24  26
ATOM     26  C   LIG    1       24.099 -31.304   8.806  0.00  0.00    -0.027 C 
ATOM     27  C   LIG    1       24.156 -29.998   8.489  0.00  0.00    -0.027 C 
BRANCH  27  28
ATOM     28  C   LIG    1       25.389 -29.299   7.940  0.00  0.00    +0.011 C 
ATOM     29  C   LIG    1       26.217 -28.683   9.075  0.00  0.00    +0.012 C 
BRANCH  28  30
ATOM     30  C   LIG    1       25.041 -28.242   6.846  0.00  0.00    -0.011 C 
ATOM     31  C   LIG    1       25.135 -28.780   5.413  0.00  0.00    +0.008 C 
ATOM     32  C   LIG    1       25.905 -26.980   6.975  0.00  0.00    +0.008 C 
ENDBRANCH  28  30
ENDBRANCH  27  28
ENDBRANCH  24  26
ENDBRANCH   6  24
TORSDOF 7
ENDMDL
MODEL 9
REMARK VINA RESULT:      -6.4      9.300     12.322
REMARK  Name = *****
REMARK                            x       y       z     vdW  Elec       q    Type
REMARK                         _______ _______ _______ _____ _____    ______ ____
ROOT
ATOM      1  C   LIG    1       23.737 -30.144  11.958  0.00  0.00    -0.000 C 
ATOM      2  C   LIG    1       24.365 -30.881  11.024  0.00  0.00    -0.066 C 
ATOM      3  C   LIG    1       25.517 -30.380  10.158  0.00  0.00    +0.021 C 
ATOM      4  C   LIG    1       25.814 -28.880  10.180  0.00  0.00    +0.009 C 
ATOM      5  C   LIG    1       26.584 -28.654   8.893  0.00  0.00    +0.005 C 
ATOM      6  C   LIG    1       25.776 -29.442   7.837  0.00  0.00    +0.002 C 
ATOM      7  C   LIG    1       25.379 -30.755   8.634  0.00  0.00    -0.022 C 
ATOM      8  C   LIG    1       26.425 -31.852   8.292  0.00  0.00    +0.012 C 
ATOM      9  C   LIG    1       23.979 -31.326   8.337  0.00  0.00    +0.008 C 
ATOM     10  C   LIG    1       23.540 -32.468   9.255  0.00  0.00    +0.005 C 
ATOM     11  C   LIG    1       24.014 -32.317  10.695  0.00  0.00    +0.031 C 
ENDROOT
BRANCH   1  19
ATOM     12  C   LIG    1       20.286 -30.493  14.710  0.00  0.00    +0.015 C 
ATOM     13  C   LIG    1       20.304 -30.970  13.456  0.00  0.00    -0.023 C 
ATOM     14  C   LIG    1       19.277 -31.942  12.893  0.00  0.00    +0.147 C 
ATOM     15  C   LIG    1       18.695 -31.463  11.558  0.00  0.00    +0.067 C 
ATOM     16  C   LIG    1       19.780 -31.079  10.559  0.00  0.00    +0.122 C 
ATOM     17  C   LIG    1       20.772 -30.082  11.161  0.00  0.00    +0.067 C 
ATOM     18  C   LIG    1       21.335 -30.541  12.498  0.00  0.00    -0.040 C 
ATOM     19  C   LIG    1       22.642 -30.577  12.804  0.00  0.00    +0.004 C 
BRANCH  14  20
ATOM     20  O   LIG    1       18.198 -32.147  13.802  0.00  0.00    -0.387 OA
ATOM     21  H   LIG    1       17.830 -31.272  14.010  0.00  0.00    +0.210 HD
ENDBRANCH  14  20
BRANCH  16  22
ATOM     22  O   LIG    1       20.450 -32.246  10.082  0.00  0.00    -0.391 OA
ATOM     23  H   LIG    1       20.745 -32.767  10.850  0.00  0.00    +0.210 HD
ENDBRANCH  16  22
ENDBRANCH   1  19
BRANCH   6  24
ATOM     24  C   LIG    1       24.639 -28.565   7.200  0.00  0.00    +0.012 C 
ATOM     25  C   LIG    1       24.239 -29.010   5.780  0.00  0.00    +0.012 C 
BRANCH  24  26
ATOM     26  C   LIG    1       25.050 -27.100   7.081  0.00  0.00    -0.027 C 
ATOM     27  C   LIG    1       24.648 -26.279   6.094  0.00  0.00    -0.027 C 
BRANCH  27  28
ATOM     28  C   LIG    1       25.191 -24.878   5.867  0.00  0.00    +0.011 C 
ATOM     29  C   LIG    1       26.087 -24.444   7.035  0.00  0.00    +0.012 C 
BRANCH  28  30
ATOM     30  C   LIG    1       24.062 -23.835   5.595  0.00  0.00    -0.011 C 
ATOM     31  C   LIG    1       24.577 -22.404   5.388  0.00  0.00    +0.008 C 
ATOM     32  C   LIG    1       23.000 -23.839   6.703  0.00  0.00    +0.008 C 
ENDBRANCH  28  30
ENDBRANCH  27  28
ENDBRANCH  24  26
ENDBRANCH   6  24
TORSDOF 7
ENDMDL
