MODEL 1
REMARK VINA RESULT:      -7.9      0.000      0.000
REMARK  Name = *****
REMARK                            x       y       z     vdW  Elec       q    Type
REMARK                         _______ _______ _______ _____ _____    ______ ____
ROOT
ATOM      1  C   LIG    1       25.383 -21.829   6.460  0.00  0.00    +0.183 C 
ATOM      2  C   LIG    1       26.347 -21.068   7.416  0.00  0.00    +0.008 C 
ATOM      3  C   LIG    1       25.537 -20.305   8.503  0.00  0.00    +0.015 C 
ATOM      4  C   LIG    1       27.029 -20.036   6.460  0.00  0.00    +0.002 C 
ATOM      5  C   LIG    1       28.440 -20.402   5.945  0.00  0.00    -0.003 C 
ATOM      6  C   LIG    1       29.358 -21.054   6.996  0.00  0.00    +0.002 C 
ATOM      7  C   LIG    1       28.635 -22.303   7.527  0.00  0.00    +0.005 C 
ATOM      8  C   LIG    1       30.043 -20.083   8.035  0.00  0.00    -0.007 C 
ATOM      9  C   LIG    1       31.157 -20.894   8.757  0.00  0.00    +0.016 C 
ATOM     10  C   LIG    1       30.613 -18.856   7.300  0.00  0.00    -0.060 C 
ATOM     11  C   LIG    1       31.466 -18.033   7.945  0.00  0.00    +0.046 C 
ATOM     12  C   LIG    1       30.741 -17.432   9.129  0.00  0.00    +0.156 C 
ATOM     13  O   LIG    1       31.011 -16.288   9.485  0.00  0.00    -0.293 OA
ATOM     14  C   LIG    1       29.816 -18.337   9.936  0.00  0.00    +0.080 C 
ATOM     15  C   LIG    1       29.705 -18.212   6.268  0.00  0.00    +0.032 C 
ATOM     16  C   LIG    1       29.136 -19.453   9.120  0.00  0.00    +0.019 C 
ATOM     17  C   LIG    1       29.160 -19.224   5.269  0.00  0.00    +0.008 C 
ATOM     18  C   LIG    1       26.054 -19.875   5.262  0.00  0.00    +0.008 C 
ATOM     19  C   LIG    1       27.285 -22.037   8.171  0.00  0.00    +0.011 C 
ATOM     20  C   LIG    1       24.832 -20.719   5.573  0.00  0.00    +0.045 C 
ENDROOT
BRANCH   1  21
ATOM     21  O   LIG    1       24.371 -22.540   7.187  0.00  0.00    -0.461 OA
BRANCH  21  22
ATOM     22  C   LIG    1       24.035 -23.758   6.681  0.00  0.00    +0.307 C 
ATOM     23  O   LIG    1       22.925 -24.266   6.718  0.00  0.00    -0.251 OA
BRANCH  22  24
ATOM     24  C   LIG    1       25.176 -24.339   5.887  0.00  0.00    +0.120 C 
BRANCH  24  25
ATOM     25  C   LIG    1       25.809 -25.404   6.767  0.00  0.00    +0.011 C 
BRANCH  25  26
ATOM     26  C   LIG    1       26.538 -26.495   5.991  0.00  0.00    +0.000 C 
BRANCH  26  27
ATOM     27  C   LIG    1       25.506 -27.255   5.158  0.00  0.00    +0.000 C 
BRANCH  27  28
ATOM     28  C   LIG    1       24.398 -27.885   5.996  0.00  0.00    -0.000 C 
BRANCH  28  29
ATOM     29  C   LIG    1       24.212 -29.373   5.673  0.00  0.00    -0.000 C 
BRANCH  29  30
ATOM     30  C   LIG    1       24.528 -30.287   6.860  0.00  0.00    -0.000 C 
BRANCH  30  31
ATOM     31  C   LIG    1       24.525 -29.527   8.185  0.00  0.00    -0.000 C 
BRANCH  31  33
ATOM     32  C   LIG    1       26.509 -28.418   9.271  0.00  0.00    +0.004 C 
ATOM     33  C   LIG    1       25.843 -29.740   8.930  0.00  0.00    -0.003 C 
ENDBRANCH  31  33
ENDBRANCH  30  31
ENDBRANCH  29  30
ENDBRANCH  28  29
ENDBRANCH  27  28
ENDBRANCH  26  27
ENDBRANCH  25  26
ENDBRANCH  24  25
ENDBRANCH  22  24
ENDBRANCH  21  22
ENDBRANCH   1  21
TORSDOF 11
ENDMDL
MODEL 2
REMARK VINA RESULT:      -6.8      6.124     10.427
REMARK  Name = *****
REMARK                            x       y       z     vdW  Elec       q    Type
REMARK                         _______ _______ _______ _____ _____    ______ ____
ROOT
ATOM      1  C   LIG    1       26.073 -31.040   9.753  0.00  0.00    +0.183 C 
ATOM      2  C   LIG    1       24.710 -30.568  10.335  0.00  0.00    +0.008 C 
ATOM      3  C   LIG    1       23.680 -30.351   9.189  0.00  0.00    +0.015 C 
ATOM      4  C   LIG    1       25.071 -29.188  10.973  0.00  0.00    +0.002 C 
ATOM      5  C   LIG    1       25.297 -29.174  12.503  0.00  0.00    -0.003 C 
ATOM      6  C   LIG    1       24.315 -30.048  13.304  0.00  0.00    +0.002 C 
ATOM      7  C   LIG    1       24.421 -31.480  12.756  0.00  0.00    +0.005 C 
ATOM      8  C   LIG    1       22.878 -29.445  13.560  0.00  0.00    -0.007 C 
ATOM      9  C   LIG    1       22.197 -30.325  14.648  0.00  0.00    +0.016 C 
ATOM     10  C   LIG    1       23.006 -27.977  14.008  0.00  0.00    -0.060 C 
ATOM     11  C   LIG    1       21.933 -27.348  14.533  0.00  0.00    +0.046 C 
ATOM     12  C   LIG    1       20.847 -27.306  13.481  0.00  0.00    +0.156 C 
ATOM     13  O   LIG    1       20.083 -26.344  13.441  0.00  0.00    -0.293 OA
ATOM     14  C   LIG    1       20.641 -28.544  12.614  0.00  0.00    +0.080 C 
ATOM     15  C   LIG    1       23.971 -27.116  13.213  0.00  0.00    +0.032 C 
ATOM     16  C   LIG    1       21.920 -29.362  12.348  0.00  0.00    +0.019 C 
ATOM     17  C   LIG    1       25.347 -27.755  13.093  0.00  0.00    +0.008 C 
ATOM     18  C   LIG    1       26.361 -28.720  10.244  0.00  0.00    +0.008 C 
ATOM     19  C   LIG    1       24.094 -31.626  11.279  0.00  0.00    +0.011 C 
ATOM     20  C   LIG    1       26.664 -29.757   9.179  0.00  0.00    +0.045 C 
ENDROOT
BRANCH   1  21
ATOM     21  O   LIG    1       25.900 -32.079   8.780  0.00  0.00    -0.461 OA
BRANCH  21  22
ATOM     22  C   LIG    1       27.038 -32.732   8.413  0.00  0.00    +0.307 C 
ATOM     23  O   LIG    1       27.752 -33.393   9.151  0.00  0.00    -0.251 OA
BRANCH  22  24
ATOM     24  C   LIG    1       27.215 -32.694   6.918  0.00  0.00    +0.120 C 
BRANCH  24  25
ATOM     25  C   LIG    1       25.863 -32.310   6.339  0.00  0.00    +0.011 C 
BRANCH  25  26
ATOM     26  C   LIG    1       25.919 -31.139   5.363  0.00  0.00    +0.000 C 
BRANCH  26  27
ATOM     27  C   LIG    1       24.795 -30.169   5.723  0.00  0.00    +0.000 C 
BRANCH  27  28
ATOM     28  C   LIG    1       25.148 -28.709   5.456  0.00  0.00    -0.000 C 
BRANCH  28  29
ATOM     29  C   LIG    1       24.810 -27.811   6.653  0.00  0.00    -0.000 C 
BRANCH  29  30
ATOM     30  C   LIG    1       25.867 -26.732   6.908  0.00  0.00    -0.000 C 
BRANCH  30  31
ATOM     31  C   LIG    1       25.520 -25.415   6.217  0.00  0.00    -0.000 C 
BRANCH  31  33
ATOM     32  C   LIG    1       23.475 -24.043   6.750  0.00  0.00    +0.004 C 
ATOM     33  C   LIG    1       24.006 -25.280   6.047  0.00  0.00    -0.003 C 
ENDBRANCH  31  33
ENDBRANCH  30  31
ENDBRANCH  29  30
ENDBRANCH  28  29
ENDBRANCH  27  28
ENDBRANCH  26  27
ENDBRANCH  25  26
ENDBRANCH  24  25
ENDBRANCH  22  24
ENDBRANCH  21  22
ENDBRANCH   1  21
TORSDOF 11
ENDMDL
MODEL 3
REMARK VINA RESULT:      -6.8      5.233     10.452
REMARK  Name = *****
REMARK                            x       y       z     vdW  Elec       q    Type
REMARK                         _______ _______ _______ _____ _____    ______ ____
ROOT
ATOM      1  C   LIG    1       25.474 -31.366   7.785  0.00  0.00    +0.183 C 
ATOM      2  C   LIG    1       25.391 -30.361   8.969  0.00  0.00    +0.008 C 
ATOM      3  C   LIG    1       26.405 -29.200   8.763  0.00  0.00    +0.015 C 
ATOM      4  C   LIG    1       25.841 -31.231  10.187  0.00  0.00    +0.002 C 
ATOM      5  C   LIG    1       24.715 -31.796  11.084  0.00  0.00    -0.003 C 
ATOM      6  C   LIG    1       23.555 -30.819  11.349  0.00  0.00    +0.002 C 
ATOM      7  C   LIG    1       22.994 -30.390   9.984  0.00  0.00    +0.005 C 
ATOM      8  C   LIG    1       23.802 -29.708  12.443  0.00  0.00    -0.007 C 
ATOM      9  C   LIG    1       22.421 -29.075  12.776  0.00  0.00    +0.016 C 
ATOM     10  C   LIG    1       24.457 -30.340  13.685  0.00  0.00    -0.060 C 
ATOM     11  C   LIG    1       24.515 -29.637  14.835  0.00  0.00    +0.046 C 
ATOM     12  C   LIG    1       25.344 -28.395  14.590  0.00  0.00    +0.156 C 
ATOM     13  O   LIG    1       26.037 -27.944  15.498  0.00  0.00    -0.293 OA
ATOM     14  C   LIG    1       25.155 -27.658  13.268  0.00  0.00    +0.080 C 
ATOM     15  C   LIG    1       25.604 -31.299  13.422  0.00  0.00    +0.032 C 
ATOM     16  C   LIG    1       24.774 -28.560  12.078  0.00  0.00    +0.019 C 
ATOM     17  C   LIG    1       25.234 -32.376  12.410  0.00  0.00    +0.008 C 
ATOM     18  C   LIG    1       26.667 -32.398   9.578  0.00  0.00    +0.008 C 
ATOM     19  C   LIG    1       23.993 -29.706   9.066  0.00  0.00    +0.011 C 
ATOM     20  C   LIG    1       26.749 -32.145   8.085  0.00  0.00    +0.045 C 
ENDROOT
BRANCH   1  21
ATOM     21  O   LIG    1       25.497 -30.691   6.520  0.00  0.00    -0.461 OA
BRANCH  21  22
ATOM     22  C   LIG    1       24.287 -30.553   5.909  0.00  0.00    +0.307 C 
ATOM     23  O   LIG    1       23.393 -31.384   5.898  0.00  0.00    -0.251 OA
BRANCH  22  24
ATOM     24  C   LIG    1       24.109 -29.149   5.393  0.00  0.00    +0.120 C 
BRANCH  24  25
ATOM     25  C   LIG    1       25.465 -28.474   5.515  0.00  0.00    +0.011 C 
BRANCH  25  26
ATOM     26  C   LIG    1       25.486 -27.033   5.019  0.00  0.00    +0.000 C 
BRANCH  26  27
ATOM     27  C   LIG    1       25.390 -26.112   6.233  0.00  0.00    +0.000 C 
BRANCH  27  28
ATOM     28  C   LIG    1       24.102 -25.295   6.273  0.00  0.00    -0.000 C 
BRANCH  28  29
ATOM     29  C   LIG    1       24.347 -23.865   6.770  0.00  0.00    -0.000 C 
BRANCH  29  30
ATOM     30  C   LIG    1       23.096 -22.985   6.699  0.00  0.00    -0.000 C 
BRANCH  30  31
ATOM     31  C   LIG    1       23.298 -21.643   7.400  0.00  0.00    -0.000 C 
BRANCH  31  33
ATOM     32  C   LIG    1       22.626 -20.146   5.489  0.00  0.00    +0.004 C 
ATOM     33  C   LIG    1       23.759 -20.580   6.402  0.00  0.00    -0.003 C 
ENDBRANCH  31  33
ENDBRANCH  30  31
ENDBRANCH  29  30
ENDBRANCH  28  29
ENDBRANCH  27  28
ENDBRANCH  26  27
ENDBRANCH  25  26
ENDBRANCH  24  25
ENDBRANCH  22  24
ENDBRANCH  21  22
ENDBRANCH   1  21
TORSDOF 11
ENDMDL
MODEL 4
REMARK VINA RESULT:      -6.6      5.341     10.121
REMARK  Name = *****
REMARK                            x       y       z     vdW  Elec       q    Type
REMARK                         _______ _______ _______ _____ _____    ______ ____
ROOT
ATOM      1  C   LIG    1       24.778 -31.410   8.213  0.00  0.00    +0.183 C 
ATOM      2  C   LIG    1       25.961 -30.967   9.120  0.00  0.00    +0.008 C 
ATOM      3  C   LIG    1       27.268 -31.698   8.699  0.00  0.00    +0.015 C 
ATOM      4  C   LIG    1       25.517 -31.473  10.531  0.00  0.00    +0.002 C 
ATOM      5  C   LIG    1       24.894 -30.419  11.476  0.00  0.00    -0.003 C 
ATOM      6  C   LIG    1       25.580 -29.041  11.442  0.00  0.00    +0.002 C 
ATOM      7  C   LIG    1       25.548 -28.547   9.987  0.00  0.00    +0.005 C 
ATOM      8  C   LIG    1       26.927 -28.902  12.254  0.00  0.00    -0.007 C 
ATOM      9  C   LIG    1       27.248 -27.383  12.357  0.00  0.00    +0.016 C 
ATOM     10  C   LIG    1       26.764 -29.548  13.642  0.00  0.00    -0.060 C 
ATOM     11  C   LIG    1       27.690 -29.315  14.596  0.00  0.00    +0.046 C 
ATOM     12  C   LIG    1       29.017 -29.853  14.108  0.00  0.00    +0.156 C 
ATOM     13  O   LIG    1       29.814 -30.319  14.919  0.00  0.00    -0.293 OA
ATOM     14  C   LIG    1       29.380 -29.641  12.641  0.00  0.00    +0.080 C 
ATOM     15  C   LIG    1       26.091 -30.909  13.673  0.00  0.00    +0.032 C 
ATOM     16  C   LIG    1       28.176 -29.613  11.680  0.00  0.00    +0.019 C 
ATOM     17  C   LIG    1       24.764 -30.912  12.927  0.00  0.00    +0.008 C 
ATOM     18  C   LIG    1       24.493 -32.610  10.258  0.00  0.00    +0.008 C 
ATOM     19  C   LIG    1       26.247 -29.453   8.987  0.00  0.00    +0.011 C 
ATOM     20  C   LIG    1       24.429 -32.792   8.754  0.00  0.00    +0.045 C 
ENDROOT
BRANCH   1  21
ATOM     21  O   LIG    1       25.147 -31.412   6.827  0.00  0.00    -0.461 OA
BRANCH  21  22
ATOM     22  C   LIG    1       24.508 -30.494   6.050  0.00  0.00    +0.307 C 
ATOM     23  O   LIG    1       23.300 -30.325   5.991  0.00  0.00    -0.251 OA
BRANCH  22  24
ATOM     24  C   LIG    1       25.499 -29.567   5.396  0.00  0.00    +0.120 C 
BRANCH  24  25
ATOM     25  C   LIG    1       24.772 -28.249   5.180  0.00  0.00    +0.011 C 
BRANCH  25  26
ATOM     26  C   LIG    1       25.129 -27.172   6.199  0.00  0.00    +0.000 C 
BRANCH  26  27
ATOM     27  C   LIG    1       24.172 -25.998   6.002  0.00  0.00    +0.000 C 
BRANCH  27  28
ATOM     28  C   LIG    1       24.884 -24.669   5.771  0.00  0.00    -0.000 C 
BRANCH  28  29
ATOM     29  C   LIG    1       24.648 -23.685   6.923  0.00  0.00    -0.000 C 
BRANCH  29  30
ATOM     30  C   LIG    1       23.261 -23.037   6.882  0.00  0.00    -0.000 C 
BRANCH  30  31
ATOM     31  C   LIG    1       23.330 -21.524   7.077  0.00  0.00    -0.000 C 
BRANCH  31  33
ATOM     32  C   LIG    1       22.670 -19.780   5.383  0.00  0.00    +0.004 C 
ATOM     33  C   LIG    1       23.700 -20.829   5.765  0.00  0.00    -0.003 C 
ENDBRANCH  31  33
ENDBRANCH  30  31
ENDBRANCH  29  30
ENDBRANCH  28  29
ENDBRANCH  27  28
ENDBRANCH  26  27
ENDBRANCH  25  26
ENDBRANCH  24  25
ENDBRANCH  22  24
ENDBRANCH  21  22
ENDBRANCH   1  21
TORSDOF 11
ENDMDL
MODEL 5
REMARK VINA RESULT:      -6.5      5.299     11.141
REMARK  Name = *****
REMARK                            x       y       z     vdW  Elec       q    Type
REMARK                         _______ _______ _______ _____ _____    ______ ____
ROOT
ATOM      1  C   LIG    1       25.326 -30.985   7.088  0.00  0.00    +0.183 C 
ATOM      2  C   LIG    1       25.377 -30.556   8.582  0.00  0.00    +0.008 C 
ATOM      3  C   LIG    1       26.589 -29.614   8.833  0.00  0.00    +0.015 C 
ATOM      4  C   LIG    1       25.615 -31.914   9.318  0.00  0.00    +0.002 C 
ATOM      5  C   LIG    1       24.372 -32.585   9.947  0.00  0.00    -0.003 C 
ATOM      6  C   LIG    1       23.395 -31.612  10.632  0.00  0.00    +0.002 C 
ATOM      7  C   LIG    1       22.974 -30.569   9.584  0.00  0.00    +0.005 C 
ATOM      8  C   LIG    1       23.793 -31.110  12.075  0.00  0.00    -0.007 C 
ATOM      9  C   LIG    1       22.534 -30.434  12.690  0.00  0.00    +0.016 C 
ATOM     10  C   LIG    1       24.274 -32.302  12.923  0.00  0.00    -0.060 C 
ATOM     11  C   LIG    1       24.411 -32.154  14.258  0.00  0.00    +0.046 C 
ATOM     12  C   LIG    1       25.457 -31.092  14.512  0.00  0.00    +0.156 C 
ATOM     13  O   LIG    1       26.183 -31.184  15.499  0.00  0.00    -0.293 OA
ATOM     14  C   LIG    1       25.455 -29.857  13.617  0.00  0.00    +0.080 C 
ATOM     15  C   LIG    1       25.241 -33.257  12.247  0.00  0.00    +0.032 C 
ATOM     16  C   LIG    1       24.967 -30.108  12.177  0.00  0.00    +0.019 C 
ATOM     17  C   LIG    1       24.726 -33.739  10.898  0.00  0.00    +0.008 C 
ATOM     18  C   LIG    1       26.244 -32.855   8.255  0.00  0.00    +0.008 C 
ATOM     19  C   LIG    1       24.116 -29.760   8.991  0.00  0.00    +0.011 C 
ATOM     20  C   LIG    1       26.429 -32.033   6.994  0.00  0.00    +0.045 C 
ENDROOT
BRANCH   1  21
ATOM     21  O   LIG    1       25.519 -29.866   6.210  0.00  0.00    -0.461 OA
BRANCH  21  22
ATOM     22  C   LIG    1       24.383 -29.338   5.678  0.00  0.00    +0.307 C 
ATOM     23  O   LIG    1       23.262 -29.813   5.771  0.00  0.00    -0.251 OA
BRANCH  22  24
ATOM     24  C   LIG    1       24.650 -27.970   5.105  0.00  0.00    +0.120 C 
BRANCH  24  25
ATOM     25  C   LIG    1       24.617 -27.003   6.277  0.00  0.00    +0.011 C 
BRANCH  25  26
ATOM     26  C   LIG    1       25.922 -26.242   6.487  0.00  0.00    +0.000 C 
BRANCH  26  27
ATOM     27  C   LIG    1       25.576 -24.822   6.932  0.00  0.00    +0.000 C 
BRANCH  27  28
ATOM     28  C   LIG    1       24.144 -24.415   6.598  0.00  0.00    -0.000 C 
BRANCH  28  29
ATOM     29  C   LIG    1       24.059 -22.959   6.125  0.00  0.00    -0.000 C 
BRANCH  29  30
ATOM     30  C   LIG    1       23.330 -22.049   7.117  0.00  0.00    -0.000 C 
BRANCH  30  31
ATOM     31  C   LIG    1       23.351 -20.587   6.676  0.00  0.00    -0.000 C 
BRANCH  31  33
ATOM     32  C   LIG    1       23.238 -19.441   4.435  0.00  0.00    +0.004 C 
ATOM     33  C   LIG    1       22.548 -20.402   5.388  0.00  0.00    -0.003 C 
ENDBRANCH  31  33
ENDBRANCH  30  31
ENDBRANCH  29  30
ENDBRANCH  28  29
ENDBRANCH  27  28
ENDBRANCH  26  27
ENDBRANCH  25  26
ENDBRANCH  24  25
ENDBRANCH  22  24
ENDBRANCH  21  22
ENDBRANCH   1  21
TORSDOF 11
ENDMDL
MODEL 6
REMARK VINA RESULT:      -6.4      2.868      8.540
REMARK  Name = *****
REMARK                            x       y       z     vdW  Elec       q    Type
REMARK                         _______ _______ _______ _____ _____    ______ ____
ROOT
ATOM      1  C   LIG    1       24.142 -18.457   4.262  0.00  0.00    +0.183 C 
ATOM      2  C   LIG    1       24.494 -19.972   4.233  0.00  0.00    +0.008 C 
ATOM      3  C   LIG    1       24.507 -20.495   2.768  0.00  0.00    +0.015 C 
ATOM      4  C   LIG    1       23.294 -20.615   5.001  0.00  0.00    +0.002 C 
ATOM      5  C   LIG    1       23.539 -20.975   6.485  0.00  0.00    -0.003 C 
ATOM      6  C   LIG    1       24.925 -21.578   6.778  0.00  0.00    +0.002 C 
ATOM      7  C   LIG    1       25.978 -20.572   6.286  0.00  0.00    +0.005 C 
ATOM      8  C   LIG    1       25.120 -23.105   6.426  0.00  0.00    -0.007 C 
ATOM      9  C   LIG    1       26.441 -23.568   7.105  0.00  0.00    +0.016 C 
ATOM     10  C   LIG    1       23.907 -23.911   6.925  0.00  0.00    -0.060 C 
ATOM     11  C   LIG    1       23.978 -25.258   6.970  0.00  0.00    +0.046 C 
ATOM     12  C   LIG    1       24.189 -25.769   5.562  0.00  0.00    +0.156 C 
ATOM     13  O   LIG    1       23.701 -26.847   5.232  0.00  0.00    -0.293 OA
ATOM     14  C   LIG    1       25.143 -24.996   4.656  0.00  0.00    +0.080 C 
ATOM     15  C   LIG    1       22.541 -23.317   6.630  0.00  0.00    +0.032 C 
ATOM     16  C   LIG    1       25.201 -23.481   4.927  0.00  0.00    +0.019 C 
ATOM     17  C   LIG    1       22.436 -21.866   7.079  0.00  0.00    +0.008 C 
ATOM     18  C   LIG    1       22.134 -19.587   4.890  0.00  0.00    +0.008 C 
ATOM     19  C   LIG    1       25.905 -20.242   4.804  0.00  0.00    +0.011 C 
ATOM     20  C   LIG    1       22.637 -18.449   4.023  0.00  0.00    +0.045 C 
ENDROOT
BRANCH   1  21
ATOM     21  O   LIG    1       24.885 -17.723   3.279  0.00  0.00    -0.461 OA
BRANCH  21  22
ATOM     22  C   LIG    1       25.124 -16.417   3.580  0.00  0.00    +0.307 C 
ATOM     23  O   LIG    1       24.302 -15.621   4.008  0.00  0.00    -0.251 OA
BRANCH  22  24
ATOM     24  C   LIG    1       26.596 -16.112   3.498  0.00  0.00    +0.120 C 
BRANCH  24  25
ATOM     25  C   LIG    1       27.319 -17.407   3.829  0.00  0.00    +0.011 C 
BRANCH  25  26
ATOM     26  C   LIG    1       28.556 -17.220   4.701  0.00  0.00    +0.000 C 
BRANCH  26  27
ATOM     27  C   LIG    1       28.945 -18.583   5.270  0.00  0.00    +0.000 C 
BRANCH  27  28
ATOM     28  C   LIG    1       29.670 -18.496   6.609  0.00  0.00    -0.000 C 
BRANCH  28  29
ATOM     29  C   LIG    1       29.908 -19.881   7.223  0.00  0.00    -0.000 C 
BRANCH  29  30
ATOM     30  C   LIG    1       31.164 -19.940   8.097  0.00  0.00    -0.000 C 
BRANCH  30  31
ATOM     31  C   LIG    1       31.667 -18.547   8.472  0.00  0.00    -0.000 C 
BRANCH  31  33
ATOM     32  C   LIG    1       30.352 -17.033   9.996  0.00  0.00    +0.004 C 
ATOM     33  C   LIG    1       31.301 -18.216   9.919  0.00  0.00    -0.003 C 
ENDBRANCH  31  33
ENDBRANCH  30  31
ENDBRANCH  29  30
ENDBRANCH  28  29
ENDBRANCH  27  28
ENDBRANCH  26  27
ENDBRANCH  25  26
ENDBRANCH  24  25
ENDBRANCH  22  24
ENDBRANCH  21  22
ENDBRANCH   1  21
TORSDOF 11
ENDMDL
MODEL 7
REMARK VINA RESULT:      -6.1      3.405      6.202
REMARK  Name = *****
REMARK                            x       y       z     vdW  Elec       q    Type
REMARK                         _______ _______ _______ _____ _____    ______ ____
ROOT
ATOM      1  C   LIG    1       24.947 -26.775   6.504  0.00  0.00    +0.183 C 
ATOM      2  C   LIG    1       24.721 -25.476   5.679  0.00  0.00    +0.008 C 
ATOM      3  C   LIG    1       24.924 -25.757   4.163  0.00  0.00    +0.015 C 
ATOM      4  C   LIG    1       25.866 -24.544   6.190  0.00  0.00    +0.002 C 
ATOM      5  C   LIG    1       25.474 -23.487   7.250  0.00  0.00    -0.003 C 
ATOM      6  C   LIG    1       24.114 -22.809   7.005  0.00  0.00    +0.002 C 
ATOM      7  C   LIG    1       23.053 -23.918   6.931  0.00  0.00    +0.005 C 
ATOM      8  C   LIG    1       24.081 -21.661   5.921  0.00  0.00    -0.007 C 
ATOM      9  C   LIG    1       22.728 -20.911   6.085  0.00  0.00    +0.016 C 
ATOM     10  C   LIG    1       25.284 -20.723   6.123  0.00  0.00    -0.060 C 
ATOM     11  C   LIG    1       25.313 -19.534   5.485  0.00  0.00    +0.046 C 
ATOM     12  C   LIG    1       25.313 -19.795   3.995  0.00  0.00    +0.156 C 
ATOM     13  O   LIG    1       25.919 -19.031   3.249  0.00  0.00    -0.293 OA
ATOM     14  C   LIG    1       24.418 -20.910   3.464  0.00  0.00    +0.080 C 
ATOM     15  C   LIG    1       26.625 -21.395   6.358  0.00  0.00    +0.032 C 
ATOM     16  C   LIG    1       24.210 -22.086   4.438  0.00  0.00    +0.019 C 
ATOM     17  C   LIG    1       26.564 -22.427   7.476  0.00  0.00    +0.008 C 
ATOM     18  C   LIG    1       26.947 -25.497   6.770  0.00  0.00    +0.008 C 
ATOM     19  C   LIG    1       23.276 -24.946   5.834  0.00  0.00    +0.011 C 
ATOM     20  C   LIG    1       26.465 -26.913   6.516  0.00  0.00    +0.045 C 
ENDROOT
BRANCH   1  21
ATOM     21  O   LIG    1       24.273 -27.897   5.917  0.00  0.00    -0.461 OA
BRANCH  21  22
ATOM     22  C   LIG    1       24.697 -29.121   6.340  0.00  0.00    +0.307 C 
ATOM     23  O   LIG    1       25.325 -29.928   5.674  0.00  0.00    -0.251 OA
BRANCH  22  24
ATOM     24  C   LIG    1       24.455 -29.287   7.817  0.00  0.00    +0.120 C 
BRANCH  24  25
ATOM     25  C   LIG    1       25.597 -30.141   8.343  0.00  0.00    +0.011 C 
BRANCH  25  26
ATOM     26  C   LIG    1       25.986 -29.832   9.784  0.00  0.00    +0.000 C 
BRANCH  26  27
ATOM     27  C   LIG    1       26.584 -28.427   9.824  0.00  0.00    +0.000 C 
BRANCH  27  28
ATOM     28  C   LIG    1       27.016 -27.993  11.221  0.00  0.00    -0.000 C 
BRANCH  28  29
ATOM     29  C   LIG    1       25.820 -27.840  12.169  0.00  0.00    -0.000 C 
BRANCH  29  30
ATOM     30  C   LIG    1       26.014 -26.726  13.201  0.00  0.00    -0.000 C 
BRANCH  30  31
ATOM     31  C   LIG    1       24.687 -26.100  13.625  0.00  0.00    -0.000 C 
BRANCH  31  33
ATOM     32  C   LIG    1       22.237 -26.534  13.234  0.00  0.00    +0.004 C 
ATOM     33  C   LIG    1       23.572 -27.147  13.617  0.00  0.00    -0.003 C 
ENDBRANCH  31  33
ENDBRANCH  30  31
ENDBRANCH  29  30
ENDBRANCH  28  29
ENDBRANCH  27  28
ENDBRANCH  26  27
ENDBRANCH  25  26
ENDBRANCH  24  25
ENDBRANCH  22  24
ENDBRANCH  21  22
ENDBRANCH   1  21
TORSDOF 11
ENDMDL
MODEL 8
REMARK VINA RESULT:      -6.1      4.890     10.725
REMARK  Name = *****
REMARK                            x       y       z     vdW  Elec       q    Type
REMARK                         _______ _______ _______ _____ _____    ______ ____
ROOT
ATOM      1  C   LIG    1       25.386 -28.599   8.607  0.00  0.00    +0.183 C 
ATOM      2  C   LIG    1       25.889 -29.327   9.886  0.00  0.00    +0.008 C 
ATOM      3  C   LIG    1       26.964 -30.388   9.516  0.00  0.00    +0.015 C 
ATOM      4  C   LIG    1       24.601 -30.050  10.395  0.00  0.00    +0.002 C 
ATOM      5  C   LIG    1       23.833 -29.362  11.548  0.00  0.00    -0.003 C 
ATOM      6  C   LIG    1       24.730 -28.743  12.635  0.00  0.00    +0.002 C 
ATOM      7  C   LIG    1       25.672 -27.745  11.943  0.00  0.00    +0.005 C 
ATOM      8  C   LIG    1       25.339 -29.738  13.700  0.00  0.00    -0.007 C 
ATOM      9  C   LIG    1       25.908 -28.874  14.863  0.00  0.00    +0.016 C 
ATOM     10  C   LIG    1       24.246 -30.706  14.188  0.00  0.00    -0.060 C 
ATOM     11  C   LIG    1       24.471 -31.463  15.283  0.00  0.00    +0.046 C 
ATOM     12  C   LIG    1       25.649 -32.369  15.000  0.00  0.00    +0.156 C 
ATOM     13  O   LIG    1       25.680 -33.491  15.499  0.00  0.00    -0.293 OA
ATOM     14  C   LIG    1       26.832 -31.786  14.234  0.00  0.00    +0.080 C 
ATOM     15  C   LIG    1       23.367 -31.320  13.113  0.00  0.00    +0.032 C 
ATOM     16  C   LIG    1       26.463 -30.687  13.220  0.00  0.00    +0.019 C 
ATOM     17  C   LIG    1       22.769 -30.268  12.189  0.00  0.00    +0.008 C 
ATOM     18  C   LIG    1       23.680 -30.180   9.150  0.00  0.00    +0.008 C 
ATOM     19  C   LIG    1       26.567 -28.347  10.872  0.00  0.00    +0.011 C 
ATOM     20  C   LIG    1       24.457 -29.626   7.970  0.00  0.00    +0.045 C 
ENDROOT
BRANCH   1  21
ATOM     21  O   LIG    1       26.476 -28.206   7.760  0.00  0.00    -0.461 OA
BRANCH  21  22
ATOM     22  C   LIG    1       26.155 -27.344   6.756  0.00  0.00    +0.307 C 
ATOM     23  O   LIG    1       26.018 -27.637   5.579  0.00  0.00    -0.251 OA
BRANCH  22  24
ATOM     24  C   LIG    1       25.798 -25.990   7.311  0.00  0.00    +0.120 C 
BRANCH  24  25
ATOM     25  C   LIG    1       25.986 -25.000   6.174  0.00  0.00    +0.011 C 
BRANCH  25  26
ATOM     26  C   LIG    1       24.681 -24.541   5.531  0.00  0.00    +0.000 C 
BRANCH  26  27
ATOM     27  C   LIG    1       23.605 -24.507   6.615  0.00  0.00    +0.000 C 
BRANCH  27  28
ATOM     28  C   LIG    1       22.838 -23.190   6.665  0.00  0.00    -0.000 C 
BRANCH  28  29
ATOM     29  C   LIG    1       23.544 -22.148   7.542  0.00  0.00    -0.000 C 
BRANCH  29  30
ATOM     30  C   LIG    1       23.867 -20.854   6.791  0.00  0.00    -0.000 C 
BRANCH  30  31
ATOM     31  C   LIG    1       23.231 -20.823   5.402  0.00  0.00    -0.000 C 
BRANCH  31  33
ATOM     32  C   LIG    1       22.993 -18.759   3.979  0.00  0.00    +0.004 C 
ATOM     33  C   LIG    1       22.471 -19.514   5.189  0.00  0.00    -0.003 C 
ENDBRANCH  31  33
ENDBRANCH  30  31
ENDBRANCH  29  30
ENDBRANCH  28  29
ENDBRANCH  27  28
ENDBRANCH  26  27
ENDBRANCH  25  26
ENDBRANCH  24  25
ENDBRANCH  22  24
ENDBRANCH  21  22
ENDBRANCH   1  21
TORSDOF 11
ENDMDL
MODEL 9
REMARK VINA RESULT:      -6.0      1.459      2.190
REMARK  Name = *****
REMARK                            x       y       z     vdW  Elec       q    Type
REMARK                         _______ _______ _______ _____ _____    ______ ____
ROOT
ATOM      1  C   LIG    1       25.729 -21.871   5.857  0.00  0.00    +0.183 C 
ATOM      2  C   LIG    1       26.521 -21.147   6.983  0.00  0.00    +0.008 C 
ATOM      3  C   LIG    1       25.545 -20.599   8.064  0.00  0.00    +0.015 C 
ATOM      4  C   LIG    1       27.176 -19.949   6.223  0.00  0.00    +0.002 C 
ATOM      5  C   LIG    1       28.658 -20.120   5.813  0.00  0.00    -0.003 C 
ATOM      6  C   LIG    1       29.540 -20.808   6.870  0.00  0.00    +0.002 C 
ATOM      7  C   LIG    1       28.905 -22.173   7.182  0.00  0.00    +0.005 C 
ATOM      8  C   LIG    1       30.029 -19.912   8.075  0.00  0.00    -0.007 C 
ATOM      9  C   LIG    1       31.151 -20.700   8.809  0.00  0.00    +0.016 C 
ATOM     10  C   LIG    1       30.533 -18.559   7.543  0.00  0.00    -0.060 C 
ATOM     11  C   LIG    1       31.237 -17.745   8.358  0.00  0.00    +0.046 C 
ATOM     12  C   LIG    1       30.352 -17.361   9.523  0.00  0.00    +0.156 C 
ATOM     13  O   LIG    1       30.472 -16.249  10.031  0.00  0.00    -0.293 OA
ATOM     14  C   LIG    1       29.457 -18.439  10.128  0.00  0.00    +0.080 C 
ATOM     15  C   LIG    1       29.658 -17.880   6.504  0.00  0.00    +0.032 C 
ATOM     16  C   LIG    1       28.970 -19.505   9.128  0.00  0.00    +0.019 C 
ATOM     17  C   LIG    1       29.310 -18.808   5.349  0.00  0.00    +0.008 C 
ATOM     18  C   LIG    1       26.299 -19.733   4.959  0.00  0.00    +0.008 C 
ATOM     19  C   LIG    1       27.484 -22.112   7.715  0.00  0.00    +0.011 C 
ATOM     20  C   LIG    1       25.148 -20.717   5.050  0.00  0.00    +0.045 C 
ENDROOT
BRANCH   1  21
ATOM     21  O   LIG    1       24.735 -22.755   6.395  0.00  0.00    -0.461 OA
BRANCH  21  22
ATOM     22  C   LIG    1       24.550 -23.916   5.708  0.00  0.00    +0.307 C 
ATOM     23  O   LIG    1       24.723 -24.071   4.509  0.00  0.00    -0.251 OA
BRANCH  22  24
ATOM     24  C   LIG    1       24.280 -25.057   6.653  0.00  0.00    +0.120 C 
BRANCH  24  25
ATOM     25  C   LIG    1       24.327 -26.324   5.815  0.00  0.00    +0.011 C 
BRANCH  25  26
ATOM     26  C   LIG    1       24.800 -27.554   6.581  0.00  0.00    +0.000 C 
BRANCH  26  27
ATOM     27  C   LIG    1       24.171 -28.787   5.935  0.00  0.00    +0.000 C 
BRANCH  27  28
ATOM     28  C   LIG    1       25.196 -29.819   5.474  0.00  0.00    -0.000 C 
BRANCH  28  29
ATOM     29  C   LIG    1       25.394 -30.931   6.512  0.00  0.00    -0.000 C 
BRANCH  29  30
ATOM     30  C   LIG    1       25.015 -32.317   5.982  0.00  0.00    -0.000 C 
BRANCH  30  31
ATOM     31  C   LIG    1       23.524 -32.604   6.140  0.00  0.00    -0.000 C 
BRANCH  31  33
ATOM     32  C   LIG    1       24.131 -33.796   4.006  0.00  0.00    +0.004 C 
ATOM     33  C   LIG    1       23.018 -33.473   4.988  0.00  0.00    -0.003 C 
ENDBRANCH  31  33
ENDBRANCH  30  31
ENDBRANCH  29  30
ENDBRANCH  28  29
ENDBRANCH  27  28
ENDBRANCH  26  27
ENDBRANCH  25  26
ENDBRANCH  24  25
ENDBRANCH  22  24
ENDBRANCH  21  22
ENDBRANCH   1  21
TORSDOF 11
ENDMDL
