MODEL 1
REMARK VINA RESULT:       6.0      0.000      0.000
REMARK  Name = *****
REMARK                            x       y       z     vdW  Elec       q    Type
REMARK                         _______ _______ _______ _____ _____    ______ ____
ROOT
ATOM      1  C   LIG    1       22.813 -19.654   4.215  0.00  0.00    -0.002 C 
ATOM      2  C   LIG    1       23.593 -18.382   4.749  0.00  0.00    -0.026 C 
ATOM      3  C   LIG    1       23.480 -18.238   6.287  0.00  0.00    +0.012 C 
ATOM      4  C   LIG    1       22.852 -17.152   4.106  0.00  0.00    +0.001 C 
ATOM      5  C   LIG    1       23.633 -16.053   3.308  0.00  0.00    +0.025 C 
ATOM      6  C   LIG    1       25.133 -16.333   3.002  0.00  0.00    +0.001 C 
ATOM      7  C   LIG    1       25.393 -17.845   3.032  0.00  0.00    +0.005 C 
ATOM      8  C   LIG    1       26.199 -15.387   3.720  0.00  0.00    -0.026 C 
ATOM      9  C   LIG    1       27.539 -16.132   4.013  0.00  0.00    +0.012 C 
ATOM     10  C   LIG    1       25.680 -14.793   5.076  0.00  0.00    +0.000 C 
ATOM     11  C   LIG    1       26.522 -13.593   5.573  0.00  0.00    +0.035 C 
ATOM     12  C   LIG    1       26.759 -12.515   4.516  0.00  0.00    +0.115 C 
ATOM     13  C   LIG    1       27.397 -13.100   3.266  0.00  0.00    +0.032 C 
ATOM     14  C   LIG    1       24.176 -14.458   5.187  0.00  0.00    +0.035 C 
ATOM     15  C   LIG    1       26.600 -14.269   2.693  0.00  0.00    +0.009 C 
ATOM     16  C   LIG    1       23.369 -14.671   3.926  0.00  0.00    +0.118 C 
ATOM     17  C   LIG    1       21.741 -17.761   3.232  0.00  0.00    +0.005 C 
ATOM     18  C   LIG    1       25.082 -18.458   4.382  0.00  0.00    +0.007 C 
ATOM     19  C   LIG    1       21.426 -19.091   3.885  0.00  0.00    +0.004 C 
ENDROOT
BRANCH   1  21
ATOM     20  C   LIG    1       21.341 -21.572   5.141  0.00  0.00    +0.008 C 
ATOM     21  C   LIG    1       22.732 -20.924   5.120  0.00  0.00    -0.010 C 
BRANCH  21  22
ATOM     22  C   LIG    1       23.200 -20.678   6.584  0.00  0.00    +0.015 C 
BRANCH  22  23
ATOM     23  C   LIG    1       24.346 -21.570   7.062  0.00  0.00    +0.121 C 
BRANCH  23  24
ATOM     24  C   LIG    1       25.647 -21.185   6.402  0.00  0.00    +0.305 C 
ATOM     25  O   LIG    1       26.546 -20.577   6.967  0.00  0.00    -0.251 OA
BRANCH  24  26
ATOM     26  O   LIG    1       25.728 -21.554   5.105  0.00  0.00    -0.481 OA
ATOM     27  H   LIG    1       26.444 -21.117   4.605  0.00  0.00    +0.295 HD
ENDBRANCH  24  26
ENDBRANCH  23  24
ENDBRANCH  22  23
ENDBRANCH  21  22
ENDBRANCH   1  21
BRANCH  12  28
ATOM     28  O   LIG    1       25.555 -11.830   4.188  0.00  0.00    -0.392 OA
ATOM     29  H   LIG    1       24.825 -12.480   4.121  0.00  0.00    +0.210 HD
ENDBRANCH  12  28
BRANCH  16  30
ATOM     30  O   LIG    1       23.668 -13.617   3.016  0.00  0.00    -0.392 OA
ATOM     31  H   LIG    1       23.055 -12.884   3.212  0.00  0.00    +0.210 HD
ENDBRANCH  16  30
TORSDOF 7
ENDMDL
MODEL 2
REMARK VINA RESULT:       6.6      1.024      1.202
REMARK  Name = *****
REMARK                            x       y       z     vdW  Elec       q    Type
REMARK                         _______ _______ _______ _____ _____    ______ ____
ROOT
ATOM      1  C   LIG    1       23.472 -20.057   4.454  0.00  0.00    -0.002 C 
ATOM      2  C   LIG    1       24.023 -18.637   4.891  0.00  0.00    -0.026 C 
ATOM      3  C   LIG    1       24.026 -18.468   6.431  0.00  0.00    +0.012 C 
ATOM      4  C   LIG    1       22.992 -17.603   4.306  0.00  0.00    +0.001 C 
ATOM      5  C   LIG    1       23.457 -16.398   3.420  0.00  0.00    +0.025 C 
ATOM      6  C   LIG    1       24.948 -16.381   2.974  0.00  0.00    +0.001 C 
ATOM      7  C   LIG    1       25.510 -17.809   2.999  0.00  0.00    +0.005 C 
ATOM      8  C   LIG    1       25.861 -15.217   3.571  0.00  0.00    -0.026 C 
ATOM      9  C   LIG    1       27.346 -15.668   3.743  0.00  0.00    +0.012 C 
ATOM     10  C   LIG    1       25.360 -14.694   4.963  0.00  0.00    +0.000 C 
ATOM     11  C   LIG    1       25.984 -13.334   5.359  0.00  0.00    +0.035 C 
ATOM     12  C   LIG    1       25.899 -12.267   4.268  0.00  0.00    +0.115 C 
ATOM     13  C   LIG    1       26.524 -12.753   2.970  0.00  0.00    +0.032 C 
ATOM     14  C   LIG    1       23.837 -14.664   5.215  0.00  0.00    +0.035 C 
ATOM     15  C   LIG    1       25.931 -14.077   2.494  0.00  0.00    +0.009 C 
ATOM     16  C   LIG    1       22.977 -15.077   4.041  0.00  0.00    +0.118 C 
ATOM     17  C   LIG    1       21.952 -18.452   3.554  0.00  0.00    +0.005 C 
ATOM     18  C   LIG    1       25.456 -18.425   4.382  0.00  0.00    +0.007 C 
ATOM     19  C   LIG    1       21.974 -19.796   4.252  0.00  0.00    +0.004 C 
ENDROOT
BRANCH   1  21
ATOM     20  C   LIG    1       23.011 -21.199   6.731  0.00  0.00    +0.008 C 
ATOM     21  C   LIG    1       23.733 -21.287   5.380  0.00  0.00    -0.010 C 
BRANCH  21  22
ATOM     22  C   LIG    1       25.243 -21.571   5.629  0.00  0.00    +0.015 C 
BRANCH  22  23
ATOM     23  C   LIG    1       25.853 -20.851   6.833  0.00  0.00    +0.121 C 
BRANCH  23  24
ATOM     24  C   LIG    1       27.321 -20.578   6.617  0.00  0.00    +0.305 C 
ATOM     25  O   LIG    1       27.757 -19.572   6.074  0.00  0.00    -0.251 OA
BRANCH  24  26
ATOM     26  O   LIG    1       28.129 -21.566   7.061  0.00  0.00    -0.481 OA
ATOM     27  H   LIG    1       27.670 -22.267   7.562  0.00  0.00    +0.295 HD
ENDBRANCH  24  26
ENDBRANCH  23  24
ENDBRANCH  22  23
ENDBRANCH  21  22
ENDBRANCH   1  21
BRANCH  12  28
ATOM     28  O   LIG    1       24.556 -11.847   4.050  0.00  0.00    -0.392 OA
ATOM     29  H   LIG    1       24.535 -10.871   3.967  0.00  0.00    +0.210 HD
ENDBRANCH  12  28
BRANCH  16  30
ATOM     30  O   LIG    1       22.970 -14.015   3.092  0.00  0.00    -0.392 OA
ATOM     31  H   LIG    1       23.898 -13.753   2.944  0.00  0.00    +0.210 HD
ENDBRANCH  16  30
TORSDOF 7
ENDMDL
MODEL 3
REMARK VINA RESULT:       8.6      1.540      2.705
REMARK  Name = *****
REMARK                            x       y       z     vdW  Elec       q    Type
REMARK                         _______ _______ _______ _____ _____    ______ ____
ROOT
ATOM      1  C   LIG    1       22.350 -16.930   4.056  0.00  0.00    -0.002 C 
ATOM      2  C   LIG    1       23.865 -16.486   4.194  0.00  0.00    -0.026 C 
ATOM      3  C   LIG    1       24.736 -17.596   4.833  0.00  0.00    +0.012 C 
ATOM      4  C   LIG    1       23.843 -15.272   5.194  0.00  0.00    +0.001 C 
ATOM      5  C   LIG    1       24.519 -13.905   4.835  0.00  0.00    +0.025 C 
ATOM      6  C   LIG    1       25.030 -13.731   3.375  0.00  0.00    +0.001 C 
ATOM      7  C   LIG    1       24.268 -14.683   2.444  0.00  0.00    +0.005 C 
ATOM      8  C   LIG    1       26.609 -13.613   3.179  0.00  0.00    -0.026 C 
ATOM      9  C   LIG    1       27.076 -14.207   1.812  0.00  0.00    +0.012 C 
ATOM     10  C   LIG    1       27.426 -14.330   4.311  0.00  0.00    +0.000 C 
ATOM     11  C   LIG    1       28.912 -13.899   4.352  0.00  0.00    +0.035 C 
ATOM     12  C   LIG    1       29.123 -12.385   4.348  0.00  0.00    +0.115 C 
ATOM     13  C   LIG    1       28.439 -11.735   3.156  0.00  0.00    +0.032 C 
ATOM     14  C   LIG    1       26.839 -14.319   5.739  0.00  0.00    +0.035 C 
ATOM     15  C   LIG    1       26.955 -12.085   3.069  0.00  0.00    +0.009 C 
ATOM     16  C   LIG    1       25.556 -13.536   5.907  0.00  0.00    +0.118 C 
ATOM     17  C   LIG    1       22.358 -15.061   5.541  0.00  0.00    +0.005 C 
ATOM     18  C   LIG    1       24.461 -16.137   2.823  0.00  0.00    +0.007 C 
ATOM     19  C   LIG    1       21.725 -16.425   5.362  0.00  0.00    +0.004 C 
ENDROOT
BRANCH   1  21
ATOM     20  C   LIG    1       20.578 -18.678   3.345  0.00  0.00    +0.008 C 
ATOM     21  C   LIG    1       22.025 -18.434   3.792  0.00  0.00    -0.010 C 
BRANCH  21  22
ATOM     22  C   LIG    1       22.347 -19.363   4.999  0.00  0.00    +0.015 C 
BRANCH  22  23
ATOM     23  C   LIG    1       23.022 -20.688   4.642  0.00  0.00    +0.121 C 
BRANCH  23  24
ATOM     24  C   LIG    1       24.029 -21.086   5.692  0.00  0.00    +0.305 C 
ATOM     25  O   LIG    1       23.818 -21.033   6.896  0.00  0.00    -0.251 OA
BRANCH  24  26
ATOM     26  O   LIG    1       25.213 -21.492   5.183  0.00  0.00    -0.481 OA
ATOM     27  H   LIG    1       25.300 -21.370   4.219  0.00  0.00    +0.295 HD
ENDBRANCH  24  26
ENDBRANCH  23  24
ENDBRANCH  22  23
ENDBRANCH  21  22
ENDBRANCH   1  21
BRANCH  12  28
ATOM     28  O   LIG    1       28.680 -11.792   5.563  0.00  0.00    -0.392 OA
ATOM     29  H   LIG    1       28.246 -10.935   5.361  0.00  0.00    +0.210 HD
ENDBRANCH  12  28
BRANCH  16  30
ATOM     30  O   LIG    1       25.870 -12.147   5.888  0.00  0.00    -0.392 OA
ATOM     31  H   LIG    1       25.844 -11.858   4.956  0.00  0.00    +0.210 HD
ENDBRANCH  16  30
TORSDOF 7
ENDMDL
