MODEL 1
REMARK VINA RESULT:      -3.3      0.000      0.000
REMARK  Name = *****
REMARK                            x       y       z     vdW  Elec       q    Type
REMARK                         _______ _______ _______ _____ _____    ______ ____
ROOT
ATOM      1  O   LIG    1       26.668 -14.356   1.812  0.00  0.00    -0.251 OA
ATOM      2  C   LIG    1       26.936 -14.093   2.959  0.00  0.00    +0.310 C 
ATOM      3  O   LIG    1       26.162 -14.236   4.068  0.00  0.00    -0.464 OA
ATOM      4  C   LIG    1       27.134 -13.548   4.901  0.00  0.00    +0.243 C 
ATOM      5  C   LIG    1       28.134 -13.534   3.749  0.00  0.00    +0.161 C 
ENDROOT
TORSDOF 0
ENDMDL
MODEL 2
REMARK VINA RESULT:      -3.2      2.157      2.617
REMARK  Name = *****
REMARK                            x       y       z     vdW  Elec       q    Type
REMARK                         _______ _______ _______ _____ _____    ______ ____
ROOT
ATOM      1  O   LIG    1       26.626 -14.223   1.931  0.00  0.00    -0.251 OA
ATOM      2  C   LIG    1       25.657 -13.720   2.444  0.00  0.00    +0.310 C 
ATOM      3  O   LIG    1       24.935 -12.646   2.028  0.00  0.00    -0.464 OA
ATOM      4  C   LIG    1       24.146 -12.635   3.248  0.00  0.00    +0.243 C 
ATOM      5  C   LIG    1       24.774 -13.955   3.684  0.00  0.00    +0.161 C 
ENDROOT
TORSDOF 0
ENDMDL
MODEL 3
REMARK VINA RESULT:      -3.2      1.344      1.950
REMARK  Name = *****
REMARK                            x       y       z     vdW  Elec       q    Type
REMARK                         _______ _______ _______ _____ _____    ______ ____
ROOT
ATOM      1  O   LIG    1       26.306 -16.439   3.193  0.00  0.00    -0.251 OA
ATOM      2  C   LIG    1       26.478 -15.245   3.156  0.00  0.00    +0.310 C 
ATOM      3  O   LIG    1       26.586 -14.435   2.069  0.00  0.00    -0.464 OA
ATOM      4  C   LIG    1       26.942 -13.290   2.890  0.00  0.00    +0.243 C 
ATOM      5  C   LIG    1       26.642 -14.086   4.157  0.00  0.00    +0.161 C 
ENDROOT
TORSDOF 0
ENDMDL
MODEL 4
REMARK VINA RESULT:      -3.2      1.472      2.049
REMARK  Name = *****
REMARK                            x       y       z     vdW  Elec       q    Type
REMARK                         _______ _______ _______ _____ _____    ______ ____
ROOT
ATOM      1  O   LIG    1       24.962 -12.751   1.947  0.00  0.00    -0.251 OA
ATOM      2  C   LIG    1       25.738 -13.477   2.519  0.00  0.00    +0.310 C 
ATOM      3  O   LIG    1       26.708 -14.270   1.991  0.00  0.00    -0.464 OA
ATOM      4  C   LIG    1       26.991 -14.877   3.280  0.00  0.00    +0.243 C 
ATOM      5  C   LIG    1       26.064 -13.880   3.970  0.00  0.00    +0.161 C 
ENDROOT
TORSDOF 0
ENDMDL
MODEL 5
REMARK VINA RESULT:      -3.2      1.975      2.393
REMARK  Name = *****
REMARK                            x       y       z     vdW  Elec       q    Type
REMARK                         _______ _______ _______ _____ _____    ______ ____
ROOT
ATOM      1  O   LIG    1       26.667 -14.260   1.886  0.00  0.00    -0.251 OA
ATOM      2  C   LIG    1       25.816 -13.622   2.457  0.00  0.00    +0.310 C 
ATOM      3  O   LIG    1       25.662 -13.412   3.792  0.00  0.00    -0.464 OA
ATOM      4  C   LIG    1       24.380 -12.757   3.597  0.00  0.00    +0.243 C 
ATOM      5  C   LIG    1       24.582 -12.779   2.084  0.00  0.00    +0.161 C 
ENDROOT
TORSDOF 0
ENDMDL
MODEL 6
REMARK VINA RESULT:      -3.2      1.497      2.339
REMARK  Name = *****
REMARK                            x       y       z     vdW  Elec       q    Type
REMARK                         _______ _______ _______ _____ _____    ______ ____
ROOT
ATOM      1  O   LIG    1       27.560 -15.352   3.788  0.00  0.00    -0.251 OA
ATOM      2  C   LIG    1       26.721 -14.645   3.286  0.00  0.00    +0.310 C 
ATOM      3  O   LIG    1       26.608 -14.248   1.990  0.00  0.00    -0.464 OA
ATOM      4  C   LIG    1       25.519 -13.339   2.306  0.00  0.00    +0.243 C 
ATOM      5  C   LIG    1       25.457 -13.885   3.729  0.00  0.00    +0.161 C 
ENDROOT
TORSDOF 0
ENDMDL
MODEL 7
REMARK VINA RESULT:      -3.0      1.668      2.194
REMARK  Name = *****
REMARK                            x       y       z     vdW  Elec       q    Type
REMARK                         _______ _______ _______ _____ _____    ______ ____
ROOT
ATOM      1  O   LIG    1       28.927 -12.951   3.774  0.00  0.00    -0.251 OA
ATOM      2  C   LIG    1       28.013 -13.716   3.585  0.00  0.00    +0.310 C 
ATOM      3  O   LIG    1       27.717 -14.867   4.247  0.00  0.00    -0.464 OA
ATOM      4  C   LIG    1       26.663 -15.201   3.305  0.00  0.00    +0.243 C 
ATOM      5  C   LIG    1       26.805 -13.836   2.638  0.00  0.00    +0.161 C 
ENDROOT
TORSDOF 0
ENDMDL
MODEL 8
REMARK VINA RESULT:      -2.9      6.965      7.545
REMARK  Name = *****
REMARK                            x       y       z     vdW  Elec       q    Type
REMARK                         _______ _______ _______ _____ _____    ______ ____
ROOT
ATOM      1  O   LIG    1       23.009 -20.680   6.620  0.00  0.00    -0.251 OA
ATOM      2  C   LIG    1       23.124 -20.112   5.562  0.00  0.00    +0.310 C 
ATOM      3  O   LIG    1       24.094 -20.256   4.619  0.00  0.00    -0.464 OA
ATOM      4  C   LIG    1       23.583 -19.138   3.844  0.00  0.00    +0.243 C 
ATOM      5  C   LIG    1       22.358 -19.050   4.750  0.00  0.00    +0.161 C 
ENDROOT
TORSDOF 0
ENDMDL
MODEL 9
REMARK VINA RESULT:      -2.9      6.630      7.027
REMARK  Name = *****
REMARK                            x       y       z     vdW  Elec       q    Type
REMARK                         _______ _______ _______ _____ _____    ______ ____
ROOT
ATOM      1  O   LIG    1       24.958 -20.599   4.486  0.00  0.00    -0.251 OA
ATOM      2  C   LIG    1       23.932 -19.965   4.503  0.00  0.00    +0.310 C 
ATOM      3  O   LIG    1       23.485 -19.046   3.606  0.00  0.00    -0.464 OA
ATOM      4  C   LIG    1       22.360 -18.686   4.452  0.00  0.00    +0.243 C 
ATOM      5  C   LIG    1       22.688 -19.834   5.402  0.00  0.00    +0.161 C 
ENDROOT
TORSDOF 0
ENDMDL
