MODEL 1
REMARK VINA RESULT:      -4.2      0.000      0.000
REMARK  Name = *****
REMARK                            x       y       z     vdW  Elec       q    Type
REMARK                         _______ _______ _______ _____ _____    ______ ____
ROOT
ATOM      1  O   LIG    1       21.696 -20.623   4.481  0.00  0.00    -0.273 OA
ATOM      2  C   LIG    1       22.715 -19.992   4.201  0.00  0.00    +0.239 C 
ATOM      3  N   LIG    1       22.790 -18.661   4.520  0.00  0.00    -0.283 N 
ATOM      4  H   LIG    1       21.910 -18.297   4.865  0.00  0.00    +0.155 HD
ATOM      5  C   LIG    1       23.828 -17.772   4.205  0.00  0.00    +0.043 A 
ATOM      6  C   LIG    1       25.176 -18.143   4.037  0.00  0.00    +0.028 A 
ATOM      7  C   LIG    1       26.112 -17.195   3.588  0.00  0.00    +0.096 A 
ATOM      8  C   LIG    1       25.718 -15.861   3.412  0.00  0.00    +0.274 A 
ATOM      9  C   LIG    1       24.398 -15.470   3.658  0.00  0.00    +0.086 A 
ATOM     10  C   LIG    1       25.673 -19.489   4.464  0.00  0.00    +0.077 C 
ATOM     11  N   LIG    1       25.079 -20.598   4.175  0.00  0.00    -0.273 NA
ATOM     12  C   LIG    1       23.460 -16.427   4.052  0.00  0.00    +0.030 A 
ATOM     13  C   LIG    1       23.851 -20.589   3.393  0.00  0.00    +0.238 C 
ENDROOT
BRANCH  10  14
ATOM     14  C   LIG    1       26.951 -19.611   5.258  0.00  0.00    +0.019 A 
ATOM     15  C   LIG    1       27.141 -20.437   6.378  0.00  0.00    +0.050 A 
ATOM     16 CL   LIG    1       25.966 -21.562   6.963  0.00  0.00    -0.083 Cl
ATOM     17  C   LIG    1       28.373 -20.431   7.051  0.00  0.00    +0.021 A 
ATOM     18  C   LIG    1       29.434 -19.654   6.590  0.00  0.00    +0.002 A 
ATOM     19  C   LIG    1       29.275 -18.878   5.448  0.00  0.00    +0.001 A 
ATOM     20  C   LIG    1       28.043 -18.852   4.792  0.00  0.00    +0.011 A 
ENDBRANCH  10  14
BRANCH   8  21
ATOM     21  N   LIG    1       26.709 -14.855   3.010  0.00  0.00    +0.080 N 
ATOM     22  O   LIG    1       27.691 -14.689   3.747  0.00  0.00    -0.576 OA
ATOM     23  O   LIG    1       26.503 -14.235   1.958  0.00  0.00    +0.041 OA
ENDBRANCH   8  21
TORSDOF 2
ENDMDL
MODEL 2
REMARK VINA RESULT:      -1.5      1.448      1.828
REMARK  Name = *****
REMARK                            x       y       z     vdW  Elec       q    Type
REMARK                         _______ _______ _______ _____ _____    ______ ____
ROOT
ATOM      1  O   LIG    1       21.589 -21.566   4.726  0.00  0.00    -0.273 OA
ATOM      2  C   LIG    1       22.462 -20.751   4.431  0.00  0.00    +0.239 C 
ATOM      3  N   LIG    1       22.336 -19.451   4.847  0.00  0.00    -0.283 N 
ATOM      4  H   LIG    1       21.436 -19.270   5.276  0.00  0.00    +0.155 HD
ATOM      5  C   LIG    1       23.182 -18.377   4.537  0.00  0.00    +0.043 A 
ATOM      6  C   LIG    1       24.556 -18.495   4.254  0.00  0.00    +0.028 A 
ATOM      7  C   LIG    1       25.281 -17.372   3.822  0.00  0.00    +0.096 A 
ATOM      8  C   LIG    1       24.655 -16.118   3.776  0.00  0.00    +0.274 A 
ATOM      9  C   LIG    1       23.311 -15.979   4.137  0.00  0.00    +0.086 A 
ATOM     10  C   LIG    1       25.304 -19.759   4.542  0.00  0.00    +0.077 C 
ATOM     11  N   LIG    1       24.886 -20.934   4.206  0.00  0.00    -0.273 NA
ATOM     12  C   LIG    1       22.581 -17.109   4.514  0.00  0.00    +0.030 A 
ATOM     13  C   LIG    1       23.617 -21.087   3.508  0.00  0.00    +0.238 C 
ENDROOT
BRANCH  10  14
ATOM     14  C   LIG    1       26.642 -19.710   5.241  0.00  0.00    +0.019 A 
ATOM     15  C   LIG    1       27.702 -18.848   4.915  0.00  0.00    +0.050 A 
ATOM     16 CL   LIG    1       27.603 -17.596   3.726  0.00  0.00    -0.083 Cl
ATOM     17  C   LIG    1       28.911 -18.928   5.623  0.00  0.00    +0.021 A 
ATOM     18  C   LIG    1       29.058 -19.817   6.687  0.00  0.00    +0.002 A 
ATOM     19  C   LIG    1       27.995 -20.633   7.055  0.00  0.00    +0.001 A 
ATOM     20  C   LIG    1       26.800 -20.584   6.335  0.00  0.00    +0.011 A 
ENDBRANCH  10  14
BRANCH   8  21
ATOM     21  N   LIG    1       25.429 -14.931   3.392  0.00  0.00    +0.080 N 
ATOM     22  O   LIG    1       26.399 -15.095   2.639  0.00  0.00    -0.576 OA
ATOM     23  O   LIG    1       25.063 -13.837   3.843  0.00  0.00    +0.041 OA
ENDBRANCH   8  21
TORSDOF 2
ENDMDL
