MODEL 1
REMARK VINA RESULT:      -5.4      0.000      0.000
REMARK  Name = *****
REMARK                            x       y       z     vdW  Elec       q    Type
REMARK                         _______ _______ _______ _____ _____    ______ ____
ROOT
ATOM      1  C   LIG    1       22.840 -20.640   5.105  0.00  0.00    +0.146 C 
ENDROOT
BRANCH   1   2
ATOM      2  C   LIG    1       23.210 -20.743   6.569  0.00  0.00    +0.032 C 
ATOM      3  C   LIG    1       23.375 -21.819   7.348  0.00  0.00    +0.079 C 
ATOM      4 CL   LIG    1       23.262 -23.451   6.850  0.00  0.00    -0.092 Cl
ENDBRANCH   1   2
BRANCH   1   6
ATOM      5  C   LIG    1       22.145 -18.104   4.579  0.00  0.00    +0.007 C 
ATOM      6  C   LIG    1       22.458 -19.241   4.816  0.00  0.00    -0.067 C 
ENDBRANCH   1   6
BRANCH   1   7
ATOM      7  O   LIG    1       21.700 -21.441   4.811  0.00  0.00    -0.373 OA
ATOM      8  H   LIG    1       21.583 -21.436   3.847  0.00  0.00    +0.212 HD
ENDBRANCH   1   7
BRANCH   1   9
ATOM      9  C   LIG    1       23.981 -21.096   4.172  0.00  0.00    +0.049 C 
ATOM     10  C   LIG    1       25.243 -20.240   4.203  0.00  0.00    +0.008 C 
ENDBRANCH   1   9
TORSDOF 4
ENDMDL
MODEL 2
REMARK VINA RESULT:      -5.0      1.679      2.110
REMARK  Name = *****
REMARK                            x       y       z     vdW  Elec       q    Type
REMARK                         _______ _______ _______ _____ _____    ______ ____
ROOT
ATOM      1  C   LIG    1       23.855 -21.484   5.624  0.00  0.00    +0.146 C 
ENDROOT
BRANCH   1   2
ATOM      2  C   LIG    1       22.993 -22.352   6.516  0.00  0.00    +0.032 C 
ATOM      3  C   LIG    1       23.084 -23.656   6.806  0.00  0.00    +0.079 C 
ATOM      4 CL   LIG    1       24.298 -24.728   6.261  0.00  0.00    -0.092 Cl
ENDBRANCH   1   2
BRANCH   1   6
ATOM      5  C   LIG    1       22.486 -19.257   5.032  0.00  0.00    +0.007 C 
ATOM      6  C   LIG    1       23.101 -20.256   5.296  0.00  0.00    -0.067 C 
ENDBRANCH   1   6
BRANCH   1   7
ATOM      7  O   LIG    1       24.125 -22.137   4.387  0.00  0.00    -0.373 OA
ATOM      8  H   LIG    1       23.271 -22.364   3.986  0.00  0.00    +0.212 HD
ENDBRANCH   1   7
BRANCH   1   9
ATOM      9  C   LIG    1       25.212 -21.135   6.270  0.00  0.00    +0.049 C 
ATOM     10  C   LIG    1       25.164 -20.760   7.747  0.00  0.00    +0.008 C 
ENDBRANCH   1   9
TORSDOF 4
ENDMDL
MODEL 3
REMARK VINA RESULT:      -5.0      2.036      3.388
REMARK  Name = *****
REMARK                            x       y       z     vdW  Elec       q    Type
REMARK                         _______ _______ _______ _____ _____    ______ ____
ROOT
ATOM      1  C   LIG    1       23.976 -21.309   5.458  0.00  0.00    +0.146 C 
ENDROOT
BRANCH   1   2
ATOM      2  C   LIG    1       25.426 -20.895   5.598  0.00  0.00    +0.032 C 
ATOM      3  C   LIG    1       26.135 -20.578   6.688  0.00  0.00    +0.079 C 
ATOM      4 CL   LIG    1       25.576 -20.619   8.302  0.00  0.00    -0.092 Cl
ENDBRANCH   1   2
BRANCH   1   6
ATOM      5  C   LIG    1       23.620 -23.607   6.792  0.00  0.00    +0.007 C 
ATOM      6  C   LIG    1       23.778 -22.575   6.194  0.00  0.00    -0.067 C 
ENDBRANCH   1   6
BRANCH   1   7
ATOM      7  O   LIG    1       23.652 -21.575   4.097  0.00  0.00    -0.373 OA
ATOM      8  H   LIG    1       24.419 -22.014   3.697  0.00  0.00    +0.212 HD
ENDBRANCH   1   7
BRANCH   1   9
ATOM      9  C   LIG    1       23.000 -20.226   5.965  0.00  0.00    +0.049 C 
ATOM     10  C   LIG    1       22.470 -19.266   4.906  0.00  0.00    +0.008 C 
ENDBRANCH   1   9
TORSDOF 4
ENDMDL
MODEL 4
REMARK VINA RESULT:      -5.0      2.453      3.711
REMARK  Name = *****
REMARK                            x       y       z     vdW  Elec       q    Type
REMARK                         _______ _______ _______ _____ _____    ______ ____
ROOT
ATOM      1  C   LIG    1       23.696 -21.576   5.991  0.00  0.00    +0.146 C 
ENDROOT
BRANCH   1   2
ATOM      2  C   LIG    1       22.729 -20.447   5.704  0.00  0.00    +0.032 C 
ATOM      3  C   LIG    1       22.808 -19.440   4.825  0.00  0.00    +0.079 C 
ATOM      4 CL   LIG    1       24.064 -19.185   3.694  0.00  0.00    -0.092 Cl
ENDBRANCH   1   2
BRANCH   1   6
ATOM      5  C   LIG    1       25.930 -20.530   7.040  0.00  0.00    +0.007 C 
ATOM      6  C   LIG    1       24.928 -21.000   6.569  0.00  0.00    -0.067 C 
ENDBRANCH   1   6
BRANCH   1   7
ATOM      7  O   LIG    1       24.081 -22.234   4.788  0.00  0.00    -0.373 OA
ATOM      8  H   LIG    1       23.268 -22.458   4.307  0.00  0.00    +0.212 HD
ENDBRANCH   1   7
BRANCH   1   9
ATOM      9  C   LIG    1       23.098 -22.642   6.933  0.00  0.00    +0.049 C 
ATOM     10  C   LIG    1       23.526 -24.080   6.660  0.00  0.00    +0.008 C 
ENDBRANCH   1   9
TORSDOF 4
ENDMDL
MODEL 5
REMARK VINA RESULT:      -4.9      2.467      4.033
REMARK  Name = *****
REMARK                            x       y       z     vdW  Elec       q    Type
REMARK                         _______ _______ _______ _____ _____    ______ ____
ROOT
ATOM      1  C   LIG    1       24.344 -21.744   7.257  0.00  0.00    +0.146 C 
ENDROOT
BRANCH   1   2
ATOM      2  C   LIG    1       24.699 -21.036   5.966  0.00  0.00    +0.032 C 
ATOM      3  C   LIG    1       23.912 -20.569   4.989  0.00  0.00    +0.079 C 
ATOM      4 CL   LIG    1       22.203 -20.599   4.969  0.00  0.00    -0.092 Cl
ENDBRANCH   1   2
BRANCH   1   6
ATOM      5  C   LIG    1       23.362 -24.164   6.651  0.00  0.00    +0.007 C 
ATOM      6  C   LIG    1       23.802 -23.079   6.924  0.00  0.00    -0.067 C 
ENDBRANCH   1   6
BRANCH   1   7
ATOM      7  O   LIG    1       23.313 -21.050   7.951  0.00  0.00    -0.373 OA
ATOM      8  H   LIG    1       23.067 -20.281   7.412  0.00  0.00    +0.212 HD
ENDBRANCH   1   7
BRANCH   1   9
ATOM      9  C   LIG    1       25.547 -21.868   8.214  0.00  0.00    +0.049 C 
ATOM     10  C   LIG    1       26.273 -20.566   8.535  0.00  0.00    +0.008 C 
ENDBRANCH   1   9
TORSDOF 4
ENDMDL
MODEL 6
REMARK VINA RESULT:      -4.9      2.988      4.519
REMARK  Name = *****
REMARK                            x       y       z     vdW  Elec       q    Type
REMARK                         _______ _______ _______ _____ _____    ______ ____
ROOT
ATOM      1  C   LIG    1       24.714 -22.950   6.704  0.00  0.00    +0.146 C 
ENDROOT
BRANCH   1   2
ATOM      2  C   LIG    1       25.863 -22.943   7.691  0.00  0.00    +0.032 C 
ATOM      3  C   LIG    1       26.667 -21.945   8.078  0.00  0.00    +0.079 C 
ATOM      4 CL   LIG    1       26.563 -20.314   7.576  0.00  0.00    -0.092 Cl
ENDBRANCH   1   2
BRANCH   1   6
ATOM      5  C   LIG    1       24.063 -25.497   6.178  0.00  0.00    +0.007 C 
ATOM      6  C   LIG    1       24.354 -24.354   6.415  0.00  0.00    -0.067 C 
ENDBRANCH   1   6
BRANCH   1   7
ATOM      7  O   LIG    1       25.104 -22.367   5.465  0.00  0.00    -0.373 OA
ATOM      8  H   LIG    1       26.069 -22.260   5.486  0.00  0.00    +0.212 HD
ENDBRANCH   1   7
BRANCH   1   9
ATOM      9  C   LIG    1       23.487 -22.168   7.219  0.00  0.00    +0.049 C 
ATOM     10  C   LIG    1       23.226 -20.827   6.542  0.00  0.00    +0.008 C 
ENDBRANCH   1   9
TORSDOF 4
ENDMDL
MODEL 7
REMARK VINA RESULT:      -4.9      2.439      3.064
REMARK  Name = *****
REMARK                            x       y       z     vdW  Elec       q    Type
REMARK                         _______ _______ _______ _____ _____    ______ ____
ROOT
ATOM      1  C   LIG    1       23.605 -21.214   6.594  0.00  0.00    +0.146 C 
ENDROOT
BRANCH   1   2
ATOM      2  C   LIG    1       25.052 -21.355   6.174  0.00  0.00    +0.032 C 
ATOM      3  C   LIG    1       26.179 -21.042   6.825  0.00  0.00    +0.079 C 
ATOM      4 CL   LIG    1       26.285 -20.422   8.415  0.00  0.00    -0.092 Cl
ENDBRANCH   1   2
BRANCH   1   6
ATOM      5  C   LIG    1       22.439 -19.375   5.030  0.00  0.00    +0.007 C 
ATOM      6  C   LIG    1       22.963 -20.200   5.732  0.00  0.00    -0.067 C 
ENDBRANCH   1   6
BRANCH   1   7
ATOM      7  O   LIG    1       23.508 -20.730   7.930  0.00  0.00    -0.373 OA
ATOM      8  H   LIG    1       23.678 -19.775   7.906  0.00  0.00    +0.212 HD
ENDBRANCH   1   7
BRANCH   1   9
ATOM      9  C   LIG    1       22.836 -22.551   6.528  0.00  0.00    +0.049 C 
ATOM     10  C   LIG    1       23.676 -23.807   6.730  0.00  0.00    +0.008 C 
ENDBRANCH   1   9
TORSDOF 4
ENDMDL
MODEL 8
REMARK VINA RESULT:      -4.9      3.648      4.762
REMARK  Name = *****
REMARK                            x       y       z     vdW  Elec       q    Type
REMARK                         _______ _______ _______ _____ _____    ______ ____
ROOT
ATOM      1  C   LIG    1       24.931 -24.206   6.013  0.00  0.00    +0.146 C 
ENDROOT
BRANCH   1   2
ATOM      2  C   LIG    1       23.549 -24.233   6.633  0.00  0.00    +0.032 C 
ATOM      3  C   LIG    1       22.655 -23.251   6.799  0.00  0.00    +0.079 C 
ATOM      4 CL   LIG    1       22.822 -21.634   6.271  0.00  0.00    -0.092 Cl
ENDBRANCH   1   2
BRANCH   1   6
ATOM      5  C   LIG    1       26.483 -22.581   7.474  0.00  0.00    +0.007 C 
ATOM      6  C   LIG    1       25.788 -23.311   6.818  0.00  0.00    -0.067 C 
ENDBRANCH   1   6
BRANCH   1   7
ATOM      7  O   LIG    1       24.888 -23.656   4.701  0.00  0.00    -0.373 OA
ATOM      8  H   LIG    1       25.629 -23.033   4.623  0.00  0.00    +0.212 HD
ENDBRANCH   1   7
BRANCH   1   9
ATOM      9  C   LIG    1       25.559 -25.612   5.907  0.00  0.00    +0.049 C 
ATOM     10  C   LIG    1       24.638 -26.776   6.257  0.00  0.00    +0.008 C 
ENDBRANCH   1   9
TORSDOF 4
ENDMDL
MODEL 9
REMARK VINA RESULT:      -4.9      2.326      3.694
REMARK  Name = *****
REMARK                            x       y       z     vdW  Elec       q    Type
REMARK                         _______ _______ _______ _____ _____    ______ ____
ROOT
ATOM      1  C   LIG    1       23.718 -21.153   5.388  0.00  0.00    +0.146 C 
ENDROOT
BRANCH   1   2
ATOM      2  C   LIG    1       25.192 -20.848   5.552  0.00  0.00    +0.032 C 
ATOM      3  C   LIG    1       25.987 -20.017   4.866  0.00  0.00    +0.079 C 
ATOM      4 CL   LIG    1       25.506 -18.981   3.594  0.00  0.00    -0.092 Cl
ENDBRANCH   1   2
BRANCH   1   6
ATOM      5  C   LIG    1       23.130 -23.323   6.847  0.00  0.00    +0.007 C 
ATOM      6  C   LIG    1       23.395 -22.349   6.193  0.00  0.00    -0.067 C 
ENDBRANCH   1   6
BRANCH   1   7
ATOM      7  O   LIG    1       23.413 -21.479   4.036  0.00  0.00    -0.373 OA
ATOM      8  H   LIG    1       22.551 -21.926   4.032  0.00  0.00    +0.212 HD
ENDBRANCH   1   7
BRANCH   1   9
ATOM      9  C   LIG    1       22.820 -19.965   5.792  0.00  0.00    +0.049 C 
ATOM     10  C   LIG    1       22.257 -19.140   4.641  0.00  0.00    +0.008 C 
ENDBRANCH   1   9
TORSDOF 4
ENDMDL
