MODEL 1
REMARK VINA RESULT:       8.5      0.000      0.000
REMARK  Name = *****
REMARK                            x       y       z     vdW  Elec       q    Type
REMARK                         _______ _______ _______ _____ _____    ______ ____
ROOT
ATOM      1  N   LIG    1       24.154 -16.904   2.939  0.00  0.00    -0.300 N 
ATOM      2  H   LIG    1       24.264 -16.656   1.958  0.00  0.00    +0.150 HD
ATOM      3  C   LIG    1       24.234 -18.261   3.174  0.00  0.00    +0.239 C 
ATOM      4  O   LIG    1       24.438 -19.004   2.214  0.00  0.00    -0.273 OA
ENDROOT
BRANCH   1  10
ATOM      5  C   LIG    1       27.017 -13.550   1.958  0.00  0.00    +0.025 C 
ATOM      6  C   LIG    1       27.023 -13.713   3.489  0.00  0.00    +0.042 C 
ATOM      7  CA  LIG    1       25.816 -12.974   4.133  0.00  0.00    +0.201 C 
ATOM      8  N   LIG    1       24.778 -13.976   4.431  0.00  0.00    -0.271 N 
ATOM      9  C   LIG    1       25.219 -15.353   4.694  0.00  0.00    +0.165 C 
ATOM     10  CA  LIG    1       23.951 -15.846   3.955  0.00  0.00    +0.190 C 
ATOM     11  C   LIG    1       23.874 -14.366   3.478  0.00  0.00    +0.240 C 
ATOM     12  O   LIG    1       23.366 -13.735   2.572  0.00  0.00    -0.273 OA
ATOM     13  S   LIG    1       26.812 -15.532   3.837  0.00  0.00    -0.127 S 
ATOM     14  C   LIG    1       28.413 -13.318   4.007  0.00  0.00    +0.025 C 
BRANCH   7  15
ATOM     15  C   LIG    1       26.120 -12.204   5.430  0.00  0.00    +0.327 C 
ATOM     16  O   LIG    1       27.195 -12.225   6.011  0.00  0.00    -0.249 OA
BRANCH  15  17
ATOM     17  OXT LIG    1       25.080 -11.466   5.895  0.00  0.00    -0.479 OA
ATOM     18  HXT LIG    1       24.428 -12.036   6.347  0.00  0.00    +0.295 HD
ENDBRANCH  15  17
ENDBRANCH   7  15
ENDBRANCH   1  10
BRANCH   3  19
ATOM     19  CA  LIG    1       24.163 -18.735   4.650  0.00  0.00    +0.191 C 
BRANCH  19  20
ATOM     20  N   LIG    1       25.527 -19.033   5.100  0.00  0.00    -0.284 N 
ATOM     21  H   LIG    1       26.250 -18.353   4.869  0.00  0.00    +0.151 HD
ATOM     22  C   LIG    1       25.943 -20.281   5.496  0.00  0.00    +0.311 C 
ATOM     23  N   LIG    1       27.261 -20.352   5.914  0.00  0.00    -0.208 N 
ATOM     24  C   LIG    1       28.268 -19.397   5.715  0.00  0.00    +0.310 C 
ATOM     25  O   LIG    1       28.150 -18.293   5.209  0.00  0.00    -0.252 OA
ATOM     26  N   LIG    1       29.451 -19.892   6.244  0.00  0.00    -0.297 N 
ATOM     27  H   LIG    1       30.238 -19.264   6.347  0.00  0.00    +0.150 HD
ATOM     28  C   LIG    1       29.181 -21.039   7.061  0.00  0.00    +0.125 C 
ATOM     29  C   LIG    1       27.833 -21.529   6.550  0.00  0.00    +0.138 C 
ATOM     30  O   LIG    1       25.186 -21.247   5.549  0.00  0.00    -0.252 OA
ENDBRANCH  19  20
BRANCH  19  31
ATOM     31  C   LIG    1       23.175 -19.862   4.912  0.00  0.00    -0.018 A 
ATOM     32  C   LIG    1       22.230 -20.214   3.930  0.00  0.00    +0.006 A 
ATOM     33  C   LIG    1       21.153 -21.047   4.248  0.00  0.00    +0.000 A 
ATOM     34  C   LIG    1       21.027 -21.569   5.534  0.00  0.00    +0.000 A 
ATOM     35  C   LIG    1       22.000 -21.298   6.490  0.00  0.00    +0.000 A 
ATOM     36  C   LIG    1       23.066 -20.458   6.179  0.00  0.00    +0.006 A 
ENDBRANCH  19  31
ENDBRANCH   3  19
TORSDOF 6
ENDMDL
