MODEL 1
REMARK VINA RESULT:      -3.3      0.000      0.000
REMARK  Name = *****
REMARK                            x       y       z     vdW  Elec       q    Type
REMARK                         _______ _______ _______ _____ _____    ______ ____
ROOT
ATOM      1  C   LIG    1       30.529 -19.583   8.510  0.00  0.00    +0.078 C 
ENDROOT
BRANCH   1   2
ATOM      2  S   LIG    1       30.469 -19.188   6.712  0.00  0.00    -0.172 S 
ATOM      3  H   LIG    1       31.783 -19.363   6.498  0.00  0.00    +0.102 HD
ENDBRANCH   1   2
BRANCH   1   4
ATOM      4  C   LIG    1       31.013 -21.030   8.690  0.00  0.00    +0.170 C 
BRANCH   4   5
ATOM      5  O   LIG    1       32.257 -21.079   9.386  0.00  0.00    -0.394 OA
ATOM      6  H   LIG    1       32.577 -20.165   9.462  0.00  0.00    +0.209 HD
ENDBRANCH   4   5
ENDBRANCH   1   4
BRANCH   1   7
ATOM      7  C   LIG    1       31.439 -18.602   9.267  0.00  0.00    +0.081 C 
BRANCH   7   8
ATOM      8  S   LIG    1       30.522 -17.533  10.429  0.00  0.00    -0.177 S 
ATOM      9  H   LIG    1       30.637 -16.409   9.700  0.00  0.00    +0.102 HD
ENDBRANCH   7   8
ENDBRANCH   1   7
TORSDOF 5
ENDMDL
MODEL 2
REMARK VINA RESULT:      -3.3      1.620      2.659
REMARK  Name = *****
REMARK                            x       y       z     vdW  Elec       q    Type
REMARK                         _______ _______ _______ _____ _____    ______ ____
ROOT
ATOM      1  C   LIG    1       31.111 -19.980   7.877  0.00  0.00    +0.078 C 
ENDROOT
BRANCH   1   2
ATOM      2  S   LIG    1       31.556 -18.481   8.851  0.00  0.00    -0.172 S 
ATOM      3  H   LIG    1       31.194 -18.989  10.041  0.00  0.00    +0.102 HD
ENDBRANCH   1   2
BRANCH   1   4
ATOM      4  C   LIG    1       30.996 -21.180   8.829  0.00  0.00    +0.170 C 
BRANCH   4   5
ATOM      5  O   LIG    1       32.241 -21.461   9.465  0.00  0.00    -0.394 OA
ATOM      6  H   LIG    1       32.749 -20.632   9.476  0.00  0.00    +0.209 HD
ENDBRANCH   4   5
ENDBRANCH   1   4
BRANCH   1   7
ATOM      7  C   LIG    1       29.803 -19.772   7.097  0.00  0.00    +0.081 C 
BRANCH   7   8
ATOM      8  S   LIG    1       28.615 -21.141   7.320  0.00  0.00    -0.177 S 
ATOM      9  H   LIG    1       28.098 -21.077   6.080  0.00  0.00    +0.102 HD
ENDBRANCH   7   8
ENDBRANCH   1   7
TORSDOF 5
ENDMDL
MODEL 3
REMARK VINA RESULT:      -3.3      1.653      1.658
REMARK  Name = *****
REMARK                            x       y       z     vdW  Elec       q    Type
REMARK                         _______ _______ _______ _____ _____    ______ ____
ROOT
ATOM      1  C   LIG    1       30.264 -20.525   8.394  0.00  0.00    +0.078 C 
ENDROOT
BRANCH   1   2
ATOM      2  S   LIG    1       28.881 -21.035   7.291  0.00  0.00    -0.172 S 
ATOM      3  H   LIG    1       29.652 -21.709   6.421  0.00  0.00    +0.102 HD
ENDBRANCH   1   2
BRANCH   1   4
ATOM      4  C   LIG    1       30.976 -21.781   8.919  0.00  0.00    +0.170 C 
BRANCH   4   5
ATOM      5  O   LIG    1       32.228 -21.455   9.521  0.00  0.00    -0.394 OA
ATOM      6  H   LIG    1       32.812 -22.221   9.395  0.00  0.00    +0.209 HD
ENDBRANCH   4   5
ENDBRANCH   1   4
BRANCH   1   7
ATOM      7  C   LIG    1       31.250 -19.600   7.664  0.00  0.00    +0.081 C 
BRANCH   7   8
ATOM      8  S   LIG    1       31.640 -18.086   8.607  0.00  0.00    -0.177 S 
ATOM      9  H   LIG    1       32.777 -17.803   7.950  0.00  0.00    +0.102 HD
ENDBRANCH   7   8
ENDBRANCH   1   7
TORSDOF 5
ENDMDL
MODEL 4
REMARK VINA RESULT:      -3.1      2.173      2.796
REMARK  Name = *****
REMARK                            x       y       z     vdW  Elec       q    Type
REMARK                         _______ _______ _______ _____ _____    ______ ____
ROOT
ATOM      1  C   LIG    1       30.829 -19.639   7.248  0.00  0.00    +0.078 C 
ENDROOT
BRANCH   1   2
ATOM      2  S   LIG    1       29.680 -18.671   6.183  0.00  0.00    -0.172 S 
ATOM      3  H   LIG    1       29.670 -17.578   6.964  0.00  0.00    +0.102 HD
ENDBRANCH   1   2
BRANCH   1   4
ATOM      4  C   LIG    1       31.558 -18.679   8.201  0.00  0.00    +0.170 C 
BRANCH   4   5
ATOM      5  O   LIG    1       32.139 -19.380   9.299  0.00  0.00    -0.394 OA
ATOM      6  H   LIG    1       31.647 -20.211   9.399  0.00  0.00    +0.209 HD
ENDBRANCH   4   5
ENDBRANCH   1   4
BRANCH   1   7
ATOM      7  C   LIG    1       30.081 -20.728   8.033  0.00  0.00    +0.081 C 
BRANCH   7   8
ATOM      8  S   LIG    1       28.469 -21.160   7.292  0.00  0.00    -0.177 S 
ATOM      9  H   LIG    1       28.407 -22.398   7.811  0.00  0.00    +0.102 HD
ENDBRANCH   7   8
ENDBRANCH   1   7
TORSDOF 5
ENDMDL
MODEL 5
REMARK VINA RESULT:      -3.0      8.046      8.715
REMARK  Name = *****
REMARK                            x       y       z     vdW  Elec       q    Type
REMARK                         _______ _______ _______ _____ _____    ______ ____
ROOT
ATOM      1  C   LIG    1       24.565 -23.309   6.829  0.00  0.00    +0.078 C 
ENDROOT
BRANCH   1   2
ATOM      2  S   LIG    1       24.542 -22.103   5.437  0.00  0.00    -0.172 S 
ATOM      3  H   LIG    1       25.774 -22.399   4.990  0.00  0.00    +0.102 HD
ENDBRANCH   1   2
BRANCH   1   4
ATOM      4  C   LIG    1       23.455 -24.349   6.609  0.00  0.00    +0.170 C 
BRANCH   4   5
ATOM      5  O   LIG    1       22.163 -23.746   6.648  0.00  0.00    -0.394 OA
ATOM      6  H   LIG    1       22.150 -23.055   5.966  0.00  0.00    +0.209 HD
ENDBRANCH   4   5
ENDBRANCH   1   4
BRANCH   1   7
ATOM      7  C   LIG    1       25.936 -23.990   6.957  0.00  0.00    +0.081 C 
BRANCH   7   8
ATOM      8  S   LIG    1       25.950 -25.694   6.300  0.00  0.00    -0.177 S 
ATOM      9  H   LIG    1       24.700 -26.001   6.689  0.00  0.00    +0.102 HD
ENDBRANCH   7   8
ENDBRANCH   1   7
TORSDOF 5
ENDMDL
MODEL 6
REMARK VINA RESULT:      -3.0      8.064      8.526
REMARK  Name = *****
REMARK                            x       y       z     vdW  Elec       q    Type
REMARK                         _______ _______ _______ _____ _____    ______ ____
ROOT
ATOM      1  C   LIG    1       24.314 -22.723   6.539  0.00  0.00    +0.078 C 
ENDROOT
BRANCH   1   2
ATOM      2  S   LIG    1       25.921 -22.848   7.430  0.00  0.00    -0.172 S 
ATOM      3  H   LIG    1       26.164 -24.122   7.079  0.00  0.00    +0.102 HD
ENDBRANCH   1   2
BRANCH   1   4
ATOM      4  C   LIG    1       23.565 -24.059   6.665  0.00  0.00    +0.170 C 
BRANCH   4   5
ATOM      5  O   LIG    1       22.152 -23.864   6.672  0.00  0.00    -0.394 OA
ATOM      6  H   LIG    1       21.745 -24.737   6.795  0.00  0.00    +0.209 HD
ENDBRANCH   4   5
ENDBRANCH   1   4
BRANCH   1   7
ATOM      7  C   LIG    1       23.463 -21.564   7.080  0.00  0.00    +0.081 C 
BRANCH   7   8
ATOM      8  S   LIG    1       23.000 -20.357   5.791  0.00  0.00    -0.177 S 
ATOM      9  H   LIG    1       22.067 -21.130   5.208  0.00  0.00    +0.102 HD
ENDBRANCH   7   8
ENDBRANCH   1   7
TORSDOF 5
ENDMDL
MODEL 7
REMARK VINA RESULT:      -2.9      2.775      3.011
REMARK  Name = *****
REMARK                            x       y       z     vdW  Elec       q    Type
REMARK                         _______ _______ _______ _____ _____    ______ ____
ROOT
ATOM      1  C   LIG    1       30.731 -17.129   9.363  0.00  0.00    +0.078 C 
ENDROOT
BRANCH   1   2
ATOM      2  S   LIG    1       30.094 -18.608   8.471  0.00  0.00    -0.172 S 
ATOM      3  H   LIG    1       29.155 -17.945   7.776  0.00  0.00    +0.102 HD
ENDBRANCH   1   2
BRANCH   1   4
ATOM      4  C   LIG    1       30.430 -17.279  10.862  0.00  0.00    +0.170 C 
BRANCH   4   5
ATOM      5  O   LIG    1       30.727 -18.596  11.323  0.00  0.00    -0.394 OA
ATOM      6  H   LIG    1       31.369 -18.506  12.047  0.00  0.00    +0.209 HD
ENDBRANCH   4   5
ENDBRANCH   1   4
BRANCH   1   7
ATOM      7  C   LIG    1       32.237 -16.937   9.124  0.00  0.00    +0.081 C 
BRANCH   7   8
ATOM      8  S   LIG    1       33.006 -15.784  10.312  0.00  0.00    -0.177 S 
ATOM      9  H   LIG    1       32.568 -16.413  11.417  0.00  0.00    +0.102 HD
ENDBRANCH   7   8
ENDBRANCH   1   7
TORSDOF 5
ENDMDL
MODEL 8
REMARK VINA RESULT:      -2.9     10.039     10.634
REMARK  Name = *****
REMARK                            x       y       z     vdW  Elec       q    Type
REMARK                         _______ _______ _______ _____ _____    ______ ____
ROOT
ATOM      1  C   LIG    1       24.539 -27.226   5.351  0.00  0.00    +0.078 C 
ENDROOT
BRANCH   1   2
ATOM      2  S   LIG    1       26.336 -27.197   4.954  0.00  0.00    -0.172 S 
ATOM      3  H   LIG    1       26.695 -26.481   6.033  0.00  0.00    +0.102 HD
ENDBRANCH   1   2
BRANCH   1   4
ATOM      4  C   LIG    1       24.218 -28.512   6.128  0.00  0.00    +0.170 C 
BRANCH   4   5
ATOM      5  O   LIG    1       23.273 -29.320   5.428  0.00  0.00    -0.394 OA
ATOM      6  H   LIG    1       22.503 -28.759   5.239  0.00  0.00    +0.209 HD
ENDBRANCH   4   5
ENDBRANCH   1   4
BRANCH   1   7
ATOM      7  C   LIG    1       24.123 -25.983   6.154  0.00  0.00    +0.081 C 
BRANCH   7   8
ATOM      8  S   LIG    1       25.153 -24.521   5.787  0.00  0.00    -0.177 S 
ATOM      9  H   LIG    1       25.295 -24.128   7.064  0.00  0.00    +0.102 HD
ENDBRANCH   7   8
ENDBRANCH   1   7
TORSDOF 5
ENDMDL
MODEL 9
REMARK VINA RESULT:      -2.9      7.845      8.266
REMARK  Name = *****
REMARK                            x       y       z     vdW  Elec       q    Type
REMARK                         _______ _______ _______ _____ _____    ______ ____
ROOT
ATOM      1  C   LIG    1       23.447 -21.805   7.098  0.00  0.00    +0.078 C 
ENDROOT
BRANCH   1   2
ATOM      2  S   LIG    1       22.867 -20.877   5.617  0.00  0.00    -0.172 S 
ATOM      3  H   LIG    1       22.973 -19.661   6.177  0.00  0.00    +0.102 HD
ENDBRANCH   1   2
BRANCH   1   4
ATOM      4  C   LIG    1       23.474 -23.306   6.771  0.00  0.00    +0.170 C 
BRANCH   4   5
ATOM      5  O   LIG    1       22.154 -23.834   6.647  0.00  0.00    -0.394 OA
ATOM      6  H   LIG    1       21.819 -23.561   5.777  0.00  0.00    +0.209 HD
ENDBRANCH   4   5
ENDBRANCH   1   4
BRANCH   1   7
ATOM      7  C   LIG    1       24.832 -21.319   7.555  0.00  0.00    +0.081 C 
BRANCH   7   8
ATOM      8  S   LIG    1       26.118 -22.608   7.424  0.00  0.00    -0.177 S 
ATOM      9  H   LIG    1       25.423 -23.412   6.600  0.00  0.00    +0.102 HD
ENDBRANCH   7   8
ENDBRANCH   1   7
TORSDOF 5
ENDMDL
